MODEL 1
REMARK VINA RESULT:      -7.9      0.000      0.000
REMARK  Name = 
REMARK  9 active torsions:
REMARK  status: ('A' for Active; 'I' for Inactive)
REMARK    1  A    between atoms: C_1  and  C_2
REMARK    2  A    between atoms: C_2  and  N_3
REMARK    3  A    between atoms: C_8  and  C_9
REMARK    4  A    between atoms: C_12  and  C_13
REMARK    5  A    between atoms: C_15  and  S_16
REMARK    6  A    between atoms: S_16  and  C_19
REMARK    7  A    between atoms: C_19  and  C_20
REMARK    8  A    between atoms: C_23  and  O_24
REMARK    9  A    between atoms: O_24  and  C_25
REMARK                            x       y       z     vdW  Elec       q    Type
REMARK                         _______ _______ _______ _____ _____    ______ ____
ROOT
ATOM      1  C   UNL     1       1.487   9.091  18.907  0.00  0.00    +0.000 A 
ATOM      2  C   UNL     1       1.386   8.455  20.131  0.00  0.00    +0.000 A 
ATOM      3  C   UNL     1       2.072   7.224  20.055  0.00  0.00    +0.000 A 
ATOM      4  C   UNL     1       2.568   7.080  18.773  0.00  0.00    +0.000 A 
ATOM      5  N   UNL     1       2.233   8.248  18.107  0.00  0.00    +0.000 N 
ATOM      6  H   UNL     1       2.466   8.444  17.143  0.00  0.00    +0.000 HD
ENDROOT
BRANCH   1  12
ATOM      7  N   UNL     1      -0.494  10.580  18.425  0.00  0.00    +0.000 NA
ATOM      8  C   UNL     1      -1.030  10.609  19.787  0.00  0.00    +0.000 C 
ATOM      9  C   UNL     1      -0.397  11.721  20.631  0.00  0.00    +0.000 C 
ATOM     10  C   UNL     1       1.121  11.819  20.527  0.00  0.00    +0.000 C 
ATOM     11  C   UNL     1       1.611  11.627  19.095  0.00  0.00    +0.000 C 
ATOM     12  C   UNL     1       0.971  10.420  18.388  0.00  0.00    +0.000 C 
BRANCH   7  14
ATOM     13  C   UNL     1      -2.699   9.945  17.441  0.00  0.00    +0.000 C 
ATOM     14  C   UNL     1      -1.197   9.668  17.519  0.00  0.00    +0.000 C 
ENDBRANCH   7  14
ENDBRANCH   1  12
BRANCH   4  15
ATOM     15  C   UNL     1       3.288   5.957  18.138  0.00  0.00    +0.000 A 
ATOM     16  C   UNL     1       4.627   6.155  17.754  0.00  0.00    +0.000 A 
ATOM     17  C   UNL     1       5.331   5.153  17.080  0.00  0.00    +0.000 A 
ATOM     18  C   UNL     1       4.729   3.935  16.785  0.00  0.00    +0.000 A 
ATOM     19  C   UNL     1       3.418   3.706  17.193  0.00  0.00    +0.000 A 
ATOM     20  C   UNL     1       2.691   4.696  17.875  0.00  0.00    +0.000 A 
BRANCH  17  21
ATOM     21  S   UNL     1       6.968   5.495  16.479  0.00  0.00    +0.000 S 
ATOM     22  O   UNL     1       7.832   4.433  16.957  0.00  0.00    +0.000 OA
ATOM     23  O   UNL     1       6.845   5.773  15.059  0.00  0.00    +0.000 OA
BRANCH  21  24
ATOM     24  C   UNL     1       7.415   7.002  17.315  0.00  0.00    +0.000 C 
ATOM     25  C   UNL     1       8.016   6.710  18.673  0.00  0.00    +0.000 C 
ENDBRANCH  21  24
ENDBRANCH  17  21
BRANCH  20  26
ATOM     26  O   UNL     1       1.380   4.510  18.245  0.00  0.00    +0.000 OA
ATOM     27  C   UNL     1       1.033   3.230  18.766  0.00  0.00    +0.000 C 
ENDBRANCH  20  26
ENDBRANCH   4  15
TORSDOF 6
ENDMDL
MODEL 2
REMARK VINA RESULT:      -7.7      1.683      2.810
REMARK  Name = 
REMARK  9 active torsions:
REMARK  status: ('A' for Active; 'I' for Inactive)
REMARK    1  A    between atoms: C_1  and  C_2
REMARK    2  A    between atoms: C_2  and  N_3
REMARK    3  A    between atoms: C_8  and  C_9
REMARK    4  A    between atoms: C_12  and  C_13
REMARK    5  A    between atoms: C_15  and  S_16
REMARK    6  A    between atoms: S_16  and  C_19
REMARK    7  A    between atoms: C_19  and  C_20
REMARK    8  A    between atoms: C_23  and  O_24
REMARK    9  A    between atoms: O_24  and  C_25
REMARK                            x       y       z     vdW  Elec       q    Type
REMARK                         _______ _______ _______ _____ _____    ______ ____
ROOT
ATOM      1  C   UNL     1       1.080   9.228  19.105  0.00  0.00    +0.000 A 
ATOM      2  C   UNL     1       1.739   9.676  17.974  0.00  0.00    +0.000 A 
ATOM      3  C   UNL     1       2.678   8.696  17.586  0.00  0.00    +0.000 A 
ATOM      4  C   UNL     1       2.627   7.658  18.496  0.00  0.00    +0.000 A 
ATOM      5  N   UNL     1       1.618   7.988  19.387  0.00  0.00    +0.000 N 
ATOM      6  H   UNL     1       1.338   7.416  20.171  0.00  0.00    +0.000 HD
ENDROOT
BRANCH   1  12
ATOM      7  N   UNL     1       0.444  10.734  21.029  0.00  0.00    +0.000 NA
ATOM      8  C   UNL     1       1.058  11.957  20.509  0.00  0.00    +0.000 C 
ATOM      9  C   UNL     1       0.108  12.730  19.588  0.00  0.00    +0.000 C 
ATOM     10  C   UNL     1      -0.619  11.876  18.554  0.00  0.00    +0.000 C 
ATOM     11  C   UNL     1      -1.096  10.550  19.139  0.00  0.00    +0.000 C 
ATOM     12  C   UNL     1      -0.019   9.825  19.964  0.00  0.00    +0.000 C 
BRANCH   7  14
ATOM     13  C   UNL     1       0.361   9.313  23.081  0.00  0.00    +0.000 C 
ATOM     14  C   UNL     1       1.229  10.056  22.065  0.00  0.00    +0.000 C 
ENDBRANCH   7  14
ENDBRANCH   1  12
BRANCH   4  15
ATOM     15  C   UNL     1       3.442   6.430  18.606  0.00  0.00    +0.000 A 
ATOM     16  C   UNL     1       4.593   6.318  17.806  0.00  0.00    +0.000 A 
ATOM     17  C   UNL     1       5.356   5.147  17.813  0.00  0.00    +0.000 A 
ATOM     18  C   UNL     1       5.003   4.072  18.621  0.00  0.00    +0.000 A 
ATOM     19  C   UNL     1       3.890   4.180  19.451  0.00  0.00    +0.000 A 
ATOM     20  C   UNL     1       3.109   5.348  19.463  0.00  0.00    +0.000 A 
BRANCH  17  21
ATOM     21  S   UNL     1       6.714   4.987  16.678  0.00  0.00    +0.000 S 
ATOM     22  O   UNL     1       6.791   6.222  15.922  0.00  0.00    +0.000 OA
ATOM     23  O   UNL     1       7.850   4.510  17.446  0.00  0.00    +0.000 OA
BRANCH  21  24
ATOM     24  C   UNL     1       6.189   3.687  15.579  0.00  0.00    +0.000 C 
ATOM     25  C   UNL     1       6.008   4.211  14.170  0.00  0.00    +0.000 C 
ENDBRANCH  21  24
ENDBRANCH  17  21
BRANCH  20  26
ATOM     26  O   UNL     1       1.980   5.459  20.238  0.00  0.00    +0.000 OA
ATOM     27  C   UNL     1       1.411   4.247  20.727  0.00  0.00    +0.000 C 
ENDBRANCH  20  26
ENDBRANCH   4  15
TORSDOF 6
ENDMDL
MODEL 3
REMARK VINA RESULT:      -7.6      1.670      2.474
REMARK  Name = 
REMARK  9 active torsions:
REMARK  status: ('A' for Active; 'I' for Inactive)
REMARK    1  A    between atoms: C_1  and  C_2
REMARK    2  A    between atoms: C_2  and  N_3
REMARK    3  A    between atoms: C_8  and  C_9
REMARK    4  A    between atoms: C_12  and  C_13
REMARK    5  A    between atoms: C_15  and  S_16
REMARK    6  A    between atoms: S_16  and  C_19
REMARK    7  A    between atoms: C_19  and  C_20
REMARK    8  A    between atoms: C_23  and  O_24
REMARK    9  A    between atoms: O_24  and  C_25
REMARK                            x       y       z     vdW  Elec       q    Type
REMARK                         _______ _______ _______ _____ _____    ______ ____
ROOT
ATOM      1  C   UNL     1       1.018   9.058  19.111  0.00  0.00    +0.000 A 
ATOM      2  C   UNL     1       1.653   9.416  17.935  0.00  0.00    +0.000 A 
ATOM      3  C   UNL     1       2.609   8.425  17.623  0.00  0.00    +0.000 A 
ATOM      4  C   UNL     1       2.592   7.472  18.623  0.00  0.00    +0.000 A 
ATOM      5  N   UNL     1       1.587   7.859  19.494  0.00  0.00    +0.000 N 
ATOM      6  H   UNL     1       1.329   7.354  20.331  0.00  0.00    +0.000 HD
ENDROOT
BRANCH   1  12
ATOM      7  N   UNL     1       0.377  10.469  21.104  0.00  0.00    +0.000 NA
ATOM      8  C   UNL     1       1.162  11.651  20.745  0.00  0.00    +0.000 C 
ATOM      9  C   UNL     1       0.387  12.598  19.822  0.00  0.00    +0.000 C 
ATOM     10  C   UNL     1      -0.331  11.917  18.662  0.00  0.00    +0.000 C 
ATOM     11  C   UNL     1      -0.998  10.612  19.087  0.00  0.00    +0.000 C 
ATOM     12  C   UNL     1      -0.083   9.706  19.928  0.00  0.00    +0.000 C 
BRANCH   7  14
ATOM     13  C   UNL     1       0.096   9.440  23.361  0.00  0.00    +0.000 C 
ATOM     14  C   UNL     1       0.990   9.626  22.134  0.00  0.00    +0.000 C 
ENDBRANCH   7  14
ENDBRANCH   1  12
BRANCH   4  15
ATOM     15  C   UNL     1       3.435   6.276  18.831  0.00  0.00    +0.000 A 
ATOM     16  C   UNL     1       4.813   6.375  18.564  0.00  0.00    +0.000 A 
ATOM     17  C   UNL     1       5.642   5.255  18.670  0.00  0.00    +0.000 A 
ATOM     18  C   UNL     1       5.127   4.021  19.054  0.00  0.00    +0.000 A 
ATOM     19  C   UNL     1       3.774   3.914  19.361  0.00  0.00    +0.000 A 
ATOM     20  C   UNL     1       2.921   5.026  19.265  0.00  0.00    +0.000 A 
BRANCH  17  21
ATOM     21  S   UNL     1       7.344   5.384  18.179  0.00  0.00    +0.000 S 
ATOM     22  O   UNL     1       8.140   5.423  19.391  0.00  0.00    +0.000 OA
ATOM     23  O   UNL     1       7.571   4.363  17.172  0.00  0.00    +0.000 OA
BRANCH  21  24
ATOM     24  C   UNL     1       7.435   6.981  17.396  0.00  0.00    +0.000 C 
ATOM     25  C   UNL     1       8.210   7.960  18.252  0.00  0.00    +0.000 C 
ENDBRANCH  21  24
ENDBRANCH  17  21
BRANCH  20  26
ATOM     26  O   UNL     1       1.573   4.932  19.518  0.00  0.00    +0.000 OA
ATOM     27  C   UNL     1       1.129   3.781  20.232  0.00  0.00    +0.000 C 
ENDBRANCH  20  26
ENDBRANCH   4  15
TORSDOF 6
ENDMDL
MODEL 4
REMARK VINA RESULT:      -7.5      1.632      2.815
REMARK  Name = 
REMARK  9 active torsions:
REMARK  status: ('A' for Active; 'I' for Inactive)
REMARK    1  A    between atoms: C_1  and  C_2
REMARK    2  A    between atoms: C_2  and  N_3
REMARK    3  A    between atoms: C_8  and  C_9
REMARK    4  A    between atoms: C_12  and  C_13
REMARK    5  A    between atoms: C_15  and  S_16
REMARK    6  A    between atoms: S_16  and  C_19
REMARK    7  A    between atoms: C_19  and  C_20
REMARK    8  A    between atoms: C_23  and  O_24
REMARK    9  A    between atoms: O_24  and  C_25
REMARK                            x       y       z     vdW  Elec       q    Type
REMARK                         _______ _______ _______ _____ _____    ______ ____
ROOT
ATOM      1  C   UNL     1       1.260   9.494  19.121  0.00  0.00    +0.000 A 
ATOM      2  C   UNL     1       1.705   9.702  17.828  0.00  0.00    +0.000 A 
ATOM      3  C   UNL     1       2.526   8.615  17.456  0.00  0.00    +0.000 A 
ATOM      4  C   UNL     1       2.619   7.751  18.530  0.00  0.00    +0.000 A 
ATOM      5  N   UNL     1       1.807   8.288  19.516  0.00  0.00    +0.000 N 
ATOM      6  H   UNL     1       1.663   7.875  20.427  0.00  0.00    +0.000 HD
ENDROOT
BRANCH   1  12
ATOM      7  N   UNL     1       0.498  11.758  19.938  0.00  0.00    +0.000 NA
ATOM      8  C   UNL     1       0.063  12.278  18.641  0.00  0.00    +0.000 C 
ATOM      9  C   UNL     1      -1.389  11.900  18.328  0.00  0.00    +0.000 C 
ATOM     10  C   UNL     1      -1.744  10.441  18.597  0.00  0.00    +0.000 C 
ATOM     11  C   UNL     1      -1.126   9.930  19.894  0.00  0.00    +0.000 C 
ATOM     12  C   UNL     1       0.361  10.293  20.045  0.00  0.00    +0.000 C 
BRANCH   7  14
ATOM     13  C   UNL     1       2.429  13.246  19.400  0.00  0.00    +0.000 C 
ATOM     14  C   UNL     1       1.808  12.248  20.378  0.00  0.00    +0.000 C 
ENDBRANCH   7  14
ENDBRANCH   1  12
BRANCH   4  15
ATOM     15  C   UNL     1       3.403   6.512  18.707  0.00  0.00    +0.000 A 
ATOM     16  C   UNL     1       4.646   6.409  18.053  0.00  0.00    +0.000 A 
ATOM     17  C   UNL     1       5.393   5.230  18.124  0.00  0.00    +0.000 A 
ATOM     18  C   UNL     1       4.933   4.138  18.851  0.00  0.00    +0.000 A 
ATOM     19  C   UNL     1       3.726   4.236  19.537  0.00  0.00    +0.000 A 
ATOM     20  C   UNL     1       2.958   5.411  19.484  0.00  0.00    +0.000 A 
BRANCH  17  21
ATOM     21  S   UNL     1       6.880   5.085  17.163  0.00  0.00    +0.000 S 
ATOM     22  O   UNL     1       7.151   6.389  16.591  0.00  0.00    +0.000 OA
ATOM     23  O   UNL     1       7.861   4.422  18.003  0.00  0.00    +0.000 OA
BRANCH  21  24
ATOM     24  C   UNL     1       6.422   3.977  15.846  0.00  0.00    +0.000 C 
ATOM     25  C   UNL     1       5.413   4.625  14.922  0.00  0.00    +0.000 C 
ENDBRANCH  21  24
ENDBRANCH  17  21
BRANCH  20  26
ATOM     26  O   UNL     1       1.741   5.513  20.115  0.00  0.00    +0.000 OA
ATOM     27  C   UNL     1       1.089   4.294  20.461  0.00  0.00    +0.000 C 
ENDBRANCH  20  26
ENDBRANCH   4  15
TORSDOF 6
ENDMDL
MODEL 5
REMARK VINA RESULT:      -7.5      3.230      7.238
REMARK  Name = 
REMARK  9 active torsions:
REMARK  status: ('A' for Active; 'I' for Inactive)
REMARK    1  A    between atoms: C_1  and  C_2
REMARK    2  A    between atoms: C_2  and  N_3
REMARK    3  A    between atoms: C_8  and  C_9
REMARK    4  A    between atoms: C_12  and  C_13
REMARK    5  A    between atoms: C_15  and  S_16
REMARK    6  A    between atoms: S_16  and  C_19
REMARK    7  A    between atoms: C_19  and  C_20
REMARK    8  A    between atoms: C_23  and  O_24
REMARK    9  A    between atoms: O_24  and  C_25
REMARK                            x       y       z     vdW  Elec       q    Type
REMARK                         _______ _______ _______ _____ _____    ______ ____
ROOT
ATOM      1  C   UNL     1       5.247   4.650  17.327  0.00  0.00    +0.000 A 
ATOM      2  C   UNL     1       4.188   3.808  17.038  0.00  0.00    +0.000 A 
ATOM      3  C   UNL     1       3.015   4.355  17.601  0.00  0.00    +0.000 A 
ATOM      4  C   UNL     1       3.352   5.517  18.269  0.00  0.00    +0.000 A 
ATOM      5  N   UNL     1       4.708   5.695  18.052  0.00  0.00    +0.000 N 
ATOM      6  H   UNL     1       5.249   6.469  18.414  0.00  0.00    +0.000 HD
ENDROOT
BRANCH   1  12
ATOM      7  N   UNL     1       7.197   5.664  16.085  0.00  0.00    +0.000 NA
ATOM      8  C   UNL     1       7.111   7.000  16.678  0.00  0.00    +0.000 C 
ATOM      9  C   UNL     1       7.894   7.097  17.992  0.00  0.00    +0.000 C 
ATOM     10  C   UNL     1       7.669   5.940  18.960  0.00  0.00    +0.000 C 
ATOM     11  C   UNL     1       7.622   4.594  18.242  0.00  0.00    +0.000 C 
ATOM     12  C   UNL     1       6.726   4.601  16.992  0.00  0.00    +0.000 C 
BRANCH   7  14
ATOM     13  C   UNL     1       6.641   4.135  14.192  0.00  0.00    +0.000 C 
ATOM     14  C   UNL     1       6.633   5.564  14.736  0.00  0.00    +0.000 C 
ENDBRANCH   7  14
ENDBRANCH   1  12
BRANCH   4  15
ATOM     15  C   UNL     1       2.531   6.432  19.089  0.00  0.00    +0.000 A 
ATOM     16  C   UNL     1       2.203   7.693  18.557  0.00  0.00    +0.000 A 
ATOM     17  C   UNL     1       1.495   8.626  19.319  0.00  0.00    +0.000 A 
ATOM     18  C   UNL     1       1.086   8.325  20.613  0.00  0.00    +0.000 A 
ATOM     19  C   UNL     1       1.366   7.068  21.141  0.00  0.00    +0.000 A 
ATOM     20  C   UNL     1       2.074   6.112  20.394  0.00  0.00    +0.000 A 
BRANCH  17  21
ATOM     21  S   UNL     1       1.233  10.259  18.670  0.00  0.00    +0.000 S 
ATOM     22  O   UNL     1       1.242  11.175  19.794  0.00  0.00    +0.000 OA
ATOM     23  O   UNL     1       2.160  10.427  17.565  0.00  0.00    +0.000 OA
BRANCH  21  24
ATOM     24  C   UNL     1      -0.422  10.190  18.015  0.00  0.00    +0.000 C 
ATOM     25  C   UNL     1      -1.392  10.918  18.920  0.00  0.00    +0.000 C 
ENDBRANCH  21  24
ENDBRANCH  17  21
BRANCH  20  26
ATOM     26  O   UNL     1       2.401   4.882  20.912  0.00  0.00    +0.000 OA
ATOM     27  C   UNL     1       1.390   3.878  20.879  0.00  0.00    +0.000 C 
ENDBRANCH  20  26
ENDBRANCH   4  15
TORSDOF 6
ENDMDL
MODEL 6
REMARK VINA RESULT:      -7.4      1.308      1.752
REMARK  Name = 
REMARK  9 active torsions:
REMARK  status: ('A' for Active; 'I' for Inactive)
REMARK    1  A    between atoms: C_1  and  C_2
REMARK    2  A    between atoms: C_2  and  N_3
REMARK    3  A    between atoms: C_8  and  C_9
REMARK    4  A    between atoms: C_12  and  C_13
REMARK    5  A    between atoms: C_15  and  S_16
REMARK    6  A    between atoms: S_16  and  C_19
REMARK    7  A    between atoms: C_19  and  C_20
REMARK    8  A    between atoms: C_23  and  O_24
REMARK    9  A    between atoms: O_24  and  C_25
REMARK                            x       y       z     vdW  Elec       q    Type
REMARK                         _______ _______ _______ _____ _____    ______ ____
ROOT
ATOM      1  C   UNL     1       1.201   9.433  19.206  0.00  0.00    +0.000 A 
ATOM      2  C   UNL     1       1.123   8.901  20.480  0.00  0.00    +0.000 A 
ATOM      3  C   UNL     1       1.776   7.649  20.485  0.00  0.00    +0.000 A 
ATOM      4  C   UNL     1       2.227   7.389  19.205  0.00  0.00    +0.000 A 
ATOM      5  N   UNL     1       1.901   8.508  18.456  0.00  0.00    +0.000 N 
ATOM      6  H   UNL     1       2.108   8.619  17.473  0.00  0.00    +0.000 HD
ENDROOT
BRANCH   1  12
ATOM      7  N   UNL     1      -0.709  11.051  18.878  0.00  0.00    +0.000 NA
ATOM      8  C   UNL     1      -0.960  11.320  20.295  0.00  0.00    +0.000 C 
ATOM      9  C   UNL     1      -0.084  12.459  20.828  0.00  0.00    +0.000 C 
ATOM     10  C   UNL     1       1.387  12.376  20.431  0.00  0.00    +0.000 C 
ATOM     11  C   UNL     1       1.565  11.942  18.980  0.00  0.00    +0.000 C 
ATOM     12  C   UNL     1       0.702  10.729  18.595  0.00  0.00    +0.000 C 
BRANCH   7  14
ATOM     13  C   UNL     1      -2.272  10.640  16.975  0.00  0.00    +0.000 C 
ATOM     14  C   UNL     1      -1.650  10.108  18.266  0.00  0.00    +0.000 C 
ENDBRANCH   7  14
ENDBRANCH   1  12
BRANCH   4  15
ATOM     15  C   UNL     1       2.899   6.199  18.642  0.00  0.00    +0.000 A 
ATOM     16  C   UNL     1       4.058   6.391  17.867  0.00  0.00    +0.000 A 
ATOM     17  C   UNL     1       4.689   5.309  17.248  0.00  0.00    +0.000 A 
ATOM     18  C   UNL     1       4.195   4.018  17.394  0.00  0.00    +0.000 A 
ATOM     19  C   UNL     1       3.074   3.804  18.190  0.00  0.00    +0.000 A 
ATOM     20  C   UNL     1       2.423   4.875  18.825  0.00  0.00    +0.000 A 
BRANCH  17  21
ATOM     21  S   UNL     1       6.058   5.609  16.156  0.00  0.00    +0.000 S 
ATOM     22  O   UNL     1       5.611   6.562  15.158  0.00  0.00    +0.000 OA
ATOM     23  O   UNL     1       7.210   5.892  16.993  0.00  0.00    +0.000 OA
BRANCH  21  24
ATOM     24  C   UNL     1       6.311   4.037  15.358  0.00  0.00    +0.000 C 
ATOM     25  C   UNL     1       5.764   4.053  13.947  0.00  0.00    +0.000 C 
ENDBRANCH  21  24
ENDBRANCH  17  21
BRANCH  20  26
ATOM     26  O   UNL     1       1.287   4.692  19.577  0.00  0.00    +0.000 OA
ATOM     27  C   UNL     1       1.051   3.381  20.081  0.00  0.00    +0.000 C 
ENDBRANCH  20  26
ENDBRANCH   4  15
TORSDOF 6
ENDMDL
MODEL 7
REMARK VINA RESULT:      -7.4      2.061      3.821
REMARK  Name = 
REMARK  9 active torsions:
REMARK  status: ('A' for Active; 'I' for Inactive)
REMARK    1  A    between atoms: C_1  and  C_2
REMARK    2  A    between atoms: C_2  and  N_3
REMARK    3  A    between atoms: C_8  and  C_9
REMARK    4  A    between atoms: C_12  and  C_13
REMARK    5  A    between atoms: C_15  and  S_16
REMARK    6  A    between atoms: S_16  and  C_19
REMARK    7  A    between atoms: C_19  and  C_20
REMARK    8  A    between atoms: C_23  and  O_24
REMARK    9  A    between atoms: O_24  and  C_25
REMARK                            x       y       z     vdW  Elec       q    Type
REMARK                         _______ _______ _______ _____ _____    ______ ____
ROOT
ATOM      1  C   UNL     1       1.250   9.593  19.123  0.00  0.00    +0.000 A 
ATOM      2  C   UNL     1       1.229   9.126  20.424  0.00  0.00    +0.000 A 
ATOM      3  C   UNL     1       1.759   7.817  20.439  0.00  0.00    +0.000 A 
ATOM      4  C   UNL     1       2.074   7.460  19.142  0.00  0.00    +0.000 A 
ATOM      5  N   UNL     1       1.793   8.573  18.367  0.00  0.00    +0.000 N 
ATOM      6  H   UNL     1       1.926   8.622  17.366  0.00  0.00    +0.000 HD
ENDROOT
BRANCH   1  12
ATOM      7  N   UNL     1      -0.632  11.110  18.392  0.00  0.00    +0.000 NA
ATOM      8  C   UNL     1      -1.280  11.233  19.699  0.00  0.00    +0.000 C 
ATOM      9  C   UNL     1      -0.682  12.372  20.532  0.00  0.00    +0.000 C 
ATOM     10  C   UNL     1       0.842  12.419  20.555  0.00  0.00    +0.000 C 
ATOM     11  C   UNL     1       1.445  12.131  19.183  0.00  0.00    +0.000 C 
ATOM     12  C   UNL     1       0.826  10.905  18.490  0.00  0.00    +0.000 C 
BRANCH   7  14
ATOM     13  C   UNL     1      -2.768   9.963  17.797  0.00  0.00    +0.000 C 
ATOM     14  C   UNL     1      -1.286  10.169  17.479  0.00  0.00    +0.000 C 
ENDBRANCH   7  14
ENDBRANCH   1  12
BRANCH   4  15
ATOM     15  C   UNL     1       2.581   6.188  18.588  0.00  0.00    +0.000 A 
ATOM     16  C   UNL     1       1.912   4.997  18.928  0.00  0.00    +0.000 A 
ATOM     17  C   UNL     1       2.394   3.759  18.494  0.00  0.00    +0.000 A 
ATOM     18  C   UNL     1       3.537   3.677  17.706  0.00  0.00    +0.000 A 
ATOM     19  C   UNL     1       4.188   4.847  17.325  0.00  0.00    +0.000 A 
ATOM     20  C   UNL     1       3.721   6.103  17.746  0.00  0.00    +0.000 A 
BRANCH  17  21
ATOM     21  S   UNL     1       1.612   2.272  19.069  0.00  0.00    +0.000 S 
ATOM     22  O   UNL     1       0.335   2.167  18.390  0.00  0.00    +0.000 OA
ATOM     23  O   UNL     1       2.599   1.211  18.969  0.00  0.00    +0.000 OA
BRANCH  21  24
ATOM     24  C   UNL     1       1.307   2.599  20.793  0.00  0.00    +0.000 C 
ATOM     25  C   UNL     1       2.605   2.685  21.566  0.00  0.00    +0.000 C 
ENDBRANCH  21  24
ENDBRANCH  17  21
BRANCH  20  26
ATOM     26  O   UNL     1       4.375   7.268  17.421  0.00  0.00    +0.000 OA
ATOM     27  C   UNL     1       5.742   7.154  17.036  0.00  0.00    +0.000 C 
ENDBRANCH  20  26
ENDBRANCH   4  15
TORSDOF 6
ENDMDL
MODEL 8
REMARK VINA RESULT:      -7.2      1.516      2.538
REMARK  Name = 
REMARK  9 active torsions:
REMARK  status: ('A' for Active; 'I' for Inactive)
REMARK    1  A    between atoms: C_1  and  C_2
REMARK    2  A    between atoms: C_2  and  N_3
REMARK    3  A    between atoms: C_8  and  C_9
REMARK    4  A    between atoms: C_12  and  C_13
REMARK    5  A    between atoms: C_15  and  S_16
REMARK    6  A    between atoms: S_16  and  C_19
REMARK    7  A    between atoms: C_19  and  C_20
REMARK    8  A    between atoms: C_23  and  O_24
REMARK    9  A    between atoms: O_24  and  C_25
REMARK                            x       y       z     vdW  Elec       q    Type
REMARK                         _______ _______ _______ _____ _____    ______ ____
ROOT
ATOM      1  C   UNL     1       1.207   9.346  19.159  0.00  0.00    +0.000 A 
ATOM      2  C   UNL     1       1.628   9.486  17.850  0.00  0.00    +0.000 A 
ATOM      3  C   UNL     1       2.454   8.389  17.524  0.00  0.00    +0.000 A 
ATOM      4  C   UNL     1       2.575   7.587  18.643  0.00  0.00    +0.000 A 
ATOM      5  N   UNL     1       1.773   8.170  19.611  0.00  0.00    +0.000 N 
ATOM      6  H   UNL     1       1.649   7.807  20.547  0.00  0.00    +0.000 HD
ENDROOT
BRANCH   1  12
ATOM      7  N   UNL     1       0.528  11.643  19.958  0.00  0.00    +0.000 NA
ATOM      8  C   UNL     1       0.170  12.188  18.648  0.00  0.00    +0.000 C 
ATOM      9  C   UNL     1      -1.287  11.884  18.278  0.00  0.00    +0.000 C 
ATOM     10  C   UNL     1      -1.724  10.444  18.526  0.00  0.00    +0.000 C 
ATOM     11  C   UNL     1      -1.182   9.899  19.844  0.00  0.00    +0.000 C 
ATOM     12  C   UNL     1       0.314  10.187  20.053  0.00  0.00    +0.000 C 
BRANCH   7  14
ATOM     13  C   UNL     1       2.357  13.331  19.763  0.00  0.00    +0.000 C 
ATOM     14  C   UNL     1       1.843  12.065  20.450  0.00  0.00    +0.000 C 
ENDBRANCH   7  14
ENDBRANCH   1  12
BRANCH   4  15
ATOM     15  C   UNL     1       3.376   6.367  18.875  0.00  0.00    +0.000 A 
ATOM     16  C   UNL     1       4.734   6.380  18.507  0.00  0.00    +0.000 A 
ATOM     17  C   UNL     1       5.518   5.230  18.633  0.00  0.00    +0.000 A 
ATOM     18  C   UNL     1       4.978   4.052  19.137  0.00  0.00    +0.000 A 
ATOM     19  C   UNL     1       3.648   4.032  19.545  0.00  0.00    +0.000 A 
ATOM     20  C   UNL     1       2.840   5.176  19.431  0.00  0.00    +0.000 A 
BRANCH  17  21
ATOM     21  S   UNL     1       7.184   5.242  18.017  0.00  0.00    +0.000 S 
ATOM     22  O   UNL     1       8.068   5.162  19.164  0.00  0.00    +0.000 OA
ATOM     23  O   UNL     1       7.248   4.252  16.957  0.00  0.00    +0.000 OA
BRANCH  21  24
ATOM     24  C   UNL     1       7.351   6.860  17.291  0.00  0.00    +0.000 C 
ATOM     25  C   UNL     1       8.141   7.780  18.197  0.00  0.00    +0.000 C 
ENDBRANCH  21  24
ENDBRANCH  17  21
BRANCH  20  26
ATOM     26  O   UNL     1       1.511   5.166  19.783  0.00  0.00    +0.000 OA
ATOM     27  C   UNL     1       1.042   4.025  20.496  0.00  0.00    +0.000 C 
ENDBRANCH  20  26
ENDBRANCH   4  15
TORSDOF 6
ENDMDL
MODEL 9
REMARK VINA RESULT:      -7.2      3.973      8.024
REMARK  Name = 
REMARK  9 active torsions:
REMARK  status: ('A' for Active; 'I' for Inactive)
REMARK    1  A    between atoms: C_1  and  C_2
REMARK    2  A    between atoms: C_2  and  N_3
REMARK    3  A    between atoms: C_8  and  C_9
REMARK    4  A    between atoms: C_12  and  C_13
REMARK    5  A    between atoms: C_15  and  S_16
REMARK    6  A    between atoms: S_16  and  C_19
REMARK    7  A    between atoms: C_19  and  C_20
REMARK    8  A    between atoms: C_23  and  O_24
REMARK    9  A    between atoms: O_24  and  C_25
REMARK                            x       y       z     vdW  Elec       q    Type
REMARK                         _______ _______ _______ _____ _____    ______ ____
ROOT
ATOM      1  C   UNL     1       3.017   6.381  19.189  0.00  0.00    +0.000 A 
ATOM      2  C   UNL     1       3.174   7.070  18.001  0.00  0.00    +0.000 A 
ATOM      3  C   UNL     1       2.435   8.271  18.078  0.00  0.00    +0.000 A 
ATOM      4  C   UNL     1       1.792   8.309  19.301  0.00  0.00    +0.000 A 
ATOM      5  N   UNL     1       2.196   7.167  19.974  0.00  0.00    +0.000 N 
ATOM      6  H   UNL     1       1.895   6.915  20.905  0.00  0.00    +0.000 HD
ENDROOT
BRANCH   1  12
ATOM      7  N   UNL     1       2.720   3.883  19.401  0.00  0.00    +0.000 NA
ATOM      8  C   UNL     1       2.626   3.593  17.969  0.00  0.00    +0.000 C 
ATOM      9  C   UNL     1       4.004   3.377  17.334  0.00  0.00    +0.000 C 
ATOM     10  C   UNL     1       5.057   4.411  17.721  0.00  0.00    +0.000 C 
ATOM     11  C   UNL     1       4.990   4.771  19.202  0.00  0.00    +0.000 C 
ATOM     12  C   UNL     1       3.561   5.058  19.695  0.00  0.00    +0.000 C 
BRANCH   7  14
ATOM     13  C   UNL     1       1.376   2.936  21.280  0.00  0.00    +0.000 C 
ATOM     14  C   UNL     1       1.432   3.907  20.099  0.00  0.00    +0.000 C 
ENDBRANCH   7  14
ENDBRANCH   1  12
BRANCH   4  15
ATOM     15  C   UNL     1       0.840   9.291  19.861  0.00  0.00    +0.000 A 
ATOM     16  C   UNL     1      -0.018   9.969  18.975  0.00  0.00    +0.000 A 
ATOM     17  C   UNL     1      -0.884  10.962  19.441  0.00  0.00    +0.000 A 
ATOM     18  C   UNL     1      -0.926  11.293  20.791  0.00  0.00    +0.000 A 
ATOM     19  C   UNL     1      -0.115  10.604  21.687  0.00  0.00    +0.000 A 
ATOM     20  C   UNL     1       0.762   9.600  21.244  0.00  0.00    +0.000 A 
BRANCH  17  21
ATOM     21  S   UNL     1      -1.840  11.900  18.274  0.00  0.00    +0.000 S 
ATOM     22  O   UNL     1      -3.102  12.221  18.912  0.00  0.00    +0.000 OA
ATOM     23  O   UNL     1      -0.973  12.949  17.767  0.00  0.00    +0.000 OA
BRANCH  21  24
ATOM     24  C   UNL     1      -2.153  10.740  16.960  0.00  0.00    +0.000 C 
ATOM     25  C   UNL     1      -3.254   9.774  17.342  0.00  0.00    +0.000 C 
ENDBRANCH  21  24
ENDBRANCH  17  21
BRANCH  20  26
ATOM     26  O   UNL     1       1.606   8.939  22.104  0.00  0.00    +0.000 OA
ATOM     27  C   UNL     1       1.422   9.177  23.497  0.00  0.00    +0.000 C 
ENDBRANCH  20  26
ENDBRANCH   4  15
TORSDOF 6
ENDMDL
