MODEL 1
REMARK VINA RESULT:      -8.5      0.000      0.000
REMARK  Name = 
REMARK  6 active torsions:
REMARK  status: ('A' for Active; 'I' for Inactive)
REMARK    1  A    between atoms: C_1  and  C_2
REMARK    2  A    between atoms: C_13  and  C_14
REMARK    3  A    between atoms: C_14  and  C_15
REMARK    4  A    between atoms: N_17  and  C_18
REMARK    5  A    between atoms: C_18  and  C_19
REMARK    6  A    between atoms: C_22  and  C_23
REMARK                            x       y       z     vdW  Elec       q    Type
REMARK                         _______ _______ _______ _____ _____    ______ ____
ROOT
ATOM      1  C   UNL     1       1.548   8.997  18.844  0.00  0.00    +0.000 C 
ATOM      2  C   UNL     1       2.581   7.964  18.454  0.00  0.00    +0.000 C 
ATOM      3  O   UNL     1       3.422   8.220  17.593  0.00  0.00    +0.000 OA
ATOM      4  N   UNL     1       2.512   6.733  19.099  0.00  0.00    +0.000 N 
ATOM      5  C   UNL     1       1.507   6.446  20.133  0.00  0.00    +0.000 C 
ATOM      6  C   UNL     1       1.664   5.098  20.835  0.00  0.00    +0.000 C 
ATOM      7  C   UNL     1       1.824   4.021  19.801  0.00  0.00    +0.000 A 
ATOM      8  C   UNL     1       1.190   2.784  19.920  0.00  0.00    +0.000 A 
ATOM      9  C   UNL     1       1.324   1.834  18.908  0.00  0.00    +0.000 A 
ATOM     10  C   UNL     1       2.098   2.113  17.783  0.00  0.00    +0.000 A 
ATOM     11  C   UNL     1       2.755   3.338  17.670  0.00  0.00    +0.000 A 
ATOM     12  C   UNL     1       2.632   4.298  18.683  0.00  0.00    +0.000 A 
ATOM     13  C   UNL     1       3.373   5.627  18.603  0.00  0.00    +0.000 C 
ENDROOT
BRANCH  13  14
ATOM     14  C   UNL     1       4.700   5.580  19.381  0.00  0.00    +0.000 C 
BRANCH  14  15
ATOM     15  C   UNL     1       5.894   5.653  18.453  0.00  0.00    +0.000 C 
ATOM     16  O   UNL     1       6.247   6.698  17.913  0.00  0.00    +0.000 OA
ATOM     17  N   UNL     1       6.565   4.469  18.267  0.00  0.00    +0.000 N 
ATOM     18  H   UNL     1       6.157   3.594  18.576  0.00  0.00    +0.000 HD
BRANCH  17  19
ATOM     19  C   UNL     1       7.696   4.406  17.359  0.00  0.00    +0.000 C 
BRANCH  19  20
ATOM     20  C   UNL     1       7.275   4.633  15.954  0.00  0.00    +0.000 A 
ATOM     21  N   UNL     1       7.643   5.561  15.093  0.00  0.00    +0.000 NA
ATOM     22  N   UNL     1       6.956   5.302  13.922  0.00  0.00    +0.000 NA
ATOM     23  C   UNL     1       6.221   4.234  14.151  0.00  0.00    +0.000 A 
ATOM     24  C   UNL     1       5.298   3.512  13.258  0.00  0.00    +0.000 C 
ATOM     25  O   UNL     1       6.369   3.749  15.423  0.00  0.00    +0.000 OA
ENDBRANCH  19  20
ENDBRANCH  17  19
ENDBRANCH  14  15
ENDBRANCH  13  14
TORSDOF 4
ENDMDL
MODEL 2
REMARK VINA RESULT:      -8.4      1.237      1.284
REMARK  Name = 
REMARK  6 active torsions:
REMARK  status: ('A' for Active; 'I' for Inactive)
REMARK    1  A    between atoms: C_1  and  C_2
REMARK    2  A    between atoms: C_13  and  C_14
REMARK    3  A    between atoms: C_14  and  C_15
REMARK    4  A    between atoms: N_17  and  C_18
REMARK    5  A    between atoms: C_18  and  C_19
REMARK    6  A    between atoms: C_22  and  C_23
REMARK                            x       y       z     vdW  Elec       q    Type
REMARK                         _______ _______ _______ _____ _____    ______ ____
ROOT
ATOM      1  C   UNL     1       1.046   9.602  19.058  0.00  0.00    +0.000 C 
ATOM      2  C   UNL     1       1.979   8.561  18.481  0.00  0.00    +0.000 C 
ATOM      3  O   UNL     1       2.568   8.774  17.422  0.00  0.00    +0.000 OA
ATOM      4  N   UNL     1       2.112   7.374  19.194  0.00  0.00    +0.000 N 
ATOM      5  C   UNL     1       1.408   7.140  20.463  0.00  0.00    +0.000 C 
ATOM      6  C   UNL     1       1.778   5.843  21.181  0.00  0.00    +0.000 C 
ATOM      7  C   UNL     1       1.705   4.703  20.205  0.00  0.00    +0.000 A 
ATOM      8  C   UNL     1       1.159   3.467  20.554  0.00  0.00    +0.000 A 
ATOM      9  C   UNL     1       1.064   2.456  19.599  0.00  0.00    +0.000 A 
ATOM     10  C   UNL     1       1.521   2.673  18.300  0.00  0.00    +0.000 A 
ATOM     11  C   UNL     1       2.091   3.897  17.953  0.00  0.00    +0.000 A 
ATOM     12  C   UNL     1       2.197   4.919  18.905  0.00  0.00    +0.000 A 
ATOM     13  C   UNL     1       2.853   6.251  18.562  0.00  0.00    +0.000 C 
ENDROOT
BRANCH  13  14
ATOM     14  C   UNL     1       4.334   6.273  18.980  0.00  0.00    +0.000 C 
BRANCH  14  15
ATOM     15  C   UNL     1       5.089   5.084  18.426  0.00  0.00    +0.000 C 
ATOM     16  O   UNL     1       5.615   4.241  19.147  0.00  0.00    +0.000 OA
ATOM     17  N   UNL     1       5.133   5.006  17.054  0.00  0.00    +0.000 N 
ATOM     18  H   UNL     1       4.850   5.796  16.486  0.00  0.00    +0.000 HD
BRANCH  17  19
ATOM     19  C   UNL     1       5.872   3.937  16.408  0.00  0.00    +0.000 C 
BRANCH  19  20
ATOM     20  C   UNL     1       6.602   4.428  15.213  0.00  0.00    +0.000 A 
ATOM     21  N   UNL     1       7.539   5.349  15.105  0.00  0.00    +0.000 NA
ATOM     22  N   UNL     1       7.882   5.401  13.767  0.00  0.00    +0.000 NA
ATOM     23  C   UNL     1       7.133   4.508  13.156  0.00  0.00    +0.000 A 
ATOM     24  C   UNL     1       7.081   4.132  11.732  0.00  0.00    +0.000 C 
ATOM     25  O   UNL     1       6.291   3.846  14.009  0.00  0.00    +0.000 OA
ENDBRANCH  19  20
ENDBRANCH  17  19
ENDBRANCH  14  15
ENDBRANCH  13  14
TORSDOF 4
ENDMDL
MODEL 3
REMARK VINA RESULT:      -8.3      1.204      1.263
REMARK  Name = 
REMARK  6 active torsions:
REMARK  status: ('A' for Active; 'I' for Inactive)
REMARK    1  A    between atoms: C_1  and  C_2
REMARK    2  A    between atoms: C_13  and  C_14
REMARK    3  A    between atoms: C_14  and  C_15
REMARK    4  A    between atoms: N_17  and  C_18
REMARK    5  A    between atoms: C_18  and  C_19
REMARK    6  A    between atoms: C_22  and  C_23
REMARK                            x       y       z     vdW  Elec       q    Type
REMARK                         _______ _______ _______ _____ _____    ______ ____
ROOT
ATOM      1  C   UNL     1       1.635   9.058  18.703  0.00  0.00    +0.000 C 
ATOM      2  C   UNL     1       2.613   7.953  18.376  0.00  0.00    +0.000 C 
ATOM      3  O   UNL     1       3.450   8.107  17.488  0.00  0.00    +0.000 OA
ATOM      4  N   UNL     1       2.498   6.775  19.109  0.00  0.00    +0.000 N 
ATOM      5  C   UNL     1       1.498   6.611  20.173  0.00  0.00    +0.000 C 
ATOM      6  C   UNL     1       1.605   5.311  20.969  0.00  0.00    +0.000 C 
ATOM      7  C   UNL     1       1.698   4.156  20.013  0.00  0.00    +0.000 A 
ATOM      8  C   UNL     1       1.010   2.962  20.230  0.00  0.00    +0.000 A 
ATOM      9  C   UNL     1       1.084   1.936  19.288  0.00  0.00    +0.000 A 
ATOM     10  C   UNL     1       1.852   2.098  18.135  0.00  0.00    +0.000 A 
ATOM     11  C   UNL     1       2.563   3.279  17.926  0.00  0.00    +0.000 A 
ATOM     12  C   UNL     1       2.499   4.314  18.868  0.00  0.00    +0.000 A 
ATOM     13  C   UNL     1       3.299   5.598  18.683  0.00  0.00    +0.000 C 
ENDROOT
BRANCH  13  14
ATOM     14  C   UNL     1       4.635   5.545  19.445  0.00  0.00    +0.000 C 
BRANCH  14  15
ATOM     15  C   UNL     1       5.803   5.311  18.509  0.00  0.00    +0.000 C 
ATOM     16  O   UNL     1       6.697   4.508  18.758  0.00  0.00    +0.000 OA
ATOM     17  N   UNL     1       5.784   6.053  17.353  0.00  0.00    +0.000 N 
ATOM     18  H   UNL     1       5.140   6.829  17.251  0.00  0.00    +0.000 HD
BRANCH  17  19
ATOM     19  C   UNL     1       6.877   5.951  16.403  0.00  0.00    +0.000 C 
BRANCH  19  20
ATOM     20  C   UNL     1       6.505   5.111  15.237  0.00  0.00    +0.000 A 
ATOM     21  N   UNL     1       5.504   4.269  15.077  0.00  0.00    +0.000 NA
ATOM     22  N   UNL     1       5.617   3.766  13.795  0.00  0.00    +0.000 NA
ATOM     23  C   UNL     1       6.677   4.338  13.264  0.00  0.00    +0.000 A 
ATOM     24  C   UNL     1       7.264   4.181  11.922  0.00  0.00    +0.000 C 
ATOM     25  O   UNL     1       7.297   5.209  14.120  0.00  0.00    +0.000 OA
ENDBRANCH  19  20
ENDBRANCH  17  19
ENDBRANCH  14  15
ENDBRANCH  13  14
TORSDOF 4
ENDMDL
MODEL 4
REMARK VINA RESULT:      -8.0      2.582      6.411
REMARK  Name = 
REMARK  6 active torsions:
REMARK  status: ('A' for Active; 'I' for Inactive)
REMARK    1  A    between atoms: C_1  and  C_2
REMARK    2  A    between atoms: C_13  and  C_14
REMARK    3  A    between atoms: C_14  and  C_15
REMARK    4  A    between atoms: N_17  and  C_18
REMARK    5  A    between atoms: C_18  and  C_19
REMARK    6  A    between atoms: C_22  and  C_23
REMARK                            x       y       z     vdW  Elec       q    Type
REMARK                         _______ _______ _______ _____ _____    ______ ____
ROOT
ATOM      1  C   UNL     1       6.305   4.698  16.160  0.00  0.00    +0.000 C 
ATOM      2  C   UNL     1       5.370   5.471  17.062  0.00  0.00    +0.000 C 
ATOM      3  O   UNL     1       5.672   6.600  17.448  0.00  0.00    +0.000 OA
ATOM      4  N   UNL     1       4.188   4.837  17.432  0.00  0.00    +0.000 N 
ATOM      5  C   UNL     1       3.839   3.492  16.953  0.00  0.00    +0.000 C 
ATOM      6  C   UNL     1       2.443   3.007  17.342  0.00  0.00    +0.000 C 
ATOM      7  C   UNL     1       2.242   3.220  18.815  0.00  0.00    +0.000 A 
ATOM      8  C   UNL     1       1.613   2.268  19.619  0.00  0.00    +0.000 A 
ATOM      9  C   UNL     1       1.496   2.486  20.991  0.00  0.00    +0.000 A 
ATOM     10  C   UNL     1       1.998   3.656  21.561  0.00  0.00    +0.000 A 
ATOM     11  C   UNL     1       2.603   4.622  20.758  0.00  0.00    +0.000 A 
ATOM     12  C   UNL     1       2.721   4.416  19.378  0.00  0.00    +0.000 A 
ATOM     13  C   UNL     1       3.342   5.475  18.474  0.00  0.00    +0.000 C 
ENDROOT
BRANCH  13  14
ATOM     14  C   UNL     1       2.266   6.368  17.831  0.00  0.00    +0.000 C 
BRANCH  14  15
ATOM     15  C   UNL     1       2.154   7.704  18.534  0.00  0.00    +0.000 C 
ATOM     16  O   UNL     1       2.284   7.822  19.749  0.00  0.00    +0.000 OA
ATOM     17  N   UNL     1       1.911   8.779  17.714  0.00  0.00    +0.000 N 
ATOM     18  H   UNL     1       1.633   8.636  16.750  0.00  0.00    +0.000 HD
BRANCH  17  19
ATOM     19  C   UNL     1       1.734  10.103  18.281  0.00  0.00    +0.000 C 
BRANCH  19  20
ATOM     20  C   UNL     1       0.299  10.404  18.516  0.00  0.00    +0.000 A 
ATOM     21  N   UNL     1      -0.272  11.193  19.404  0.00  0.00    +0.000 NA
ATOM     22  N   UNL     1      -1.633  11.118  19.174  0.00  0.00    +0.000 NA
ATOM     23  C   UNL     1      -1.794  10.292  18.162  0.00  0.00    +0.000 A 
ATOM     24  C   UNL     1      -3.028   9.848  17.490  0.00  0.00    +0.000 C 
ATOM     25  O   UNL     1      -0.609   9.796  17.686  0.00  0.00    +0.000 OA
ENDBRANCH  19  20
ENDBRANCH  17  19
ENDBRANCH  14  15
ENDBRANCH  13  14
TORSDOF 4
ENDMDL
MODEL 5
REMARK VINA RESULT:      -7.6      2.588      6.878
REMARK  Name = 
REMARK  6 active torsions:
REMARK  status: ('A' for Active; 'I' for Inactive)
REMARK    1  A    between atoms: C_1  and  C_2
REMARK    2  A    between atoms: C_13  and  C_14
REMARK    3  A    between atoms: C_14  and  C_15
REMARK    4  A    between atoms: N_17  and  C_18
REMARK    5  A    between atoms: C_18  and  C_19
REMARK    6  A    between atoms: C_22  and  C_23
REMARK                            x       y       z     vdW  Elec       q    Type
REMARK                         _______ _______ _______ _____ _____    ______ ____
ROOT
ATOM      1  C   UNL     1       6.402   4.939  16.294  0.00  0.00    +0.000 C 
ATOM      2  C   UNL     1       5.370   5.673  17.120  0.00  0.00    +0.000 C 
ATOM      3  O   UNL     1       5.570   6.835  17.473  0.00  0.00    +0.000 OA
ATOM      4  N   UNL     1       4.222   4.967  17.464  0.00  0.00    +0.000 N 
ATOM      5  C   UNL     1       3.995   3.582  17.026  0.00  0.00    +0.000 C 
ATOM      6  C   UNL     1       2.622   3.008  17.373  0.00  0.00    +0.000 C 
ATOM      7  C   UNL     1       2.337   3.261  18.826  0.00  0.00    +0.000 A 
ATOM      8  C   UNL     1       1.742   2.296  19.639  0.00  0.00    +0.000 A 
ATOM      9  C   UNL     1       1.545   2.556  20.995  0.00  0.00    +0.000 A 
ATOM     10  C   UNL     1       1.932   3.781  21.537  0.00  0.00    +0.000 A 
ATOM     11  C   UNL     1       2.502   4.759  20.723  0.00  0.00    +0.000 A 
ATOM     12  C   UNL     1       2.700   4.511  19.359  0.00  0.00    +0.000 A 
ATOM     13  C   UNL     1       3.283   5.578  18.440  0.00  0.00    +0.000 C 
ENDROOT
BRANCH  13  14
ATOM     14  C   UNL     1       2.176   6.362  17.714  0.00  0.00    +0.000 C 
BRANCH  14  15
ATOM     15  C   UNL     1       2.188   7.828  18.094  0.00  0.00    +0.000 C 
ATOM     16  O   UNL     1       2.680   8.692  17.375  0.00  0.00    +0.000 OA
ATOM     17  N   UNL     1       1.594   8.125  19.297  0.00  0.00    +0.000 N 
ATOM     18  H   UNL     1       1.356   7.386  19.949  0.00  0.00    +0.000 HD
BRANCH  17  19
ATOM     19  C   UNL     1       1.590   9.490  19.790  0.00  0.00    +0.000 C 
BRANCH  19  20
ATOM     20  C   UNL     1       0.832   9.605  21.061  0.00  0.00    +0.000 A 
ATOM     21  N   UNL     1       0.774   8.790  22.095  0.00  0.00    +0.000 NA
ATOM     22  N   UNL     1      -0.069   9.385  23.014  0.00  0.00    +0.000 NA
ATOM     23  C   UNL     1      -0.463  10.520  22.477  0.00  0.00    +0.000 A 
ATOM     24  C   UNL     1      -1.359  11.559  23.012  0.00  0.00    +0.000 C 
ATOM     25  O   UNL     1       0.069  10.733  21.233  0.00  0.00    +0.000 OA
ENDBRANCH  19  20
ENDBRANCH  17  19
ENDBRANCH  14  15
ENDBRANCH  13  14
TORSDOF 4
ENDMDL
MODEL 6
REMARK VINA RESULT:      -7.6      2.464      6.541
REMARK  Name = 
REMARK  6 active torsions:
REMARK  status: ('A' for Active; 'I' for Inactive)
REMARK    1  A    between atoms: C_1  and  C_2
REMARK    2  A    between atoms: C_13  and  C_14
REMARK    3  A    between atoms: C_14  and  C_15
REMARK    4  A    between atoms: N_17  and  C_18
REMARK    5  A    between atoms: C_18  and  C_19
REMARK    6  A    between atoms: C_22  and  C_23
REMARK                            x       y       z     vdW  Elec       q    Type
REMARK                         _______ _______ _______ _____ _____    ______ ____
ROOT
ATOM      1  C   UNL     1       6.451   4.848  16.353  0.00  0.00    +0.000 C 
ATOM      2  C   UNL     1       5.458   5.569  17.236  0.00  0.00    +0.000 C 
ATOM      3  O   UNL     1       5.713   6.693  17.667  0.00  0.00    +0.000 OA
ATOM      4  N   UNL     1       4.279   4.894  17.537  0.00  0.00    +0.000 N 
ATOM      5  C   UNL     1       3.987   3.555  17.005  0.00  0.00    +0.000 C 
ATOM      6  C   UNL     1       2.590   3.023  17.321  0.00  0.00    +0.000 C 
ATOM      7  C   UNL     1       2.322   3.186  18.790  0.00  0.00    +0.000 A 
ATOM      8  C   UNL     1       1.687   2.194  19.539  0.00  0.00    +0.000 A 
ATOM      9  C   UNL     1       1.507   2.367  20.911  0.00  0.00    +0.000 A 
ATOM     10  C   UNL     1       1.952   3.533  21.534  0.00  0.00    +0.000 A 
ATOM     11  C   UNL     1       2.564   4.538  20.786  0.00  0.00    +0.000 A 
ATOM     12  C   UNL     1       2.745   4.377  19.407  0.00  0.00    +0.000 A 
ATOM     13  C   UNL     1       3.374   5.478  18.561  0.00  0.00    +0.000 C 
ENDROOT
BRANCH  13  14
ATOM     14  C   UNL     1       2.301   6.361  17.898  0.00  0.00    +0.000 C 
BRANCH  14  15
ATOM     15  C   UNL     1       2.253   7.741  18.519  0.00  0.00    +0.000 C 
ATOM     16  O   UNL     1       2.370   7.926  19.727  0.00  0.00    +0.000 OA
ATOM     17  N   UNL     1       2.081   8.777  17.632  0.00  0.00    +0.000 N 
ATOM     18  H   UNL     1       1.811   8.591  16.673  0.00  0.00    +0.000 HD
BRANCH  17  19
ATOM     19  C   UNL     1       1.968  10.140  18.116  0.00  0.00    +0.000 C 
BRANCH  19  20
ATOM     20  C   UNL     1       0.617  10.409  18.668  0.00  0.00    +0.000 A 
ATOM     21  N   UNL     1      -0.571  10.284  18.112  0.00  0.00    +0.000 NA
ATOM     22  N   UNL     1      -1.493  10.654  19.074  0.00  0.00    +0.000 NA
ATOM     23  C   UNL     1      -0.802  10.975  20.147  0.00  0.00    +0.000 A 
ATOM     24  C   UNL     1      -1.266  11.433  21.468  0.00  0.00    +0.000 C 
ATOM     25  O   UNL     1       0.550  10.844  19.968  0.00  0.00    +0.000 OA
ENDBRANCH  19  20
ENDBRANCH  17  19
ENDBRANCH  14  15
ENDBRANCH  13  14
TORSDOF 4
ENDMDL
MODEL 7
REMARK VINA RESULT:      -7.5      3.018      6.990
REMARK  Name = 
REMARK  6 active torsions:
REMARK  status: ('A' for Active; 'I' for Inactive)
REMARK    1  A    between atoms: C_1  and  C_2
REMARK    2  A    between atoms: C_13  and  C_14
REMARK    3  A    between atoms: C_14  and  C_15
REMARK    4  A    between atoms: N_17  and  C_18
REMARK    5  A    between atoms: C_18  and  C_19
REMARK    6  A    between atoms: C_22  and  C_23
REMARK                            x       y       z     vdW  Elec       q    Type
REMARK                         _______ _______ _______ _____ _____    ______ ____
ROOT
ATOM      1  C   UNL     1       1.552   2.337  18.213  0.00  0.00    +0.000 C 
ATOM      2  C   UNL     1       1.750   3.812  17.942  0.00  0.00    +0.000 C 
ATOM      3  O   UNL     1       0.950   4.426  17.238  0.00  0.00    +0.000 OA
ATOM      4  N   UNL     1       2.872   4.409  18.508  0.00  0.00    +0.000 N 
ATOM      5  C   UNL     1       3.813   3.661  19.355  0.00  0.00    +0.000 C 
ATOM      6  C   UNL     1       4.908   4.503  20.008  0.00  0.00    +0.000 C 
ATOM      7  C   UNL     1       5.556   5.364  18.961  0.00  0.00    +0.000 A 
ATOM      8  C   UNL     1       6.937   5.562  18.920  0.00  0.00    +0.000 A 
ATOM      9  C   UNL     1       7.498   6.326  17.898  0.00  0.00    +0.000 A 
ATOM     10  C   UNL     1       6.683   6.901  16.923  0.00  0.00    +0.000 A 
ATOM     11  C   UNL     1       5.300   6.728  16.975  0.00  0.00    +0.000 A 
ATOM     12  C   UNL     1       4.725   5.966  18.000  0.00  0.00    +0.000 A 
ATOM     13  C   UNL     1       3.214   5.797  18.102  0.00  0.00    +0.000 C 
ENDROOT
BRANCH  13  14
ATOM     14  C   UNL     1       2.597   6.816  19.076  0.00  0.00    +0.000 C 
BRANCH  14  15
ATOM     15  C   UNL     1       2.246   8.114  18.379  0.00  0.00    +0.000 C 
ATOM     16  O   UNL     1       2.478   8.307  17.189  0.00  0.00    +0.000 OA
ATOM     17  N   UNL     1       1.634   9.057  19.169  0.00  0.00    +0.000 N 
ATOM     18  H   UNL     1       1.614   8.946  20.177  0.00  0.00    +0.000 HD
BRANCH  17  19
ATOM     19  C   UNL     1       1.297  10.359  18.623  0.00  0.00    +0.000 C 
BRANCH  19  20
ATOM     20  C   UNL     1      -0.173  10.553  18.556  0.00  0.00    +0.000 A 
ATOM     21  N   UNL     1      -0.974  11.272  19.317  0.00  0.00    +0.000 NA
ATOM     22  N   UNL     1      -2.247  11.111  18.804  0.00  0.00    +0.000 NA
ATOM     23  C   UNL     1      -2.133  10.310  17.767  0.00  0.00    +0.000 A 
ATOM     24  C   UNL     1      -3.163   9.804  16.844  0.00  0.00    +0.000 C 
ATOM     25  O   UNL     1      -0.841   9.911  17.543  0.00  0.00    +0.000 OA
ENDBRANCH  19  20
ENDBRANCH  17  19
ENDBRANCH  14  15
ENDBRANCH  13  14
TORSDOF 4
ENDMDL
MODEL 8
REMARK VINA RESULT:      -7.4      1.145      1.194
REMARK  Name = 
REMARK  6 active torsions:
REMARK  status: ('A' for Active; 'I' for Inactive)
REMARK    1  A    between atoms: C_1  and  C_2
REMARK    2  A    between atoms: C_13  and  C_14
REMARK    3  A    between atoms: C_14  and  C_15
REMARK    4  A    between atoms: N_17  and  C_18
REMARK    5  A    between atoms: C_18  and  C_19
REMARK    6  A    between atoms: C_22  and  C_23
REMARK                            x       y       z     vdW  Elec       q    Type
REMARK                         _______ _______ _______ _____ _____    ______ ____
ROOT
ATOM      1  C   UNL     1       0.962   8.347  20.497  0.00  0.00    +0.000 C 
ATOM      2  C   UNL     1       2.050   7.696  19.673  0.00  0.00    +0.000 C 
ATOM      3  O   UNL     1       2.659   8.346  18.824  0.00  0.00    +0.000 OA
ATOM      4  N   UNL     1       2.301   6.349  19.915  0.00  0.00    +0.000 N 
ATOM      5  C   UNL     1       1.570   5.590  20.941  0.00  0.00    +0.000 C 
ATOM      6  C   UNL     1       2.069   4.164  21.170  0.00  0.00    +0.000 C 
ATOM      7  C   UNL     1       2.195   3.467  19.846  0.00  0.00    +0.000 A 
ATOM      8  C   UNL     1       1.798   2.141  19.669  0.00  0.00    +0.000 A 
ATOM      9  C   UNL     1       1.883   1.553  18.407  0.00  0.00    +0.000 A 
ATOM     10  C   UNL     1       2.373   2.283  17.325  0.00  0.00    +0.000 A 
ATOM     11  C   UNL     1       2.795   3.600  17.502  0.00  0.00    +0.000 A 
ATOM     12  C   UNL     1       2.719   4.200  18.766  0.00  0.00    +0.000 A 
ATOM     13  C   UNL     1       3.213   5.623  18.993  0.00  0.00    +0.000 C 
ENDROOT
BRANCH  13  14
ATOM     14  C   UNL     1       4.655   5.641  19.529  0.00  0.00    +0.000 C 
BRANCH  14  15
ATOM     15  C   UNL     1       5.668   5.707  18.406  0.00  0.00    +0.000 C 
ATOM     16  O   UNL     1       5.674   6.610  17.575  0.00  0.00    +0.000 OA
ATOM     17  N   UNL     1       6.593   4.691  18.389  0.00  0.00    +0.000 N 
ATOM     18  H   UNL     1       6.463   3.870  18.970  0.00  0.00    +0.000 HD
BRANCH  17  19
ATOM     19  C   UNL     1       7.582   4.621  17.330  0.00  0.00    +0.000 C 
BRANCH  19  20
ATOM     20  C   UNL     1       6.951   4.326  16.019  0.00  0.00    +0.000 A 
ATOM     21  N   UNL     1       5.821   3.711  15.736  0.00  0.00    +0.000 NA
ATOM     22  N   UNL     1       5.705   3.721  14.358  0.00  0.00    +0.000 NA
ATOM     23  C   UNL     1       6.769   4.344  13.901  0.00  0.00    +0.000 A 
ATOM     24  C   UNL     1       7.163   4.649  12.514  0.00  0.00    +0.000 C 
ATOM     25  O   UNL     1       7.612   4.761  14.897  0.00  0.00    +0.000 OA
ENDBRANCH  19  20
ENDBRANCH  17  19
ENDBRANCH  14  15
ENDBRANCH  13  14
TORSDOF 4
ENDMDL
MODEL 9
REMARK VINA RESULT:      -7.4      3.087      7.546
REMARK  Name = 
REMARK  6 active torsions:
REMARK  status: ('A' for Active; 'I' for Inactive)
REMARK    1  A    between atoms: C_1  and  C_2
REMARK    2  A    between atoms: C_13  and  C_14
REMARK    3  A    between atoms: C_14  and  C_15
REMARK    4  A    between atoms: N_17  and  C_18
REMARK    5  A    between atoms: C_18  and  C_19
REMARK    6  A    between atoms: C_22  and  C_23
REMARK                            x       y       z     vdW  Elec       q    Type
REMARK                         _______ _______ _______ _____ _____    ______ ____
ROOT
ATOM      1  C   UNL     1       1.901   2.302  17.999  0.00  0.00    +0.000 C 
ATOM      2  C   UNL     1       2.036   3.805  17.895  0.00  0.00    +0.000 C 
ATOM      3  O   UNL     1       1.173   4.467  17.321  0.00  0.00    +0.000 OA
ATOM      4  N   UNL     1       3.175   4.374  18.456  0.00  0.00    +0.000 N 
ATOM      5  C   UNL     1       4.192   3.568  19.147  0.00  0.00    +0.000 C 
ATOM      6  C   UNL     1       5.302   4.369  19.826  0.00  0.00    +0.000 C 
ATOM      7  C   UNL     1       5.852   5.371  18.851  0.00  0.00    +0.000 A 
ATOM      8  C   UNL     1       7.220   5.625  18.747  0.00  0.00    +0.000 A 
ATOM      9  C   UNL     1       7.689   6.524  17.790  0.00  0.00    +0.000 A 
ATOM     10  C   UNL     1       6.793   7.178  16.944  0.00  0.00    +0.000 A 
ATOM     11  C   UNL     1       5.423   6.947  17.061  0.00  0.00    +0.000 A 
ATOM     12  C   UNL     1       4.941   6.050  18.023  0.00  0.00    +0.000 A 
ATOM     13  C   UNL     1       3.446   5.812  18.198  0.00  0.00    +0.000 C 
ENDROOT
BRANCH  13  14
ATOM     14  C   UNL     1       2.865   6.686  19.324  0.00  0.00    +0.000 C 
BRANCH  14  15
ATOM     15  C   UNL     1       2.198   7.930  18.777  0.00  0.00    +0.000 C 
ATOM     16  O   UNL     1       2.350   8.306  17.619  0.00  0.00    +0.000 OA
ATOM     17  N   UNL     1       1.396   8.604  19.667  0.00  0.00    +0.000 N 
ATOM     18  H   UNL     1       1.425   8.380  20.656  0.00  0.00    +0.000 HD
BRANCH  17  19
ATOM     19  C   UNL     1       0.745   9.839  19.272  0.00  0.00    +0.000 C 
BRANCH  19  20
ATOM     20  C   UNL     1       0.480  10.711  20.443  0.00  0.00    +0.000 A 
ATOM     21  N   UNL     1       1.163  11.734  20.917  0.00  0.00    +0.000 NA
ATOM     22  N   UNL     1       0.464  12.195  22.017  0.00  0.00    +0.000 NA
ATOM     23  C   UNL     1      -0.595  11.423  22.133  0.00  0.00    +0.000 A 
ATOM     24  C   UNL     1      -1.688  11.460  23.121  0.00  0.00    +0.000 C 
ATOM     25  O   UNL     1      -0.657  10.453  21.168  0.00  0.00    +0.000 OA
ENDBRANCH  19  20
ENDBRANCH  17  19
ENDBRANCH  14  15
ENDBRANCH  13  14
TORSDOF 4
ENDMDL
