MODEL 1
REMARK VINA RESULT:      -7.6      0.000      0.000
REMARK  Name = 
REMARK  5 active torsions:
REMARK  status: ('A' for Active; 'I' for Inactive)
REMARK    1  A    between atoms: C_2  and  C_3
REMARK    2  A    between atoms: C_3  and  N_4
REMARK    3  A    between atoms: N_7  and  S_8
REMARK    4  A    between atoms: S_8  and  C_11
REMARK    5  A    between atoms: N_20  and  C_21
REMARK                            x       y       z     vdW  Elec       q    Type
REMARK                         _______ _______ _______ _____ _____    ______ ____
ROOT
ATOM      1  N   UNL     1       0.919  10.698  20.306  0.00  0.00    +0.000 NA
ATOM      2  C   UNL     1       1.283  11.992  20.937  0.00  0.00    +0.000 C 
ATOM      3  C   UNL     1       0.257  13.126  20.776  0.00  0.00    +0.000 C 
ATOM      4  N   UNL     1      -1.094  12.720  21.254  0.00  0.00    +0.000 NA
ATOM      5  C   UNL     1      -1.530  11.502  20.498  0.00  0.00    +0.000 C 
ATOM      6  C   UNL     1      -0.495  10.352  20.609  0.00  0.00    +0.000 C 
ENDROOT
BRANCH   4   7
ATOM      7  S   UNL     1      -1.347  12.610  22.946  0.00  0.00    +0.000 S 
ATOM      8  O   UNL     1      -1.031  11.252  23.347  0.00  0.00    +0.000 OA
ATOM      9  O   UNL     1      -0.700  13.733  23.586  0.00  0.00    +0.000 OA
BRANCH   7  10
ATOM     10  C   UNL     1      -3.100  12.826  23.130  0.00  0.00    +0.000 A 
ATOM     11  C   UNL     1      -3.818  13.501  22.139  0.00  0.00    +0.000 A 
ATOM     12  C   UNL     1      -5.190  13.702  22.307  0.00  0.00    +0.000 A 
ATOM     13  C   UNL     1      -5.831  13.220  23.451  0.00  0.00    +0.000 A 
ATOM     14 CL   UNL     1      -7.519  13.480  23.655  0.00  0.00    +0.000 Cl
ATOM     15  C   UNL     1      -5.114  12.532  24.431  0.00  0.00    +0.000 A 
ATOM     16  C   UNL     1      -3.743  12.332  24.272  0.00  0.00    +0.000 A 
ENDBRANCH   7  10
ENDBRANCH   4   7
BRANCH   1  17
ATOM     17  C   UNL     1       1.163  10.686  18.849  0.00  0.00    +0.000 C 
BRANCH  17  19
ATOM     18  O   UNL     1       1.117   8.971  17.181  0.00  0.00    +0.000 OA
ATOM     19  C   UNL     1       1.428   9.265  18.334  0.00  0.00    +0.000 C 
ATOM     20  N   UNL     1       2.025   8.419  19.259  0.00  0.00    +0.000 N 
ATOM     21  H   UNL     1       2.089   8.765  20.210  0.00  0.00    +0.000 HD
BRANCH  20  22
ATOM     22  C   UNL     1       2.569   7.142  18.991  0.00  0.00    +0.000 A 
ATOM     23  C   UNL     1       3.434   6.905  17.916  0.00  0.00    +0.000 A 
ATOM     24  C   UNL     1       3.983   5.639  17.698  0.00  0.00    +0.000 A 
ATOM     25  C   UNL     1       3.663   4.589  18.548  0.00  0.00    +0.000 A 
ATOM     26  C   UNL     1       2.821   4.811  19.641  0.00  0.00    +0.000 A 
ATOM     27  C   UNL     1       2.274   6.083  19.862  0.00  0.00    +0.000 A 
ATOM     28  O   UNL     1       2.484   3.822  20.531  0.00  0.00    +0.000 OA
ATOM     29  C   UNL     1       3.362   2.691  20.417  0.00  0.00    +0.000 C 
ATOM     30  C   UNL     1       3.581   2.313  18.962  0.00  0.00    +0.000 C 
ATOM     31  O   UNL     1       4.229   3.376  18.257  0.00  0.00    +0.000 OA
ENDBRANCH  20  22
ENDBRANCH  17  19
ENDBRANCH   1  17
TORSDOF 5
ENDMDL
MODEL 2
REMARK VINA RESULT:      -7.4      2.181      3.205
REMARK  Name = 
REMARK  5 active torsions:
REMARK  status: ('A' for Active; 'I' for Inactive)
REMARK    1  A    between atoms: C_2  and  C_3
REMARK    2  A    between atoms: C_3  and  N_4
REMARK    3  A    between atoms: N_7  and  S_8
REMARK    4  A    between atoms: S_8  and  C_11
REMARK    5  A    between atoms: N_20  and  C_21
REMARK                            x       y       z     vdW  Elec       q    Type
REMARK                         _______ _______ _______ _____ _____    ______ ____
ROOT
ATOM      1  N   UNL     1       0.662  10.368  19.040  0.00  0.00    +0.000 NA
ATOM      2  C   UNL     1      -0.718  10.367  19.589  0.00  0.00    +0.000 C 
ATOM      3  C   UNL     1      -0.877  10.970  20.995  0.00  0.00    +0.000 C 
ATOM      4  N   UNL     1      -0.331  12.353  21.068  0.00  0.00    +0.000 NA
ATOM      5  C   UNL     1       1.113  12.326  20.666  0.00  0.00    +0.000 C 
ATOM      6  C   UNL     1       1.310  11.687  19.267  0.00  0.00    +0.000 C 
ENDROOT
BRANCH   4   7
ATOM      7  S   UNL     1      -1.231  13.611  20.328  0.00  0.00    +0.000 S 
ATOM      8  O   UNL     1      -0.929  14.839  21.038  0.00  0.00    +0.000 OA
ATOM      9  O   UNL     1      -1.052  13.529  18.896  0.00  0.00    +0.000 OA
BRANCH   7  10
ATOM     10  C   UNL     1      -2.920  13.191  20.683  0.00  0.00    +0.000 A 
ATOM     11  C   UNL     1      -3.414  13.361  21.979  0.00  0.00    +0.000 A 
ATOM     12  C   UNL     1      -4.731  12.994  22.261  0.00  0.00    +0.000 A 
ATOM     13  C   UNL     1      -5.543  12.473  21.250  0.00  0.00    +0.000 A 
ATOM     14 CL   UNL     1      -7.162  12.014  21.608  0.00  0.00    +0.000 Cl
ATOM     15  C   UNL     1      -5.052  12.320  19.953  0.00  0.00    +0.000 A 
ATOM     16  C   UNL     1      -3.735  12.681  19.665  0.00  0.00    +0.000 A 
ENDBRANCH   7  10
ENDBRANCH   4   7
BRANCH   1  17
ATOM     17  C   UNL     1       1.493   9.274  19.583  0.00  0.00    +0.000 C 
BRANCH  17  19
ATOM     18  O   UNL     1       2.069   8.801  17.308  0.00  0.00    +0.000 OA
ATOM     19  C   UNL     1       2.048   8.381  18.465  0.00  0.00    +0.000 C 
ATOM     20  N   UNL     1       2.496   7.137  18.889  0.00  0.00    +0.000 N 
ATOM     21  H   UNL     1       2.282   6.884  19.847  0.00  0.00    +0.000 HD
BRANCH  20  22
ATOM     22  C   UNL     1       3.241   6.213  18.121  0.00  0.00    +0.000 A 
ATOM     23  C   UNL     1       2.843   4.882  17.954  0.00  0.00    +0.000 A 
ATOM     24  C   UNL     1       3.583   4.002  17.160  0.00  0.00    +0.000 A 
ATOM     25  C   UNL     1       4.740   4.441  16.533  0.00  0.00    +0.000 A 
ATOM     26  C   UNL     1       5.141   5.772  16.668  0.00  0.00    +0.000 A 
ATOM     27  C   UNL     1       4.396   6.656  17.460  0.00  0.00    +0.000 A 
ATOM     28  O   UNL     1       6.263   6.275  16.056  0.00  0.00    +0.000 OA
ATOM     29  C   UNL     1       6.728   5.404  15.014  0.00  0.00    +0.000 C 
ATOM     30  C   UNL     1       6.743   3.957  15.477  0.00  0.00    +0.000 C 
ATOM     31  O   UNL     1       5.418   3.514  15.786  0.00  0.00    +0.000 OA
ENDBRANCH  20  22
ENDBRANCH  17  19
ENDBRANCH   1  17
TORSDOF 5
ENDMDL
MODEL 3
REMARK VINA RESULT:      -7.4      1.379      2.272
REMARK  Name = 
REMARK  5 active torsions:
REMARK  status: ('A' for Active; 'I' for Inactive)
REMARK    1  A    between atoms: C_2  and  C_3
REMARK    2  A    between atoms: C_3  and  N_4
REMARK    3  A    between atoms: N_7  and  S_8
REMARK    4  A    between atoms: S_8  and  C_11
REMARK    5  A    between atoms: N_20  and  C_21
REMARK                            x       y       z     vdW  Elec       q    Type
REMARK                         _______ _______ _______ _____ _____    ______ ____
ROOT
ATOM      1  N   UNL     1       0.808  11.041  20.076  0.00  0.00    +0.000 NA
ATOM      2  C   UNL     1       1.301  12.339  20.603  0.00  0.00    +0.000 C 
ATOM      3  C   UNL     1       0.322  13.519  20.493  0.00  0.00    +0.000 C 
ATOM      4  N   UNL     1      -0.989  13.210  21.127  0.00  0.00    +0.000 NA
ATOM      5  C   UNL     1      -1.563  11.986  20.481  0.00  0.00    +0.000 C 
ATOM      6  C   UNL     1      -0.581  10.787  20.540  0.00  0.00    +0.000 C 
ENDROOT
BRANCH   4   7
ATOM      7  S   UNL     1      -1.066  13.187  22.840  0.00  0.00    +0.000 S 
ATOM      8  O   UNL     1      -0.684  11.858  23.276  0.00  0.00    +0.000 OA
ATOM      9  O   UNL     1      -0.381  14.352  23.351  0.00  0.00    +0.000 OA
BRANCH   7  10
ATOM     10  C   UNL     1      -2.796  13.386  23.192  0.00  0.00    +0.000 A 
ATOM     11  C   UNL     1      -3.463  12.412  23.940  0.00  0.00    +0.000 A 
ATOM     12  C   UNL     1      -4.831  12.555  24.181  0.00  0.00    +0.000 A 
ATOM     13  C   UNL     1      -5.515  13.667  23.684  0.00  0.00    +0.000 A 
ATOM     14 CL   UNL     1      -7.203  13.830  23.977  0.00  0.00    +0.000 Cl
ATOM     15  C   UNL     1      -4.844  14.646  22.951  0.00  0.00    +0.000 A 
ATOM     16  C   UNL     1      -3.477  14.508  22.702  0.00  0.00    +0.000 A 
ENDBRANCH   7  10
ENDBRANCH   4   7
BRANCH   1  17
ATOM     17  C   UNL     1       0.895  10.953  18.604  0.00  0.00    +0.000 C 
BRANCH  17  19
ATOM     18  O   UNL     1       0.306   8.986  17.374  0.00  0.00    +0.000 OA
ATOM     19  C   UNL     1       1.117   9.507  18.139  0.00  0.00    +0.000 C 
ATOM     20  N   UNL     1       2.263   8.909  18.645  0.00  0.00    +0.000 N 
ATOM     21  H   UNL     1       2.753   9.416  19.373  0.00  0.00    +0.000 HD
BRANCH  20  22
ATOM     22  C   UNL     1       2.818   7.679  18.220  0.00  0.00    +0.000 A 
ATOM     23  C   UNL     1       2.315   6.443  18.641  0.00  0.00    +0.000 A 
ATOM     24  C   UNL     1       2.864   5.245  18.176  0.00  0.00    +0.000 A 
ATOM     25  C   UNL     1       3.934   5.271  17.292  0.00  0.00    +0.000 A 
ATOM     26  C   UNL     1       4.435   6.495  16.842  0.00  0.00    +0.000 A 
ATOM     27  C   UNL     1       3.881   7.696  17.305  0.00  0.00    +0.000 A 
ATOM     28  O   UNL     1       5.476   6.588  15.952  0.00  0.00    +0.000 OA
ATOM     29  C   UNL     1       5.716   5.337  15.290  0.00  0.00    +0.000 C 
ATOM     30  C   UNL     1       5.711   4.185  16.281  0.00  0.00    +0.000 C 
ATOM     31  O   UNL     1       4.426   4.055  16.897  0.00  0.00    +0.000 OA
ENDBRANCH  20  22
ENDBRANCH  17  19
ENDBRANCH   1  17
TORSDOF 5
ENDMDL
MODEL 4
REMARK VINA RESULT:      -7.3      2.103      3.053
REMARK  Name = 
REMARK  5 active torsions:
REMARK  status: ('A' for Active; 'I' for Inactive)
REMARK    1  A    between atoms: C_2  and  C_3
REMARK    2  A    between atoms: C_3  and  N_4
REMARK    3  A    between atoms: N_7  and  S_8
REMARK    4  A    between atoms: S_8  and  C_11
REMARK    5  A    between atoms: N_20  and  C_21
REMARK                            x       y       z     vdW  Elec       q    Type
REMARK                         _______ _______ _______ _____ _____    ______ ____
ROOT
ATOM      1  N   UNL     1       0.583  10.143  19.147  0.00  0.00    +0.000 NA
ATOM      2  C   UNL     1      -0.650  10.240  19.968  0.00  0.00    +0.000 C 
ATOM      3  C   UNL     1      -0.521  11.041  21.274  0.00  0.00    +0.000 C 
ATOM      4  N   UNL     1       0.004  12.413  21.032  0.00  0.00    +0.000 NA
ATOM      5  C   UNL     1       1.331  12.309  20.343  0.00  0.00    +0.000 C 
ATOM      6  C   UNL     1       1.241  11.473  19.040  0.00  0.00    +0.000 C 
ENDROOT
BRANCH   4   7
ATOM      7  S   UNL     1      -1.053  13.563  20.324  0.00  0.00    +0.000 S 
ATOM      8  O   UNL     1      -0.557  14.881  20.669  0.00  0.00    +0.000 OA
ATOM      9  O   UNL     1      -1.275  13.201  18.943  0.00  0.00    +0.000 OA
BRANCH   7  10
ATOM     10  C   UNL     1      -2.584  13.326  21.193  0.00  0.00    +0.000 A 
ATOM     11  C   UNL     1      -3.696  12.831  20.506  0.00  0.00    +0.000 A 
ATOM     12  C   UNL     1      -4.907  12.682  21.184  0.00  0.00    +0.000 A 
ATOM     13  C   UNL     1      -4.995  13.017  22.537  0.00  0.00    +0.000 A 
ATOM     14 CL   UNL     1      -6.493  12.840  23.364  0.00  0.00    +0.000 Cl
ATOM     15  C   UNL     1      -3.879  13.496  23.225  0.00  0.00    +0.000 A 
ATOM     16  C   UNL     1      -2.666  13.651  22.552  0.00  0.00    +0.000 A 
ENDBRANCH   7  10
ENDBRANCH   4   7
BRANCH   1  17
ATOM     17  C   UNL     1       1.528   9.128  19.655  0.00  0.00    +0.000 C 
BRANCH  17  19
ATOM     18  O   UNL     1       2.104   8.704  17.371  0.00  0.00    +0.000 OA
ATOM     19  C   UNL     1       2.087   8.261  18.519  0.00  0.00    +0.000 C 
ATOM     20  N   UNL     1       2.542   7.011  18.917  0.00  0.00    +0.000 N 
ATOM     21  H   UNL     1       2.330   6.738  19.870  0.00  0.00    +0.000 HD
BRANCH  20  22
ATOM     22  C   UNL     1       3.291   6.106  18.130  0.00  0.00    +0.000 A 
ATOM     23  C   UNL     1       2.959   4.751  18.023  0.00  0.00    +0.000 A 
ATOM     24  C   UNL     1       3.698   3.889  17.209  0.00  0.00    +0.000 A 
ATOM     25  C   UNL     1       4.790   4.372  16.500  0.00  0.00    +0.000 A 
ATOM     26  C   UNL     1       5.122   5.727  16.575  0.00  0.00    +0.000 A 
ATOM     27  C   UNL     1       4.377   6.592  17.388  0.00  0.00    +0.000 A 
ATOM     28  O   UNL     1       6.175   6.272  15.881  0.00  0.00    +0.000 OA
ATOM     29  C   UNL     1       6.626   5.397  14.837  0.00  0.00    +0.000 C 
ATOM     30  C   UNL     1       6.749   3.967  15.336  0.00  0.00    +0.000 C 
ATOM     31  O   UNL     1       5.473   3.461  15.739  0.00  0.00    +0.000 OA
ENDBRANCH  20  22
ENDBRANCH  17  19
ENDBRANCH   1  17
TORSDOF 5
ENDMDL
MODEL 5
REMARK VINA RESULT:      -7.3      2.536      3.698
REMARK  Name = 
REMARK  5 active torsions:
REMARK  status: ('A' for Active; 'I' for Inactive)
REMARK    1  A    between atoms: C_2  and  C_3
REMARK    2  A    between atoms: C_3  and  N_4
REMARK    3  A    between atoms: N_7  and  S_8
REMARK    4  A    between atoms: S_8  and  C_11
REMARK    5  A    between atoms: N_20  and  C_21
REMARK                            x       y       z     vdW  Elec       q    Type
REMARK                         _______ _______ _______ _____ _____    ______ ____
ROOT
ATOM      1  N   UNL     1       1.955   8.016  20.799  0.00  0.00    +0.000 NA
ATOM      2  C   UNL     1       1.818   8.836  19.568  0.00  0.00    +0.000 C 
ATOM      3  C   UNL     1       0.378   9.172  19.147  0.00  0.00    +0.000 C 
ATOM      4  N   UNL     1      -0.381   9.827  20.248  0.00  0.00    +0.000 NA
ATOM      5  C   UNL     1      -0.378   8.923  21.443  0.00  0.00    +0.000 C 
ATOM      6  C   UNL     1       1.061   8.533  21.869  0.00  0.00    +0.000 C 
ENDROOT
BRANCH   4   7
ATOM      7  S   UNL     1      -0.011  11.460  20.617  0.00  0.00    +0.000 S 
ATOM      8  O   UNL     1       1.056  11.455  21.598  0.00  0.00    +0.000 OA
ATOM      9  O   UNL     1       0.134  12.194  19.380  0.00  0.00    +0.000 OA
BRANCH   7  10
ATOM     10  C   UNL     1      -1.476  12.057  21.426  0.00  0.00    +0.000 A 
ATOM     11  C   UNL     1      -2.591  12.406  20.659  0.00  0.00    +0.000 A 
ATOM     12  C   UNL     1      -3.727  12.910  21.297  0.00  0.00    +0.000 A 
ATOM     13  C   UNL     1      -3.742  13.052  22.686  0.00  0.00    +0.000 A 
ATOM     14 CL   UNL     1      -5.141  13.683  23.464  0.00  0.00    +0.000 Cl
ATOM     15  C   UNL     1      -2.632  12.688  23.450  0.00  0.00    +0.000 A 
ATOM     16  C   UNL     1      -1.493  12.187  22.820  0.00  0.00    +0.000 A 
ENDBRANCH   7  10
ENDBRANCH   4   7
BRANCH   1  17
ATOM     17  C   UNL     1       1.709   6.580  20.558  0.00  0.00    +0.000 C 
BRANCH  17  19
ATOM     18  O   UNL     1       1.975   5.953  18.263  0.00  0.00    +0.000 OA
ATOM     19  C   UNL     1       2.520   6.064  19.361  0.00  0.00    +0.000 C 
ATOM     20  N   UNL     1       3.845   5.766  19.648  0.00  0.00    +0.000 N 
ATOM     21  H   UNL     1       4.107   5.774  20.627  0.00  0.00    +0.000 HD
BRANCH  20  22
ATOM     22  C   UNL     1       4.859   5.483  18.703  0.00  0.00    +0.000 A 
ATOM     23  C   UNL     1       6.211   5.397  19.056  0.00  0.00    +0.000 A 
ATOM     24  C   UNL     1       7.185   5.082  18.106  0.00  0.00    +0.000 A 
ATOM     25  C   UNL     1       6.819   4.861  16.785  0.00  0.00    +0.000 A 
ATOM     26  C   UNL     1       5.473   4.919  16.418  0.00  0.00    +0.000 A 
ATOM     27  C   UNL     1       4.495   5.230  17.373  0.00  0.00    +0.000 A 
ATOM     28  O   UNL     1       5.043   4.688  15.135  0.00  0.00    +0.000 OA
ATOM     29  C   UNL     1       6.056   4.043  14.349  0.00  0.00    +0.000 C 
ATOM     30  C   UNL     1       7.409   4.704  14.552  0.00  0.00    +0.000 C 
ATOM     31  O   UNL     1       7.835   4.574  15.912  0.00  0.00    +0.000 OA
ENDBRANCH  20  22
ENDBRANCH  17  19
ENDBRANCH   1  17
TORSDOF 5
ENDMDL
MODEL 6
REMARK VINA RESULT:      -7.3      2.291      3.211
REMARK  Name = 
REMARK  5 active torsions:
REMARK  status: ('A' for Active; 'I' for Inactive)
REMARK    1  A    between atoms: C_2  and  C_3
REMARK    2  A    between atoms: C_3  and  N_4
REMARK    3  A    between atoms: N_7  and  S_8
REMARK    4  A    between atoms: S_8  and  C_11
REMARK    5  A    between atoms: N_20  and  C_21
REMARK                            x       y       z     vdW  Elec       q    Type
REMARK                         _______ _______ _______ _____ _____    ______ ____
ROOT
ATOM      1  N   UNL     1       1.641   8.833  20.877  0.00  0.00    +0.000 NA
ATOM      2  C   UNL     1       0.897   9.682  19.911  0.00  0.00    +0.000 C 
ATOM      3  C   UNL     1      -0.629   9.721  20.094  0.00  0.00    +0.000 C 
ATOM      4  N   UNL     1      -1.010  10.120  21.477  0.00  0.00    +0.000 NA
ATOM      5  C   UNL     1      -0.387   9.162  22.446  0.00  0.00    +0.000 C 
ATOM      6  C   UNL     1       1.150   9.071  22.261  0.00  0.00    +0.000 C 
ENDROOT
BRANCH   4   7
ATOM      7  S   UNL     1      -0.824  11.767  21.917  0.00  0.00    +0.000 S 
ATOM      8  O   UNL     1      -0.422  11.803  23.310  0.00  0.00    +0.000 OA
ATOM      9  O   UNL     1      -0.032  12.430  20.907  0.00  0.00    +0.000 OA
BRANCH   7  10
ATOM     10  C   UNL     1      -2.473  12.422  21.821  0.00  0.00    +0.000 A 
ATOM     11  C   UNL     1      -2.953  12.899  20.598  0.00  0.00    +0.000 A 
ATOM     12  C   UNL     1      -4.236  13.448  20.537  0.00  0.00    +0.000 A 
ATOM     13  C   UNL     1      -5.026  13.506  21.687  0.00  0.00    +0.000 A 
ATOM     14 CL   UNL     1      -6.601  14.193  21.605  0.00  0.00    +0.000 Cl
ATOM     15  C   UNL     1      -4.549  13.015  22.903  0.00  0.00    +0.000 A 
ATOM     16  C   UNL     1      -3.267  12.468  22.973  0.00  0.00    +0.000 A 
ENDBRANCH   7  10
ENDBRANCH   4   7
BRANCH   1  17
ATOM     17  C   UNL     1       1.582   7.397  20.537  0.00  0.00    +0.000 C 
BRANCH  17  19
ATOM     18  O   UNL     1       2.386   7.703  18.304  0.00  0.00    +0.000 OA
ATOM     19  C   UNL     1       2.493   7.062  19.349  0.00  0.00    +0.000 C 
ATOM     20  N   UNL     1       3.391   6.029  19.584  0.00  0.00    +0.000 N 
ATOM     21  H   UNL     1       3.262   5.507  20.443  0.00  0.00    +0.000 HD
BRANCH  20  22
ATOM     22  C   UNL     1       4.475   5.662  18.754  0.00  0.00    +0.000 A 
ATOM     23  C   UNL     1       5.776   5.503  19.246  0.00  0.00    +0.000 A 
ATOM     24  C   UNL     1       6.820   5.105  18.406  0.00  0.00    +0.000 A 
ATOM     25  C   UNL     1       6.577   4.875  17.059  0.00  0.00    +0.000 A 
ATOM     26  C   UNL     1       5.281   5.006  16.555  0.00  0.00    +0.000 A 
ATOM     27  C   UNL     1       4.233   5.400  17.398  0.00  0.00    +0.000 A 
ATOM     28  O   UNL     1       4.970   4.771  15.238  0.00  0.00    +0.000 OA
ATOM     29  C   UNL     1       6.015   4.047  14.572  0.00  0.00    +0.000 C 
ATOM     30  C   UNL     1       7.379   4.629  14.902  0.00  0.00    +0.000 C 
ATOM     31  O   UNL     1       7.656   4.506  16.300  0.00  0.00    +0.000 OA
ENDBRANCH  20  22
ENDBRANCH  17  19
ENDBRANCH   1  17
TORSDOF 5
ENDMDL
MODEL 7
REMARK VINA RESULT:      -7.3      8.110     11.168
REMARK  Name = 
REMARK  5 active torsions:
REMARK  status: ('A' for Active; 'I' for Inactive)
REMARK    1  A    between atoms: C_2  and  C_3
REMARK    2  A    between atoms: C_3  and  N_4
REMARK    3  A    between atoms: N_7  and  S_8
REMARK    4  A    between atoms: S_8  and  C_11
REMARK    5  A    between atoms: N_20  and  C_21
REMARK                            x       y       z     vdW  Elec       q    Type
REMARK                         _______ _______ _______ _____ _____    ______ ____
ROOT
ATOM      1  N   UNL     1       6.975   7.085  17.581  0.00  0.00    +0.000 NA
ATOM      2  C   UNL     1       7.148   5.969  16.617  0.00  0.00    +0.000 C 
ATOM      3  C   UNL     1       7.269   4.566  17.234  0.00  0.00    +0.000 C 
ATOM      4  N   UNL     1       6.120   4.254  18.128  0.00  0.00    +0.000 NA
ATOM      5  C   UNL     1       6.044   5.298  19.200  0.00  0.00    +0.000 C 
ATOM      6  C   UNL     1       5.960   6.729  18.609  0.00  0.00    +0.000 C 
ENDROOT
BRANCH   4   7
ATOM      7  S   UNL     1       4.608   3.903  17.398  0.00  0.00    +0.000 S 
ATOM      8  O   UNL     1       4.096   5.138  16.839  0.00  0.00    +0.000 OA
ATOM      9  O   UNL     1       4.756   2.728  16.569  0.00  0.00    +0.000 OA
BRANCH   7  10
ATOM     10  C   UNL     1       3.566   3.464  18.768  0.00  0.00    +0.000 A 
ATOM     11  C   UNL     1       2.273   3.990  18.844  0.00  0.00    +0.000 A 
ATOM     12  C   UNL     1       1.471   3.672  19.943  0.00  0.00    +0.000 A 
ATOM     13  C   UNL     1       1.960   2.830  20.944  0.00  0.00    +0.000 A 
ATOM     14 CL   UNL     1       0.970   2.451  22.299  0.00  0.00    +0.000 Cl
ATOM     15  C   UNL     1       3.246   2.294  20.857  0.00  0.00    +0.000 A 
ATOM     16  C   UNL     1       4.054   2.610  19.764  0.00  0.00    +0.000 A 
ENDBRANCH   7  10
ENDBRANCH   4   7
BRANCH   1  17
ATOM     17  C   UNL     1       8.245   7.493  18.216  0.00  0.00    +0.000 C 
BRANCH  17  19
ATOM     18  O   UNL     1       7.655   9.721  17.570  0.00  0.00    +0.000 OA
ATOM     19  C   UNL     1       8.376   9.021  18.280  0.00  0.00    +0.000 C 
ATOM     20  N   UNL     1       9.331   9.481  19.176  0.00  0.00    +0.000 N 
ATOM     21  H   UNL     1       9.941   8.780  19.583  0.00  0.00    +0.000 HD
BRANCH  20  22
ATOM     22  C   UNL     1       9.510  10.821  19.590  0.00  0.00    +0.000 A 
ATOM     23  C   UNL     1       9.322  11.229  20.915  0.00  0.00    +0.000 A 
ATOM     24  C   UNL     1       9.540  12.554  21.299  0.00  0.00    +0.000 A 
ATOM     25  C   UNL     1       9.938  13.493  20.357  0.00  0.00    +0.000 A 
ATOM     26  C   UNL     1      10.154  13.100  19.034  0.00  0.00    +0.000 A 
ATOM     27  C   UNL     1       9.940  11.769  18.650  0.00  0.00    +0.000 A 
ATOM     28  O   UNL     1      10.569  13.973  18.059  0.00  0.00    +0.000 OA
ATOM     29  C   UNL     1      11.088  15.185  18.625  0.00  0.00    +0.000 C 
ATOM     30  C   UNL     1      10.181  15.707  19.727  0.00  0.00    +0.000 C 
ATOM     31  O   UNL     1      10.114  14.774  20.809  0.00  0.00    +0.000 OA
ENDBRANCH  20  22
ENDBRANCH  17  19
ENDBRANCH   1  17
TORSDOF 5
ENDMDL
MODEL 8
REMARK VINA RESULT:      -7.2      2.445      3.553
REMARK  Name = 
REMARK  5 active torsions:
REMARK  status: ('A' for Active; 'I' for Inactive)
REMARK    1  A    between atoms: C_2  and  C_3
REMARK    2  A    between atoms: C_3  and  N_4
REMARK    3  A    between atoms: N_7  and  S_8
REMARK    4  A    between atoms: S_8  and  C_11
REMARK    5  A    between atoms: N_20  and  C_21
REMARK                            x       y       z     vdW  Elec       q    Type
REMARK                         _______ _______ _______ _____ _____    ______ ____
ROOT
ATOM      1  N   UNL     1       1.867   8.554  20.545  0.00  0.00    +0.000 NA
ATOM      2  C   UNL     1       1.466   9.440  19.422  0.00  0.00    +0.000 C 
ATOM      3  C   UNL     1      -0.047   9.640  19.238  0.00  0.00    +0.000 C 
ATOM      4  N   UNL     1      -0.697  10.123  20.488  0.00  0.00    +0.000 NA
ATOM      5  C   UNL     1      -0.425   9.141  21.586  0.00  0.00    +0.000 C 
ATOM      6  C   UNL     1       1.094   8.887  21.770  0.00  0.00    +0.000 C 
ENDROOT
BRANCH   4   7
ATOM      7  S   UNL     1      -0.444  11.757  20.944  0.00  0.00    +0.000 S 
ATOM      8  O   UNL     1       0.580  11.769  21.970  0.00  0.00    +0.000 OA
ATOM      9  O   UNL     1      -0.294  12.554  19.748  0.00  0.00    +0.000 OA
BRANCH   7  10
ATOM     10  C   UNL     1      -1.975  12.226  21.713  0.00  0.00    +0.000 A 
ATOM     11  C   UNL     1      -2.120  12.092  23.097  0.00  0.00    +0.000 A 
ATOM     12  C   UNL     1      -3.339  12.427  23.691  0.00  0.00    +0.000 A 
ATOM     13  C   UNL     1      -4.392  12.899  22.905  0.00  0.00    +0.000 A 
ATOM     14 CL   UNL     1      -5.894  13.299  23.643  0.00  0.00    +0.000 Cl
ATOM     15  C   UNL     1      -4.240  13.046  21.525  0.00  0.00    +0.000 A 
ATOM     16  C   UNL     1      -3.026  12.710  20.924  0.00  0.00    +0.000 A 
ENDBRANCH   7  10
ENDBRANCH   4   7
BRANCH   1  17
ATOM     17  C   UNL     1       1.736   7.120  20.214  0.00  0.00    +0.000 C 
BRANCH  17  19
ATOM     18  O   UNL     1       2.220   7.154  17.870  0.00  0.00    +0.000 OA
ATOM     19  C   UNL     1       2.568   6.749  18.979  0.00  0.00    +0.000 C 
ATOM     20  N   UNL     1       3.682   5.965  19.248  0.00  0.00    +0.000 N 
ATOM     21  H   UNL     1       3.755   5.595  20.189  0.00  0.00    +0.000 HD
BRANCH  20  22
ATOM     22  C   UNL     1       4.726   5.662  18.344  0.00  0.00    +0.000 A 
ATOM     23  C   UNL     1       6.074   5.692  18.718  0.00  0.00    +0.000 A 
ATOM     24  C   UNL     1       7.082   5.354  17.811  0.00  0.00    +0.000 A 
ATOM     25  C   UNL     1       6.752   4.992  16.512  0.00  0.00    +0.000 A 
ATOM     26  C   UNL     1       5.410   4.933  16.127  0.00  0.00    +0.000 A 
ATOM     27  C   UNL     1       4.399   5.268  17.039  0.00  0.00    +0.000 A 
ATOM     28  O   UNL     1       5.016   4.562  14.865  0.00  0.00    +0.000 OA
ATOM     29  C   UNL     1       6.080   3.913  14.152  0.00  0.00    +0.000 C 
ATOM     30  C   UNL     1       7.386   4.672  14.309  0.00  0.00    +0.000 C 
ATOM     31  O   UNL     1       7.797   4.691  15.679  0.00  0.00    +0.000 OA
ENDBRANCH  20  22
ENDBRANCH  17  19
ENDBRANCH   1  17
TORSDOF 5
ENDMDL
MODEL 9
REMARK VINA RESULT:      -7.2      1.685      2.041
REMARK  Name = 
REMARK  5 active torsions:
REMARK  status: ('A' for Active; 'I' for Inactive)
REMARK    1  A    between atoms: C_2  and  C_3
REMARK    2  A    between atoms: C_3  and  N_4
REMARK    3  A    between atoms: N_7  and  S_8
REMARK    4  A    between atoms: S_8  and  C_11
REMARK    5  A    between atoms: N_20  and  C_21
REMARK                            x       y       z     vdW  Elec       q    Type
REMARK                         _______ _______ _______ _____ _____    ______ ____
ROOT
ATOM      1  N   UNL     1       1.079  11.022  19.503  0.00  0.00    +0.000 NA
ATOM      2  C   UNL     1       1.156  12.386  18.921  0.00  0.00    +0.000 C 
ATOM      3  C   UNL     1      -0.165  12.955  18.377  0.00  0.00    +0.000 C 
ATOM      4  N   UNL     1      -1.242  12.931  19.406  0.00  0.00    +0.000 NA
ATOM      5  C   UNL     1      -1.430  11.521  19.877  0.00  0.00    +0.000 C 
ATOM      6  C   UNL     1      -0.104  10.905  20.397  0.00  0.00    +0.000 C 
ENDROOT
BRANCH   4   7
ATOM      7  S   UNL     1      -1.164  14.080  20.676  0.00  0.00    +0.000 S 
ATOM      8  O   UNL     1       0.027  13.793  21.451  0.00  0.00    +0.000 OA
ATOM      9  O   UNL     1      -1.380  15.398  20.123  0.00  0.00    +0.000 OA
BRANCH   7  10
ATOM     10  C   UNL     1      -2.568  13.688  21.691  0.00  0.00    +0.000 A 
ATOM     11  C   UNL     1      -2.373  13.332  23.028  0.00  0.00    +0.000 A 
ATOM     12  C   UNL     1      -3.476  12.989  23.812  0.00  0.00    +0.000 A 
ATOM     13  C   UNL     1      -4.759  13.013  23.259  0.00  0.00    +0.000 A 
ATOM     14 CL   UNL     1      -6.113  12.578  24.228  0.00  0.00    +0.000 Cl
ATOM     15  C   UNL     1      -4.953  13.384  21.928  0.00  0.00    +0.000 A 
ATOM     16  C   UNL     1      -3.854  13.725  21.138  0.00  0.00    +0.000 A 
ENDBRANCH   7  10
ENDBRANCH   4   7
BRANCH   1  17
ATOM     17  C   UNL     1       1.067   9.962  18.474  0.00  0.00    +0.000 C 
BRANCH  17  19
ATOM     18  O   UNL     1       1.605   8.375  20.183  0.00  0.00    +0.000 OA
ATOM     19  C   UNL     1       1.709   8.668  18.992  0.00  0.00    +0.000 C 
ATOM     20  N   UNL     1       2.365   7.921  18.022  0.00  0.00    +0.000 N 
ATOM     21  H   UNL     1       2.485   8.363  17.118  0.00  0.00    +0.000 HD
BRANCH  20  22
ATOM     22  C   UNL     1       2.851   6.602  18.173  0.00  0.00    +0.000 A 
ATOM     23  C   UNL     1       4.163   6.327  18.574  0.00  0.00    +0.000 A 
ATOM     24  C   UNL     1       4.604   5.012  18.747  0.00  0.00    +0.000 A 
ATOM     25  C   UNL     1       3.737   3.954  18.509  0.00  0.00    +0.000 A 
ATOM     26  C   UNL     1       2.417   4.209  18.131  0.00  0.00    +0.000 A 
ATOM     27  C   UNL     1       1.974   5.528  17.962  0.00  0.00    +0.000 A 
ATOM     28  O   UNL     1       1.505   3.209  17.902  0.00  0.00    +0.000 OA
ATOM     29  C   UNL     1       1.952   1.956  18.440  0.00  0.00    +0.000 C 
ATOM     30  C   UNL     1       3.409   1.701  18.093  0.00  0.00    +0.000 C 
ATOM     31  O   UNL     1       4.250   2.696  18.685  0.00  0.00    +0.000 OA
ENDBRANCH  20  22
ENDBRANCH  17  19
ENDBRANCH   1  17
TORSDOF 5
ENDMDL
