MODEL 1
REMARK VINA RESULT:      -7.0      0.000      0.000
REMARK  Name = 
REMARK  7 active torsions:
REMARK  status: ('A' for Active; 'I' for Inactive)
REMARK    1  A    between atoms: C_1  and  C_2
REMARK    2  A    between atoms: C_5  and  N_6
REMARK    3  A    between atoms: N_6  and  C_7
REMARK    4  A    between atoms: C_7  and  O_9
REMARK    5  A    between atoms: O_9  and  C_10
REMARK    6  A    between atoms: C_10  and  C_11
REMARK    7  A    between atoms: C_11  and  C_12
REMARK                            x       y       z     vdW  Elec       q    Type
REMARK                         _______ _______ _______ _____ _____    ______ ____
ROOT
ATOM      1  C   UNL     1       7.106   6.953  17.449  0.00  0.00    +0.000 C 
ATOM      2  S   UNL     1       7.656   5.920  18.642  0.00  0.00    +0.000 S 
ENDROOT
BRANCH   1   3
ATOM      3  N   UNL     1       6.042   6.568  16.680  0.00  0.00    +0.000 N 
ATOM      4  H   UNL     1       6.182   6.754  15.694  0.00  0.00    +0.000 HD
BRANCH   3   9
ATOM      5  C   UNL     1       1.348   3.649  18.153  0.00  0.00    +0.000 C 
ATOM      6  C   UNL     1       2.558   4.441  17.758  0.00  0.00    +0.000 A 
ATOM      7  C   UNL     1       2.670   5.797  18.087  0.00  0.00    +0.000 A 
ATOM      8  C   UNL     1       3.802   6.531  17.717  0.00  0.00    +0.000 A 
ATOM      9  C   UNL     1       4.842   5.920  17.020  0.00  0.00    +0.000 A 
ATOM     10  C   UNL     1       4.733   4.563  16.693  0.00  0.00    +0.000 A 
ATOM     11  C   UNL     1       3.600   3.830  17.051  0.00  0.00    +0.000 A 
ENDBRANCH   3   9
ENDBRANCH   1   3
BRANCH   1  12
ATOM     12  O   UNL     1       7.688   8.150  17.153  0.00  0.00    +0.000 OA
BRANCH  12  13
ATOM     13  C   UNL     1       8.417   8.865  18.180  0.00  0.00    +0.000 C 
BRANCH  13  14
ATOM     14  C   UNL     1       8.488  10.354  17.863  0.00  0.00    +0.000 C 
BRANCH  14  15
ATOM     15  C   UNL     1       9.649  10.965  18.609  0.00  0.00    +0.000 A 
ATOM     16  C   UNL     1      10.756  11.457  17.919  0.00  0.00    +0.000 A 
ATOM     17  C   UNL     1      11.754  12.118  18.631  0.00  0.00    +0.000 A 
ATOM     18  C   UNL     1      11.623  12.269  20.005  0.00  0.00    +0.000 A 
ATOM     19  C   UNL     1      10.495  11.749  20.615  0.00  0.00    +0.000 A 
ATOM     20  N   UNL     1       9.509  11.108  19.948  0.00  0.00    +0.000 NA
ENDBRANCH  14  15
ENDBRANCH  13  14
ENDBRANCH  12  13
ENDBRANCH   1  12
TORSDOF 6
ENDMDL
MODEL 2
REMARK VINA RESULT:      -7.0      4.550      7.423
REMARK  Name = 
REMARK  7 active torsions:
REMARK  status: ('A' for Active; 'I' for Inactive)
REMARK    1  A    between atoms: C_1  and  C_2
REMARK    2  A    between atoms: C_5  and  N_6
REMARK    3  A    between atoms: N_6  and  C_7
REMARK    4  A    between atoms: C_7  and  O_9
REMARK    5  A    between atoms: O_9  and  C_10
REMARK    6  A    between atoms: C_10  and  C_11
REMARK    7  A    between atoms: C_11  and  C_12
REMARK                            x       y       z     vdW  Elec       q    Type
REMARK                         _______ _______ _______ _____ _____    ______ ____
ROOT
ATOM      1  C   UNL     1       7.171   5.914  17.058  0.00  0.00    +0.000 C 
ATOM      2  S   UNL     1       7.404   7.513  17.486  0.00  0.00    +0.000 S 
ENDROOT
BRANCH   1   3
ATOM      3  N   UNL     1       7.565   5.499  15.815  0.00  0.00    +0.000 N 
ATOM      4  H   UNL     1       8.560   5.613  15.660  0.00  0.00    +0.000 HD
BRANCH   3   9
ATOM      5  C   UNL     1       4.926   2.918  11.446  0.00  0.00    +0.000 C 
ATOM      6  C   UNL     1       5.588   3.610  12.600  0.00  0.00    +0.000 A 
ATOM      7  C   UNL     1       4.951   3.707  13.843  0.00  0.00    +0.000 A 
ATOM      8  C   UNL     1       5.573   4.353  14.916  0.00  0.00    +0.000 A 
ATOM      9  C   UNL     1       6.843   4.904  14.767  0.00  0.00    +0.000 A 
ATOM     10  C   UNL     1       7.483   4.804  13.525  0.00  0.00    +0.000 A 
ATOM     11  C   UNL     1       6.861   4.170  12.448  0.00  0.00    +0.000 A 
ENDBRANCH   3   9
ENDBRANCH   1   3
BRANCH   1  12
ATOM     12  O   UNL     1       6.559   4.995  17.857  0.00  0.00    +0.000 OA
BRANCH  12  13
ATOM     13  C   UNL     1       6.173   5.361  19.204  0.00  0.00    +0.000 C 
BRANCH  13  14
ATOM     14  C   UNL     1       4.668   5.580  19.301  0.00  0.00    +0.000 C 
BRANCH  14  15
ATOM     15  C   UNL     1       3.954   4.347  18.803  0.00  0.00    +0.000 A 
ATOM     16  C   UNL     1       3.084   4.420  17.717  0.00  0.00    +0.000 A 
ATOM     17  C   UNL     1       2.535   3.244  17.213  0.00  0.00    +0.000 A 
ATOM     18  C   UNL     1       2.865   2.031  17.803  0.00  0.00    +0.000 A 
ATOM     19  C   UNL     1       3.735   2.045  18.880  0.00  0.00    +0.000 A 
ATOM     20  N   UNL     1       4.287   3.171  19.386  0.00  0.00    +0.000 NA
ENDBRANCH  14  15
ENDBRANCH  13  14
ENDBRANCH  12  13
ENDBRANCH   1  12
TORSDOF 6
ENDMDL
MODEL 3
REMARK VINA RESULT:      -7.0      4.488      6.099
REMARK  Name = 
REMARK  7 active torsions:
REMARK  status: ('A' for Active; 'I' for Inactive)
REMARK    1  A    between atoms: C_1  and  C_2
REMARK    2  A    between atoms: C_5  and  N_6
REMARK    3  A    between atoms: N_6  and  C_7
REMARK    4  A    between atoms: C_7  and  O_9
REMARK    5  A    between atoms: O_9  and  C_10
REMARK    6  A    between atoms: C_10  and  C_11
REMARK    7  A    between atoms: C_11  and  C_12
REMARK                            x       y       z     vdW  Elec       q    Type
REMARK                         _______ _______ _______ _____ _____    ______ ____
ROOT
ATOM      1  C   UNL     1       2.594   4.008  19.893  0.00  0.00    +0.000 C 
ATOM      2  S   UNL     1       1.484   3.522  21.044  0.00  0.00    +0.000 S 
ENDROOT
BRANCH   1   3
ATOM      3  N   UNL     1       3.162   5.248  20.005  0.00  0.00    +0.000 N 
ATOM      4  H   UNL     1       4.118   5.213  20.337  0.00  0.00    +0.000 HD
BRANCH   3   9
ATOM      5  C   UNL     1       1.048  10.316  18.405  0.00  0.00    +0.000 C 
ATOM      6  C   UNL     1       1.612   9.002  18.855  0.00  0.00    +0.000 A 
ATOM      7  C   UNL     1       1.407   8.540  20.160  0.00  0.00    +0.000 A 
ATOM      8  C   UNL     1       1.935   7.312  20.575  0.00  0.00    +0.000 A 
ATOM      9  C   UNL     1       2.666   6.525  19.690  0.00  0.00    +0.000 A 
ATOM     10  C   UNL     1       2.868   6.983  18.382  0.00  0.00    +0.000 A 
ATOM     11  C   UNL     1       2.353   8.213  17.968  0.00  0.00    +0.000 A 
ENDBRANCH   3   9
ENDBRANCH   1   3
BRANCH   1  12
ATOM     12  O   UNL     1       2.937   3.262  18.805  0.00  0.00    +0.000 OA
BRANCH  12  13
ATOM     13  C   UNL     1       4.334   3.095  18.462  0.00  0.00    +0.000 C 
BRANCH  13  14
ATOM     14  C   UNL     1       4.704   3.943  17.251  0.00  0.00    +0.000 C 
BRANCH  14  15
ATOM     15  C   UNL     1       5.846   4.860  17.617  0.00  0.00    +0.000 A 
ATOM     16  C   UNL     1       6.315   5.808  16.709  0.00  0.00    +0.000 A 
ATOM     17  C   UNL     1       7.289   6.712  17.123  0.00  0.00    +0.000 A 
ATOM     18  C   UNL     1       7.769   6.648  18.425  0.00  0.00    +0.000 A 
ATOM     19  C   UNL     1       7.252   5.676  19.264  0.00  0.00    +0.000 A 
ATOM     20  N   UNL     1       6.303   4.788  18.890  0.00  0.00    +0.000 NA
ENDBRANCH  14  15
ENDBRANCH  13  14
ENDBRANCH  12  13
ENDBRANCH   1  12
TORSDOF 6
ENDMDL
MODEL 4
REMARK VINA RESULT:      -6.9      4.475      7.697
REMARK  Name = 
REMARK  7 active torsions:
REMARK  status: ('A' for Active; 'I' for Inactive)
REMARK    1  A    between atoms: C_1  and  C_2
REMARK    2  A    between atoms: C_5  and  N_6
REMARK    3  A    between atoms: N_6  and  C_7
REMARK    4  A    between atoms: C_7  and  O_9
REMARK    5  A    between atoms: O_9  and  C_10
REMARK    6  A    between atoms: C_10  and  C_11
REMARK    7  A    between atoms: C_11  and  C_12
REMARK                            x       y       z     vdW  Elec       q    Type
REMARK                         _______ _______ _______ _____ _____    ______ ____
ROOT
ATOM      1  C   UNL     1       6.679   6.033  17.244  0.00  0.00    +0.000 C 
ATOM      2  S   UNL     1       7.590   5.593  18.574  0.00  0.00    +0.000 S 
ENDROOT
BRANCH   1   3
ATOM      3  N   UNL     1       7.232   5.919  15.998  0.00  0.00    +0.000 N 
ATOM      4  H   UNL     1       8.057   6.495  15.881  0.00  0.00    +0.000 HD
BRANCH   3   9
ATOM      5  C   UNL     1       5.478   2.710  11.600  0.00  0.00    +0.000 C 
ATOM      6  C   UNL     1       5.971   3.542  12.745  0.00  0.00    +0.000 A 
ATOM      7  C   UNL     1       7.111   4.344  12.615  0.00  0.00    +0.000 A 
ATOM      8  C   UNL     1       7.566   5.119  13.687  0.00  0.00    +0.000 A 
ATOM      9  C   UNL     1       6.884   5.112  14.902  0.00  0.00    +0.000 A 
ATOM     10  C   UNL     1       5.741   4.314  15.032  0.00  0.00    +0.000 A 
ATOM     11  C   UNL     1       5.290   3.530  13.969  0.00  0.00    +0.000 A 
ENDBRANCH   3   9
ENDBRANCH   1   3
BRANCH   1  12
ATOM     12  O   UNL     1       5.422   6.553  17.323  0.00  0.00    +0.000 OA
BRANCH  12  13
ATOM     13  C   UNL     1       4.506   6.065  18.334  0.00  0.00    +0.000 C 
BRANCH  13  14
ATOM     14  C   UNL     1       3.309   5.369  17.697  0.00  0.00    +0.000 C 
BRANCH  14  15
ATOM     15  C   UNL     1       2.488   4.707  18.776  0.00  0.00    +0.000 A 
ATOM     16  C   UNL     1       1.538   3.739  18.453  0.00  0.00    +0.000 A 
ATOM     17  C   UNL     1       0.884   3.068  19.483  0.00  0.00    +0.000 A 
ATOM     18  C   UNL     1       1.191   3.378  20.801  0.00  0.00    +0.000 A 
ATOM     19  C   UNL     1       2.144   4.354  21.037  0.00  0.00    +0.000 A 
ATOM     20  N   UNL     1       2.798   5.018  20.058  0.00  0.00    +0.000 NA
ENDBRANCH  14  15
ENDBRANCH  13  14
ENDBRANCH  12  13
ENDBRANCH   1  12
TORSDOF 6
ENDMDL
MODEL 5
REMARK VINA RESULT:      -6.8      5.246      7.870
REMARK  Name = 
REMARK  7 active torsions:
REMARK  status: ('A' for Active; 'I' for Inactive)
REMARK    1  A    between atoms: C_1  and  C_2
REMARK    2  A    between atoms: C_5  and  N_6
REMARK    3  A    between atoms: N_6  and  C_7
REMARK    4  A    between atoms: C_7  and  O_9
REMARK    5  A    between atoms: O_9  and  C_10
REMARK    6  A    between atoms: C_10  and  C_11
REMARK    7  A    between atoms: C_11  and  C_12
REMARK                            x       y       z     vdW  Elec       q    Type
REMARK                         _______ _______ _______ _____ _____    ______ ____
ROOT
ATOM      1  C   UNL     1       4.894   6.131  16.909  0.00  0.00    +0.000 C 
ATOM      2  S   UNL     1       6.434   6.591  17.366  0.00  0.00    +0.000 S 
ENDROOT
BRANCH   1   3
ATOM      3  N   UNL     1       3.892   7.063  16.931  0.00  0.00    +0.000 N 
ATOM      4  H   UNL     1       3.738   7.496  16.028  0.00  0.00    +0.000 HD
BRANCH   3   9
ATOM      5  C   UNL     1       0.612   8.590  21.362  0.00  0.00    +0.000 C 
ATOM      6  C   UNL     1       1.447   8.201  20.179  0.00  0.00    +0.000 A 
ATOM      7  C   UNL     1       1.536   9.032  19.055  0.00  0.00    +0.000 A 
ATOM      8  C   UNL     1       2.317   8.664  17.955  0.00  0.00    +0.000 A 
ATOM      9  C   UNL     1       3.027   7.466  17.963  0.00  0.00    +0.000 A 
ATOM     10  C   UNL     1       2.942   6.636  19.087  0.00  0.00    +0.000 A 
ATOM     11  C   UNL     1       2.155   6.994  20.183  0.00  0.00    +0.000 A 
ENDBRANCH   3   9
ENDBRANCH   1   3
BRANCH   1  12
ATOM     12  O   UNL     1       4.554   4.858  16.559  0.00  0.00    +0.000 OA
BRANCH  12  13
ATOM     13  C   UNL     1       4.690   3.789  17.527  0.00  0.00    +0.000 C 
BRANCH  13  14
ATOM     14  C   UNL     1       3.458   2.893  17.529  0.00  0.00    +0.000 C 
BRANCH  14  15
ATOM     15  C   UNL     1       2.741   3.038  18.849  0.00  0.00    +0.000 A 
ATOM     16  C   UNL     1       1.387   3.363  18.890  0.00  0.00    +0.000 A 
ATOM     17  C   UNL     1       0.734   3.373  20.120  0.00  0.00    +0.000 A 
ATOM     18  C   UNL     1       1.445   3.062  21.271  0.00  0.00    +0.000 A 
ATOM     19  C   UNL     1       2.788   2.752  21.145  0.00  0.00    +0.000 A 
ATOM     20  N   UNL     1       3.446   2.730  19.964  0.00  0.00    +0.000 NA
ENDBRANCH  14  15
ENDBRANCH  13  14
ENDBRANCH  12  13
ENDBRANCH   1  12
TORSDOF 6
ENDMDL
MODEL 6
REMARK VINA RESULT:      -6.8      4.093      6.926
REMARK  Name = 
REMARK  7 active torsions:
REMARK  status: ('A' for Active; 'I' for Inactive)
REMARK    1  A    between atoms: C_1  and  C_2
REMARK    2  A    between atoms: C_5  and  N_6
REMARK    3  A    between atoms: N_6  and  C_7
REMARK    4  A    between atoms: C_7  and  O_9
REMARK    5  A    between atoms: O_9  and  C_10
REMARK    6  A    between atoms: C_10  and  C_11
REMARK    7  A    between atoms: C_11  and  C_12
REMARK                            x       y       z     vdW  Elec       q    Type
REMARK                         _______ _______ _______ _____ _____    ______ ____
ROOT
ATOM      1  C   UNL     1       3.145   3.344  17.906  0.00  0.00    +0.000 C 
ATOM      2  S   UNL     1       2.888   1.786  18.452  0.00  0.00    +0.000 S 
ENDROOT
BRANCH   1   3
ATOM      3  N   UNL     1       4.333   3.642  17.295  0.00  0.00    +0.000 N 
ATOM      4  H   UNL     1       4.634   2.921  16.650  0.00  0.00    +0.000 HD
BRANCH   3   9
ATOM      5  C   UNL     1       7.944   8.063  17.654  0.00  0.00    +0.000 C 
ATOM      6  C   UNL     1       6.971   6.927  17.556  0.00  0.00    +0.000 A 
ATOM      7  C   UNL     1       5.937   6.943  16.612  0.00  0.00    +0.000 A 
ATOM      8  C   UNL     1       5.033   5.879  16.524  0.00  0.00    +0.000 A 
ATOM      9  C   UNL     1       5.152   4.781  17.372  0.00  0.00    +0.000 A 
ATOM     10  C   UNL     1       6.188   4.761  18.314  0.00  0.00    +0.000 A 
ATOM     11  C   UNL     1       7.086   5.825  18.412  0.00  0.00    +0.000 A 
ENDBRANCH   3   9
ENDBRANCH   1   3
BRANCH   1  12
ATOM     12  O   UNL     1       2.259   4.365  18.078  0.00  0.00    +0.000 OA
BRANCH  12  13
ATOM     13  C   UNL     1       1.990   4.864  19.411  0.00  0.00    +0.000 C 
BRANCH  13  14
ATOM     14  C   UNL     1       2.980   5.957  19.795  0.00  0.00    +0.000 C 
BRANCH  14  15
ATOM     15  C   UNL     1       2.397   7.302  19.440  0.00  0.00    +0.000 A 
ATOM     16  C   UNL     1       2.549   7.826  18.157  0.00  0.00    +0.000 A 
ATOM     17  C   UNL     1       1.898   9.014  17.834  0.00  0.00    +0.000 A 
ATOM     18  C   UNL     1       1.118   9.646  18.793  0.00  0.00    +0.000 A 
ATOM     19  C   UNL     1       1.021   9.062  20.044  0.00  0.00    +0.000 A 
ATOM     20  N   UNL     1       1.637   7.908  20.384  0.00  0.00    +0.000 NA
ENDBRANCH  14  15
ENDBRANCH  13  14
ENDBRANCH  12  13
ENDBRANCH   1  12
TORSDOF 6
ENDMDL
MODEL 7
REMARK VINA RESULT:      -6.7      5.495      7.954
REMARK  Name = 
REMARK  7 active torsions:
REMARK  status: ('A' for Active; 'I' for Inactive)
REMARK    1  A    between atoms: C_1  and  C_2
REMARK    2  A    between atoms: C_5  and  N_6
REMARK    3  A    between atoms: N_6  and  C_7
REMARK    4  A    between atoms: C_7  and  O_9
REMARK    5  A    between atoms: O_9  and  C_10
REMARK    6  A    between atoms: C_10  and  C_11
REMARK    7  A    between atoms: C_11  and  C_12
REMARK                            x       y       z     vdW  Elec       q    Type
REMARK                         _______ _______ _______ _____ _____    ______ ____
ROOT
ATOM      1  C   UNL     1       5.123   4.858  16.203  0.00  0.00    +0.000 C 
ATOM      2  S   UNL     1       6.512   4.584  15.317  0.00  0.00    +0.000 S 
ENDROOT
BRANCH   1   3
ATOM      3  N   UNL     1       4.977   6.055  16.850  0.00  0.00    +0.000 N 
ATOM      4  H   UNL     1       5.680   6.734  16.582  0.00  0.00    +0.000 HD
BRANCH   3   9
ATOM      5  C   UNL     1       1.242   7.821  20.806  0.00  0.00    +0.000 C 
ATOM      6  C   UNL     1       2.197   7.364  19.744  0.00  0.00    +0.000 A 
ATOM      7  C   UNL     1       2.301   8.047  18.526  0.00  0.00    +0.000 A 
ATOM      8  C   UNL     1       3.194   7.616  17.540  0.00  0.00    +0.000 A 
ATOM      9  C   UNL     1       4.002   6.503  17.758  0.00  0.00    +0.000 A 
ATOM     10  C   UNL     1       3.903   5.822  18.977  0.00  0.00    +0.000 A 
ATOM     11  C   UNL     1       3.004   6.241  19.960  0.00  0.00    +0.000 A 
ENDBRANCH   3   9
ENDBRANCH   1   3
BRANCH   1  12
ATOM     12  O   UNL     1       4.134   3.935  16.370  0.00  0.00    +0.000 OA
BRANCH  12  13
ATOM     13  C   UNL     1       4.319   2.849  17.310  0.00  0.00    +0.000 C 
BRANCH  13  14
ATOM     14  C   UNL     1       2.996   2.153  17.610  0.00  0.00    +0.000 C 
BRANCH  14  15
ATOM     15  C   UNL     1       2.502   2.590  18.967  0.00  0.00    +0.000 A 
ATOM     16  C   UNL     1       1.204   3.072  19.129  0.00  0.00    +0.000 A 
ATOM     17  C   UNL     1       0.746   3.354  20.414  0.00  0.00    +0.000 A 
ATOM     18  C   UNL     1       1.591   3.152  21.497  0.00  0.00    +0.000 A 
ATOM     19  C   UNL     1       2.866   2.674  21.251  0.00  0.00    +0.000 A 
ATOM     20  N   UNL     1       3.335   2.386  20.015  0.00  0.00    +0.000 NA
ENDBRANCH  14  15
ENDBRANCH  13  14
ENDBRANCH  12  13
ENDBRANCH   1  12
TORSDOF 6
ENDMDL
MODEL 8
REMARK VINA RESULT:      -6.7      4.582      7.600
REMARK  Name = 
REMARK  7 active torsions:
REMARK  status: ('A' for Active; 'I' for Inactive)
REMARK    1  A    between atoms: C_1  and  C_2
REMARK    2  A    between atoms: C_5  and  N_6
REMARK    3  A    between atoms: N_6  and  C_7
REMARK    4  A    between atoms: C_7  and  O_9
REMARK    5  A    between atoms: O_9  and  C_10
REMARK    6  A    between atoms: C_10  and  C_11
REMARK    7  A    between atoms: C_11  and  C_12
REMARK                            x       y       z     vdW  Elec       q    Type
REMARK                         _______ _______ _______ _____ _____    ______ ____
ROOT
ATOM      1  C   UNL     1       6.963   5.780  16.853  0.00  0.00    +0.000 C 
ATOM      2  S   UNL     1       7.685   4.680  17.882  0.00  0.00    +0.000 S 
ENDROOT
BRANCH   1   3
ATOM      3  N   UNL     1       7.312   5.774  15.530  0.00  0.00    +0.000 N 
ATOM      4  H   UNL     1       8.028   6.456  15.310  0.00  0.00    +0.000 HD
BRANCH   3   9
ATOM      5  C   UNL     1       5.268   2.560  11.263  0.00  0.00    +0.000 C 
ATOM      6  C   UNL     1       5.836   3.391  12.374  0.00  0.00    +0.000 A 
ATOM      7  C   UNL     1       7.037   4.091  12.209  0.00  0.00    +0.000 A 
ATOM      8  C   UNL     1       7.562   4.865  13.249  0.00  0.00    +0.000 A 
ATOM      9  C   UNL     1       6.891   4.958  14.466  0.00  0.00    +0.000 A 
ATOM     10  C   UNL     1       5.687   4.262  14.631  0.00  0.00    +0.000 A 
ATOM     11  C   UNL     1       5.166   3.479  13.600  0.00  0.00    +0.000 A 
ENDBRANCH   3   9
ENDBRANCH   1   3
BRANCH   1  12
ATOM     12  O   UNL     1       6.075   6.732  17.259  0.00  0.00    +0.000 OA
BRANCH  12  13
ATOM     13  C   UNL     1       4.950   6.353  18.089  0.00  0.00    +0.000 C 
BRANCH  13  14
ATOM     14  C   UNL     1       3.726   6.033  17.238  0.00  0.00    +0.000 C 
BRANCH  14  15
ATOM     15  C   UNL     1       3.030   4.821  17.807  0.00  0.00    +0.000 A 
ATOM     16  C   UNL     1       3.166   3.574  17.199  0.00  0.00    +0.000 A 
ATOM     17  C   UNL     1       2.605   2.459  17.818  0.00  0.00    +0.000 A 
ATOM     18  C   UNL     1       1.925   2.617  19.018  0.00  0.00    +0.000 A 
ATOM     19  C   UNL     1       1.833   3.890  19.554  0.00  0.00    +0.000 A 
ATOM     20  N   UNL     1       2.372   4.988  18.979  0.00  0.00    +0.000 NA
ENDBRANCH  14  15
ENDBRANCH  13  14
ENDBRANCH  12  13
ENDBRANCH   1  12
TORSDOF 6
ENDMDL
MODEL 9
REMARK VINA RESULT:      -6.7      5.354      8.011
REMARK  Name = 
REMARK  7 active torsions:
REMARK  status: ('A' for Active; 'I' for Inactive)
REMARK    1  A    between atoms: C_1  and  C_2
REMARK    2  A    between atoms: C_5  and  N_6
REMARK    3  A    between atoms: N_6  and  C_7
REMARK    4  A    between atoms: C_7  and  O_9
REMARK    5  A    between atoms: O_9  and  C_10
REMARK    6  A    between atoms: C_10  and  C_11
REMARK    7  A    between atoms: C_11  and  C_12
REMARK                            x       y       z     vdW  Elec       q    Type
REMARK                         _______ _______ _______ _____ _____    ______ ____
ROOT
ATOM      1  C   UNL     1       5.455   4.831  17.293  0.00  0.00    +0.000 C 
ATOM      2  S   UNL     1       6.833   5.612  16.761  0.00  0.00    +0.000 S 
ENDROOT
BRANCH   1   3
ATOM      3  N   UNL     1       4.795   5.326  18.385  0.00  0.00    +0.000 N 
ATOM      4  H   UNL     1       5.112   4.916  19.255  0.00  0.00    +0.000 HD
BRANCH   3   9
ATOM      5  C   UNL     1       0.879   9.416  19.188  0.00  0.00    +0.000 C 
ATOM      6  C   UNL     1       1.897   8.343  18.943  0.00  0.00    +0.000 A 
ATOM      7  C   UNL     1       2.713   8.371  17.807  0.00  0.00    +0.000 A 
ATOM      8  C   UNL     1       3.662   7.367  17.584  0.00  0.00    +0.000 A 
ATOM      9  C   UNL     1       3.815   6.327  18.497  0.00  0.00    +0.000 A 
ATOM     10  C   UNL     1       3.002   6.300  19.637  0.00  0.00    +0.000 A 
ATOM     11  C   UNL     1       2.046   7.293  19.857  0.00  0.00    +0.000 A 
ENDBRANCH   3   9
ENDBRANCH   1   3
BRANCH   1  12
ATOM     12  O   UNL     1       4.968   3.686  16.736  0.00  0.00    +0.000 OA
BRANCH  12  13
ATOM     13  C   UNL     1       3.574   3.337  16.919  0.00  0.00    +0.000 C 
BRANCH  13  14
ATOM     14  C   UNL     1       3.428   2.145  17.857  0.00  0.00    +0.000 C 
BRANCH  14  15
ATOM     15  C   UNL     1       2.712   2.586  19.111  0.00  0.00    +0.000 A 
ATOM     16  C   UNL     1       1.388   3.018  19.058  0.00  0.00    +0.000 A 
ATOM     17  C   UNL     1       0.725   3.305  20.249  0.00  0.00    +0.000 A 
ATOM     18  C   UNL     1       1.397   3.155  21.455  0.00  0.00    +0.000 A 
ATOM     19  C   UNL     1       2.712   2.724  21.421  0.00  0.00    +0.000 A 
ATOM     20  N   UNL     1       3.378   2.434  20.281  0.00  0.00    +0.000 NA
ENDBRANCH  14  15
ENDBRANCH  13  14
ENDBRANCH  12  13
ENDBRANCH   1  12
TORSDOF 6
ENDMDL
