MODEL 1
REMARK VINA RESULT:      -8.3      0.000      0.000
REMARK  Name = 
REMARK  5 active torsions:
REMARK  status: ('A' for Active; 'I' for Inactive)
REMARK    1  A    between atoms: C_1  and  C_2
REMARK    2  A    between atoms: C_4  and  C_5
REMARK    3  A    between atoms: C_7  and  C_8
REMARK    4  A    between atoms: C_8  and  O_9
REMARK    5  A    between atoms: C_13  and  O_14
REMARK                            x       y       z     vdW  Elec       q    Type
REMARK                         _______ _______ _______ _____ _____    ______ ____
ROOT
ATOM      1  C   UNL     1       4.445   5.371  17.707  0.00  0.00    +0.000 A 
ATOM      2  O   UNL     1       4.931   5.213  16.409  0.00  0.00    +0.000 OA
ATOM      3  C   UNL     1       6.280   4.979  16.201  0.00  0.00    +0.000 A 
ATOM      4  C   UNL     1       7.170   4.928  17.203  0.00  0.00    +0.000 A 
ATOM      5  C   UNL     1       6.701   5.147  18.575  0.00  0.00    +0.000 A 
ATOM      6  O   UNL     1       7.461   5.131  19.538  0.00  0.00    +0.000 OA
ATOM      7  C   UNL     1       5.249   5.362  18.780  0.00  0.00    +0.000 A 
ENDROOT
BRANCH   1  11
ATOM      8  C   UNL     1       1.833   8.133  20.465  0.00  0.00    +0.000 C 
ATOM      9  C   UNL     1       2.022   6.862  19.697  0.00  0.00    +0.000 C 
ATOM     10  C   UNL     1       2.621   6.824  18.494  0.00  0.00    +0.000 C 
ATOM     11  C   UNL     1       2.934   5.528  17.793  0.00  0.00    +0.000 C 
ATOM     12  C   UNL     1       2.303   4.342  18.492  0.00  0.00    +0.000 A 
ATOM     13  C   UNL     1       2.363   3.057  17.927  0.00  0.00    +0.000 A 
ATOM     14  C   UNL     1       1.861   1.957  18.620  0.00  0.00    +0.000 A 
ATOM     15  C   UNL     1       1.277   2.130  19.874  0.00  0.00    +0.000 A 
ATOM     16  C   UNL     1       1.183   3.406  20.428  0.00  0.00    +0.000 A 
ATOM     17  C   UNL     1       1.692   4.508  19.740  0.00  0.00    +0.000 A 
ATOM     18  O   UNL     1       1.578   5.732  20.360  0.00  0.00    +0.000 OA
ENDBRANCH   1  11
BRANCH   7  19
ATOM     19  O   UNL     1       4.794   5.520  20.075  0.00  0.00    +0.000 OA
ATOM     20  H   UNL     1       5.174   4.761  20.570  0.00  0.00    +0.000 HD
ENDBRANCH   7  19
BRANCH   3  21
ATOM     21  C   UNL     1       6.658   4.751  14.767  0.00  0.00    +0.000 C 
BRANCH  21  22
ATOM     22  O   UNL     1       7.817   5.506  14.441  0.00  0.00    +0.000 OA
ATOM     23  H   UNL     1       7.561   6.444  14.485  0.00  0.00    +0.000 HD
ENDBRANCH  21  22
ENDBRANCH   3  21
TORSDOF 4
ENDMDL
MODEL 2
REMARK VINA RESULT:      -8.1      1.823      5.544
REMARK  Name = 
REMARK  5 active torsions:
REMARK  status: ('A' for Active; 'I' for Inactive)
REMARK    1  A    between atoms: C_1  and  C_2
REMARK    2  A    between atoms: C_4  and  C_5
REMARK    3  A    between atoms: C_7  and  C_8
REMARK    4  A    between atoms: C_8  and  O_9
REMARK    5  A    between atoms: C_13  and  O_14
REMARK                            x       y       z     vdW  Elec       q    Type
REMARK                         _______ _______ _______ _____ _____    ______ ____
ROOT
ATOM      1  C   UNL     1       4.985   4.725  18.705  0.00  0.00    +0.000 A 
ATOM      2  O   UNL     1       4.342   5.930  18.423  0.00  0.00    +0.000 OA
ATOM      3  C   UNL     1       3.064   6.160  18.903  0.00  0.00    +0.000 A 
ATOM      4  C   UNL     1       2.382   5.250  19.614  0.00  0.00    +0.000 A 
ATOM      5  C   UNL     1       3.006   3.949  19.879  0.00  0.00    +0.000 A 
ATOM      6  O   UNL     1       2.436   3.063  20.507  0.00  0.00    +0.000 OA
ATOM      7  C   UNL     1       4.388   3.736  19.386  0.00  0.00    +0.000 A 
ENDROOT
BRANCH   1  11
ATOM      8  C   UNL     1       8.271   8.062  18.367  0.00  0.00    +0.000 C 
ATOM      9  C   UNL     1       7.642   6.799  17.871  0.00  0.00    +0.000 C 
ATOM     10  C   UNL     1       7.175   5.847  18.699  0.00  0.00    +0.000 C 
ATOM     11  C   UNL     1       6.416   4.647  18.196  0.00  0.00    +0.000 C 
ATOM     12  C   UNL     1       6.453   4.548  16.686  0.00  0.00    +0.000 A 
ATOM     13  C   UNL     1       5.919   3.430  16.024  0.00  0.00    +0.000 A 
ATOM     14  C   UNL     1       5.873   3.389  14.631  0.00  0.00    +0.000 A 
ATOM     15  C   UNL     1       6.376   4.454  13.886  0.00  0.00    +0.000 A 
ATOM     16  C   UNL     1       6.939   5.553  14.533  0.00  0.00    +0.000 A 
ATOM     17  C   UNL     1       6.978   5.599  15.927  0.00  0.00    +0.000 A 
ATOM     18  O   UNL     1       7.533   6.726  16.494  0.00  0.00    +0.000 OA
ENDBRANCH   1  11
BRANCH   7  19
ATOM     19  O   UNL     1       5.000   2.531  19.675  0.00  0.00    +0.000 OA
ATOM     20  H   UNL     1       5.363   2.221  18.816  0.00  0.00    +0.000 HD
ENDBRANCH   7  19
BRANCH   3  21
ATOM     21  C   UNL     1       2.518   7.523  18.595  0.00  0.00    +0.000 C 
BRANCH  21  22
ATOM     22  O   UNL     1       1.871   8.062  19.740  0.00  0.00    +0.000 OA
ATOM     23  H   UNL     1       1.949   7.394  20.445  0.00  0.00    +0.000 HD
ENDBRANCH  21  22
ENDBRANCH   3  21
TORSDOF 4
ENDMDL
MODEL 3
REMARK VINA RESULT:      -8.0      0.980      2.561
REMARK  Name = 
REMARK  5 active torsions:
REMARK  status: ('A' for Active; 'I' for Inactive)
REMARK    1  A    between atoms: C_1  and  C_2
REMARK    2  A    between atoms: C_4  and  C_5
REMARK    3  A    between atoms: C_7  and  C_8
REMARK    4  A    between atoms: C_8  and  O_9
REMARK    5  A    between atoms: C_13  and  O_14
REMARK                            x       y       z     vdW  Elec       q    Type
REMARK                         _______ _______ _______ _____ _____    ______ ____
ROOT
ATOM      1  C   UNL     1       4.796   5.717  17.516  0.00  0.00    +0.000 A 
ATOM      2  O   UNL     1       5.402   5.535  18.759  0.00  0.00    +0.000 OA
ATOM      3  C   UNL     1       6.783   5.536  18.861  0.00  0.00    +0.000 A 
ATOM      4  C   UNL     1       7.588   5.674  17.797  0.00  0.00    +0.000 A 
ATOM      5  C   UNL     1       6.984   5.810  16.468  0.00  0.00    +0.000 A 
ATOM      6  O   UNL     1       7.658   5.923  15.449  0.00  0.00    +0.000 OA
ATOM      7  C   UNL     1       5.504   5.841  16.384  0.00  0.00    +0.000 A 
ENDROOT
BRANCH   1  11
ATOM      8  C   UNL     1       1.959   7.922  20.541  0.00  0.00    +0.000 C 
ATOM      9  C   UNL     1       2.238   6.786  19.606  0.00  0.00    +0.000 C 
ATOM     10  C   UNL     1       2.874   6.952  18.434  0.00  0.00    +0.000 C 
ATOM     11  C   UNL     1       3.277   5.788  17.567  0.00  0.00    +0.000 C 
ATOM     12  C   UNL     1       2.688   4.485  18.063  0.00  0.00    +0.000 A 
ATOM     13  C   UNL     1       2.832   3.300  17.322  0.00  0.00    +0.000 A 
ATOM     14  C   UNL     1       2.368   2.087  17.831  0.00  0.00    +0.000 A 
ATOM     15  C   UNL     1       1.738   2.049  19.074  0.00  0.00    +0.000 A 
ATOM     16  C   UNL     1       1.559   3.225  19.801  0.00  0.00    +0.000 A 
ATOM     17  C   UNL     1       2.031   4.438  19.298  0.00  0.00    +0.000 A 
ATOM     18  O   UNL     1       1.834   5.552  20.083  0.00  0.00    +0.000 OA
ENDBRANCH   1  11
BRANCH   7  19
ATOM     19  O   UNL     1       4.929   6.018  15.141  0.00  0.00    +0.000 OA
ATOM     20  H   UNL     1       4.742   6.981  15.085  0.00  0.00    +0.000 HD
ENDBRANCH   7  19
BRANCH   3  21
ATOM     21  C   UNL     1       7.304   5.408  20.262  0.00  0.00    +0.000 C 
BRANCH  21  22
ATOM     22  O   UNL     1       8.718   5.264  20.247  0.00  0.00    +0.000 OA
ATOM     23  H   UNL     1       9.011   5.475  19.342  0.00  0.00    +0.000 HD
ENDBRANCH  21  22
ENDBRANCH   3  21
TORSDOF 4
ENDMDL
MODEL 4
REMARK VINA RESULT:      -7.9      1.224      2.689
REMARK  Name = 
REMARK  5 active torsions:
REMARK  status: ('A' for Active; 'I' for Inactive)
REMARK    1  A    between atoms: C_1  and  C_2
REMARK    2  A    between atoms: C_4  and  C_5
REMARK    3  A    between atoms: C_7  and  C_8
REMARK    4  A    between atoms: C_8  and  O_9
REMARK    5  A    between atoms: C_13  and  O_14
REMARK                            x       y       z     vdW  Elec       q    Type
REMARK                         _______ _______ _______ _____ _____    ______ ____
ROOT
ATOM      1  C   UNL     1       4.858   5.000  17.526  0.00  0.00    +0.000 A 
ATOM      2  O   UNL     1       5.566   5.310  18.688  0.00  0.00    +0.000 OA
ATOM      3  C   UNL     1       6.949   5.380  18.655  0.00  0.00    +0.000 A 
ATOM      4  C   UNL     1       7.662   5.126  17.548  0.00  0.00    +0.000 A 
ATOM      5  C   UNL     1       6.951   4.741  16.324  0.00  0.00    +0.000 A 
ATOM      6  O   UNL     1       7.539   4.479  15.279  0.00  0.00    +0.000 OA
ATOM      7  C   UNL     1       5.470   4.706  16.370  0.00  0.00    +0.000 A 
ENDROOT
BRANCH   1  11
ATOM      8  C   UNL     1       2.051   8.568  18.729  0.00  0.00    +0.000 C 
ATOM      9  C   UNL     1       2.364   7.104  18.713  0.00  0.00    +0.000 C 
ATOM     10  C   UNL     1       2.902   6.490  17.645  0.00  0.00    +0.000 C 
ATOM     11  C   UNL     1       3.346   5.050  17.685  0.00  0.00    +0.000 C 
ATOM     12  C   UNL     1       2.909   4.361  18.960  0.00  0.00    +0.000 A 
ATOM     13  C   UNL     1       3.106   2.982  19.137  0.00  0.00    +0.000 A 
ATOM     14  C   UNL     1       2.786   2.372  20.350  0.00  0.00    +0.000 A 
ATOM     15  C   UNL     1       2.248   3.129  21.389  0.00  0.00    +0.000 A 
ATOM     16  C   UNL     1       2.017   4.493  21.211  0.00  0.00    +0.000 A 
ATOM     17  C   UNL     1       2.345   5.106  20.001  0.00  0.00    +0.000 A 
ATOM     18  O   UNL     1       2.104   6.459  19.908  0.00  0.00    +0.000 OA
ENDBRANCH   1  11
BRANCH   7  19
ATOM     19  O   UNL     1       4.793   4.391  15.207  0.00  0.00    +0.000 OA
ATOM     20  H   UNL     1       5.019   5.114  14.581  0.00  0.00    +0.000 HD
ENDBRANCH   7  19
BRANCH   3  21
ATOM     21  C   UNL     1       7.582   5.797  19.950  0.00  0.00    +0.000 C 
BRANCH  21  22
ATOM     22  O   UNL     1       8.767   5.048  20.179  0.00  0.00    +0.000 OA
ATOM     23  H   UNL     1       9.451   5.419  19.593  0.00  0.00    +0.000 HD
ENDBRANCH  21  22
ENDBRANCH   3  21
TORSDOF 4
ENDMDL
MODEL 5
REMARK VINA RESULT:      -7.8      1.794      5.792
REMARK  Name = 
REMARK  5 active torsions:
REMARK  status: ('A' for Active; 'I' for Inactive)
REMARK    1  A    between atoms: C_1  and  C_2
REMARK    2  A    between atoms: C_4  and  C_5
REMARK    3  A    between atoms: C_7  and  C_8
REMARK    4  A    between atoms: C_8  and  O_9
REMARK    5  A    between atoms: C_13  and  O_14
REMARK                            x       y       z     vdW  Elec       q    Type
REMARK                         _______ _______ _______ _____ _____    ______ ____
ROOT
ATOM      1  C   UNL     1       4.440   4.365  17.622  0.00  0.00    +0.000 A 
ATOM      2  O   UNL     1       4.059   5.703  17.719  0.00  0.00    +0.000 OA
ATOM      3  C   UNL     1       2.742   6.027  18.000  0.00  0.00    +0.000 A 
ATOM      4  C   UNL     1       1.785   5.100  18.155  0.00  0.00    +0.000 A 
ATOM      5  C   UNL     1       2.140   3.686  18.001  0.00  0.00    +0.000 A 
ATOM      6  O   UNL     1       1.314   2.786  18.112  0.00  0.00    +0.000 OA
ATOM      7  C   UNL     1       3.561   3.358  17.735  0.00  0.00    +0.000 A 
ENDROOT
BRANCH   1  11
ATOM      8  C   UNL     1       8.067   7.216  18.498  0.00  0.00    +0.000 C 
ATOM      9  C   UNL     1       7.426   6.135  17.686  0.00  0.00    +0.000 C 
ATOM     10  C   UNL     1       6.689   5.155  18.237  0.00  0.00    +0.000 C 
ATOM     11  C   UNL     1       5.931   4.154  17.403  0.00  0.00    +0.000 C 
ATOM     12  C   UNL     1       6.286   4.259  15.935  0.00  0.00    +0.000 A 
ATOM     13  C   UNL     1       5.791   3.330  15.005  0.00  0.00    +0.000 A 
ATOM     14  C   UNL     1       6.047   3.488  13.644  0.00  0.00    +0.000 A 
ATOM     15  C   UNL     1       6.814   4.563  13.199  0.00  0.00    +0.000 A 
ATOM     16  C   UNL     1       7.339   5.471  14.117  0.00  0.00    +0.000 A 
ATOM     17  C   UNL     1       7.077   5.320  15.479  0.00  0.00    +0.000 A 
ATOM     18  O   UNL     1       7.614   6.268  16.322  0.00  0.00    +0.000 OA
ENDBRANCH   1  11
BRANCH   7  19
ATOM     19  O   UNL     1       3.911   2.025  17.638  0.00  0.00    +0.000 OA
ATOM     20  H   UNL     1       3.901   1.694  18.563  0.00  0.00    +0.000 HD
ENDBRANCH   7  19
BRANCH   3  21
ATOM     21  C   UNL     1       2.482   7.496  18.154  0.00  0.00    +0.000 C 
BRANCH  21  22
ATOM     22  O   UNL     1       2.172   7.799  19.508  0.00  0.00    +0.000 OA
ATOM     23  H   UNL     1       3.009   7.754  20.003  0.00  0.00    +0.000 HD
ENDBRANCH  21  22
ENDBRANCH   3  21
TORSDOF 4
ENDMDL
MODEL 6
REMARK VINA RESULT:      -7.5      1.757      5.770
REMARK  Name = 
REMARK  5 active torsions:
REMARK  status: ('A' for Active; 'I' for Inactive)
REMARK    1  A    between atoms: C_1  and  C_2
REMARK    2  A    between atoms: C_4  and  C_5
REMARK    3  A    between atoms: C_7  and  C_8
REMARK    4  A    between atoms: C_8  and  O_9
REMARK    5  A    between atoms: C_13  and  O_14
REMARK                            x       y       z     vdW  Elec       q    Type
REMARK                         _______ _______ _______ _____ _____    ______ ____
ROOT
ATOM      1  C   UNL     1       4.796   4.984  18.721  0.00  0.00    +0.000 A 
ATOM      2  O   UNL     1       4.299   4.000  19.577  0.00  0.00    +0.000 OA
ATOM      3  C   UNL     1       2.975   4.041  19.981  0.00  0.00    +0.000 A 
ATOM      4  C   UNL     1       2.134   5.018  19.611  0.00  0.00    +0.000 A 
ATOM      5  C   UNL     1       2.640   6.099  18.758  0.00  0.00    +0.000 A 
ATOM      6  O   UNL     1       1.933   7.034  18.395  0.00  0.00    +0.000 OA
ATOM      7  C   UNL     1       4.050   6.019  18.309  0.00  0.00    +0.000 A 
ENDROOT
BRANCH   1  11
ATOM      8  C   UNL     1       8.366   8.017  18.391  0.00  0.00    +0.000 C 
ATOM      9  C   UNL     1       7.653   6.787  17.922  0.00  0.00    +0.000 C 
ATOM     10  C   UNL     1       7.072   5.919  18.769  0.00  0.00    +0.000 C 
ATOM     11  C   UNL     1       6.236   4.762  18.285  0.00  0.00    +0.000 C 
ATOM     12  C   UNL     1       6.330   4.587  16.785  0.00  0.00    +0.000 A 
ATOM     13  C   UNL     1       5.733   3.487  16.149  0.00  0.00    +0.000 A 
ATOM     14  C   UNL     1       5.744   3.382  14.758  0.00  0.00    +0.000 A 
ATOM     15  C   UNL     1       6.368   4.364  13.991  0.00  0.00    +0.000 A 
ATOM     16  C   UNL     1       6.994   5.443  14.615  0.00  0.00    +0.000 A 
ATOM     17  C   UNL     1       6.976   5.554  16.005  0.00  0.00    +0.000 A 
ATOM     18  O   UNL     1       7.599   6.657  16.546  0.00  0.00    +0.000 OA
ENDBRANCH   1  11
BRANCH   7  19
ATOM     19  O   UNL     1       4.518   7.008  17.466  0.00  0.00    +0.000 OA
ATOM     20  H   UNL     1       3.813   7.692  17.464  0.00  0.00    +0.000 HD
ENDBRANCH   7  19
BRANCH   3  21
ATOM     21  C   UNL     1       2.549   2.884  20.836  0.00  0.00    +0.000 C 
BRANCH  21  22
ATOM     22  O   UNL     1       2.225   3.335  22.144  0.00  0.00    +0.000 OA
ATOM     23  H   UNL     1       2.743   4.145  22.297  0.00  0.00    +0.000 HD
ENDBRANCH  21  22
ENDBRANCH   3  21
TORSDOF 4
ENDMDL
MODEL 7
REMARK VINA RESULT:      -7.4      1.829      5.692
REMARK  Name = 
REMARK  5 active torsions:
REMARK  status: ('A' for Active; 'I' for Inactive)
REMARK    1  A    between atoms: C_1  and  C_2
REMARK    2  A    between atoms: C_4  and  C_5
REMARK    3  A    between atoms: C_7  and  C_8
REMARK    4  A    between atoms: C_8  and  O_9
REMARK    5  A    between atoms: C_13  and  O_14
REMARK                            x       y       z     vdW  Elec       q    Type
REMARK                         _______ _______ _______ _____ _____    ______ ____
ROOT
ATOM      1  C   UNL     1       4.607   4.796  18.259  0.00  0.00    +0.000 A 
ATOM      2  O   UNL     1       3.965   3.710  18.854  0.00  0.00    +0.000 OA
ATOM      3  C   UNL     1       2.608   3.771  19.121  0.00  0.00    +0.000 A 
ATOM      4  C   UNL     1       1.866   4.858  18.862  0.00  0.00    +0.000 A 
ATOM      5  C   UNL     1       2.522   6.039  18.289  0.00  0.00    +0.000 A 
ATOM      6  O   UNL     1       1.910   7.073  18.042  0.00  0.00    +0.000 OA
ATOM      7  C   UNL     1       3.968   5.941  17.979  0.00  0.00    +0.000 A 
ENDROOT
BRANCH   1  11
ATOM      8  C   UNL     1       8.275   7.721  18.453  0.00  0.00    +0.000 C 
ATOM      9  C   UNL     1       7.574   6.549  17.841  0.00  0.00    +0.000 C 
ATOM     10  C   UNL     1       6.895   5.648  18.571  0.00  0.00    +0.000 C 
ATOM     11  C   UNL     1       6.074   4.555  17.938  0.00  0.00    +0.000 C 
ATOM     12  C   UNL     1       6.298   4.475  16.443  0.00  0.00    +0.000 A 
ATOM     13  C   UNL     1       5.731   3.439  15.683  0.00  0.00    +0.000 A 
ATOM     14  C   UNL     1       5.865   3.425  14.295  0.00  0.00    +0.000 A 
ATOM     15  C   UNL     1       6.583   4.434  13.655  0.00  0.00    +0.000 A 
ATOM     16  C   UNL     1       7.180   5.448  14.404  0.00  0.00    +0.000 A 
ATOM     17  C   UNL     1       7.039   5.468  15.792  0.00  0.00    +0.000 A 
ATOM     18  O   UNL     1       7.641   6.511  16.459  0.00  0.00    +0.000 OA
ENDBRANCH   1  11
BRANCH   7  19
ATOM     19  O   UNL     1       4.580   7.033  17.394  0.00  0.00    +0.000 OA
ATOM     20  H   UNL     1       3.989   7.285  16.652  0.00  0.00    +0.000 HD
ENDBRANCH   7  19
BRANCH   3  21
ATOM     21  C   UNL     1       2.027   2.510  19.690  0.00  0.00    +0.000 C 
BRANCH  21  22
ATOM     22  O   UNL     1       2.043   1.480  18.712  0.00  0.00    +0.000 OA
ATOM     23  H   UNL     1       2.665   0.801  19.030  0.00  0.00    +0.000 HD
ENDBRANCH  21  22
ENDBRANCH   3  21
TORSDOF 4
ENDMDL
MODEL 8
REMARK VINA RESULT:      -7.1      2.010      5.361
REMARK  Name = 
REMARK  5 active torsions:
REMARK  status: ('A' for Active; 'I' for Inactive)
REMARK    1  A    between atoms: C_1  and  C_2
REMARK    2  A    between atoms: C_4  and  C_5
REMARK    3  A    between atoms: C_7  and  C_8
REMARK    4  A    between atoms: C_8  and  O_9
REMARK    5  A    between atoms: C_13  and  O_14
REMARK                            x       y       z     vdW  Elec       q    Type
REMARK                         _______ _______ _______ _____ _____    ______ ____
ROOT
ATOM      1  C   UNL     1       2.716   6.729  19.688  0.00  0.00    +0.000 A 
ATOM      2  O   UNL     1       2.028   7.289  20.765  0.00  0.00    +0.000 OA
ATOM      3  C   UNL     1       1.297   8.452  20.588  0.00  0.00    +0.000 A 
ATOM      4  C   UNL     1       1.242   9.102  19.416  0.00  0.00    +0.000 A 
ATOM      5  C   UNL     1       2.000   8.572  18.279  0.00  0.00    +0.000 A 
ATOM      6  O   UNL     1       2.010   9.122  17.182  0.00  0.00    +0.000 OA
ATOM      7  C   UNL     1       2.748   7.308  18.479  0.00  0.00    +0.000 A 
ENDROOT
BRANCH   1  11
ATOM      8  C   UNL     1       6.403   4.655  17.650  0.00  0.00    +0.000 C 
ATOM      9  C   UNL     1       5.096   4.570  18.374  0.00  0.00    +0.000 C 
ATOM     10  C   UNL     1       4.767   5.404  19.376  0.00  0.00    +0.000 C 
ATOM     11  C   UNL     1       3.397   5.405  20.003  0.00  0.00    +0.000 C 
ATOM     12  C   UNL     1       2.559   4.237  19.529  0.00  0.00    +0.000 A 
ATOM     13  C   UNL     1       1.298   3.978  20.093  0.00  0.00    +0.000 A 
ATOM     14  C   UNL     1       0.495   2.957  19.587  0.00  0.00    +0.000 A 
ATOM     15  C   UNL     1       0.949   2.172  18.529  0.00  0.00    +0.000 A 
ATOM     16  C   UNL     1       2.213   2.398  17.986  0.00  0.00    +0.000 A 
ATOM     17  C   UNL     1       3.015   3.425  18.484  0.00  0.00    +0.000 A 
ATOM     18  O   UNL     1       4.242   3.598  17.883  0.00  0.00    +0.000 OA
ENDBRANCH   1  11
BRANCH   7  19
ATOM     19  O   UNL     1       3.425   6.777  17.398  0.00  0.00    +0.000 OA
ATOM     20  H   UNL     1       3.121   5.844  17.344  0.00  0.00    +0.000 HD
ENDBRANCH   7  19
BRANCH   3  21
ATOM     21  C   UNL     1       0.543   8.904  21.804  0.00  0.00    +0.000 C 
BRANCH  21  22
ATOM     22  O   UNL     1       1.413   9.595  22.690  0.00  0.00    +0.000 OA
ATOM     23  H   UNL     1       1.097   9.410  23.592  0.00  0.00    +0.000 HD
ENDBRANCH  21  22
ENDBRANCH   3  21
TORSDOF 4
ENDMDL
MODEL 9
REMARK VINA RESULT:      -6.9      1.972      4.837
REMARK  Name = 
REMARK  5 active torsions:
REMARK  status: ('A' for Active; 'I' for Inactive)
REMARK    1  A    between atoms: C_1  and  C_2
REMARK    2  A    between atoms: C_4  and  C_5
REMARK    3  A    between atoms: C_7  and  C_8
REMARK    4  A    between atoms: C_8  and  O_9
REMARK    5  A    between atoms: C_13  and  O_14
REMARK                            x       y       z     vdW  Elec       q    Type
REMARK                         _______ _______ _______ _____ _____    ______ ____
ROOT
ATOM      1  C   UNL     1       3.408   4.624  19.669  0.00  0.00    +0.000 A 
ATOM      2  O   UNL     1       3.730   3.598  18.780  0.00  0.00    +0.000 OA
ATOM      3  C   UNL     1       3.100   2.369  18.888  0.00  0.00    +0.000 A 
ATOM      4  C   UNL     1       2.201   2.096  19.845  0.00  0.00    +0.000 A 
ATOM      5  C   UNL     1       1.883   3.134  20.831  0.00  0.00    +0.000 A 
ATOM      6  O   UNL     1       1.083   2.950  21.743  0.00  0.00    +0.000 OA
ATOM      7  C   UNL     1       2.541   4.454  20.678  0.00  0.00    +0.000 A 
ENDROOT
BRANCH   1  11
ATOM      8  C   UNL     1       1.772   8.533  17.644  0.00  0.00    +0.000 C 
ATOM      9  C   UNL     1       2.896   7.588  17.935  0.00  0.00    +0.000 C 
ATOM     10  C   UNL     1       3.057   7.001  19.134  0.00  0.00    +0.000 C 
ATOM     11  C   UNL     1       4.104   5.945  19.377  0.00  0.00    +0.000 C 
ATOM     12  C   UNL     1       5.053   5.812  18.205  0.00  0.00    +0.000 A 
ATOM     13  C   UNL     1       6.181   4.977  18.282  0.00  0.00    +0.000 A 
ATOM     14  C   UNL     1       6.998   4.789  17.168  0.00  0.00    +0.000 A 
ATOM     15  C   UNL     1       6.709   5.446  15.973  0.00  0.00    +0.000 A 
ATOM     16  C   UNL     1       5.612   6.303  15.897  0.00  0.00    +0.000 A 
ATOM     17  C   UNL     1       4.788   6.486  17.008  0.00  0.00    +0.000 A 
ATOM     18  O   UNL     1       3.714   7.334  16.849  0.00  0.00    +0.000 OA
ENDBRANCH   1  11
BRANCH   7  19
ATOM     19  O   UNL     1       2.209   5.451  21.575  0.00  0.00    +0.000 OA
ATOM     20  H   UNL     1       1.994   4.978  22.409  0.00  0.00    +0.000 HD
ENDBRANCH   7  19
BRANCH   3  21
ATOM     21  C   UNL     1       3.479   1.381  17.825  0.00  0.00    +0.000 C 
BRANCH  21  22
ATOM     22  O   UNL     1       4.457   0.478  18.322  0.00  0.00    +0.000 OA
ATOM     23  H   UNL     1       4.089  -0.418  18.220  0.00  0.00    +0.000 HD
ENDBRANCH  21  22
ENDBRANCH   3  21
TORSDOF 4
ENDMDL
