MODEL 1
REMARK VINA RESULT:      -7.8      0.000      0.000
REMARK  Name = 
REMARK  7 active torsions:
REMARK  status: ('A' for Active; 'I' for Inactive)
REMARK    1  A    between atoms: C_1  and  C_2
REMARK    2  A    between atoms: C_2  and  S_3
REMARK    3  A    between atoms: S_3  and  N_6
REMARK    4  A    between atoms: C_10  and  C_11
REMARK    5  A    between atoms: C_13  and  C_14
REMARK    6  A    between atoms: C_18  and  O_19
REMARK    7  A    between atoms: O_19  and  C_20
REMARK                            x       y       z     vdW  Elec       q    Type
REMARK                         _______ _______ _______ _____ _____    ______ ____
ROOT
ATOM      1  C   UNL     1       2.661   7.437  18.090  0.00  0.00    +0.000 A 
ATOM      2  N   UNL     1       1.874   7.892  19.032  0.00  0.00    +0.000 NA
ATOM      3  C   UNL     1       1.574   9.163  18.592  0.00  0.00    +0.000 A 
ATOM      4  N   UNL     1       2.148   9.474  17.416  0.00  0.00    +0.000 NA
ATOM      5  O   UNL     1       2.873   8.329  17.083  0.00  0.00    +0.000 OA
ENDROOT
BRANCH   1  10
ATOM      6  N   UNL     1       5.619   5.186  17.370  0.00  0.00    +0.000 NA
ATOM      7  C   UNL     1       5.831   4.658  18.759  0.00  0.00    +0.000 C 
ATOM      8  C   UNL     1       4.491   4.353  19.422  0.00  0.00    +0.000 C 
ATOM      9  C   UNL     1       3.594   5.586  19.457  0.00  0.00    +0.000 C 
ATOM     10  C   UNL     1       3.409   6.156  18.049  0.00  0.00    +0.000 C 
ATOM     11  C   UNL     1       4.769   6.418  17.391  0.00  0.00    +0.000 C 
BRANCH   6  12
ATOM     12  S   UNL     1       7.125   5.398  16.554  0.00  0.00    +0.000 S 
ATOM     13  O   UNL     1       8.006   4.343  17.008  0.00  0.00    +0.000 OA
ATOM     14  O   UNL     1       7.490   6.792  16.697  0.00  0.00    +0.000 OA
BRANCH  12  16
ATOM     15  C   UNL     1       5.983   3.754  14.686  0.00  0.00    +0.000 C 
ATOM     16  C   UNL     1       6.696   5.083  14.841  0.00  0.00    +0.000 C 
ENDBRANCH  12  16
ENDBRANCH   6  12
ENDBRANCH   1  10
BRANCH   3  17
ATOM     17  C   UNL     1       0.747  10.067  19.380  0.00  0.00    +0.000 A 
ATOM     18  C   UNL     1      -0.016  11.071  18.769  0.00  0.00    +0.000 A 
ATOM     19  C   UNL     1      -0.781  11.941  19.544  0.00  0.00    +0.000 A 
ATOM     20  C   UNL     1      -0.787  11.815  20.933  0.00  0.00    +0.000 A 
ATOM     21  C   UNL     1      -0.035  10.822  21.560  0.00  0.00    +0.000 A 
ATOM     22  C   UNL     1       0.725   9.949  20.783  0.00  0.00    +0.000 A 
BRANCH  21  23
ATOM     23  O   UNL     1      -0.119  10.815  22.926  0.00  0.00    +0.000 OA
ATOM     24  C   UNL     1      -0.095   9.544  23.569  0.00  0.00    +0.000 C 
ENDBRANCH  21  23
ENDBRANCH   3  17
TORSDOF 5
ENDMDL
MODEL 2
REMARK VINA RESULT:      -7.7      1.556      2.280
REMARK  Name = 
REMARK  7 active torsions:
REMARK  status: ('A' for Active; 'I' for Inactive)
REMARK    1  A    between atoms: C_1  and  C_2
REMARK    2  A    between atoms: C_2  and  S_3
REMARK    3  A    between atoms: S_3  and  N_6
REMARK    4  A    between atoms: C_10  and  C_11
REMARK    5  A    between atoms: C_13  and  C_14
REMARK    6  A    between atoms: C_18  and  O_19
REMARK    7  A    between atoms: O_19  and  C_20
REMARK                            x       y       z     vdW  Elec       q    Type
REMARK                         _______ _______ _______ _____ _____    ______ ____
ROOT
ATOM      1  C   UNL     1       2.499   7.216  18.306  0.00  0.00    +0.000 A 
ATOM      2  N   UNL     1       1.889   7.378  19.454  0.00  0.00    +0.000 NA
ATOM      3  C   UNL     1       1.534   8.709  19.426  0.00  0.00    +0.000 A 
ATOM      4  N   UNL     1       1.901   9.340  18.297  0.00  0.00    +0.000 NA
ATOM      5  O   UNL     1       2.546   8.350  17.554  0.00  0.00    +0.000 OA
ENDROOT
BRANCH   1  10
ATOM      6  N   UNL     1       5.522   5.143  17.360  0.00  0.00    +0.000 NA
ATOM      7  C   UNL     1       5.259   3.961  18.247  0.00  0.00    +0.000 C 
ATOM      8  C   UNL     1       3.774   3.610  18.239  0.00  0.00    +0.000 C 
ATOM      9  C   UNL     1       2.920   4.797  18.673  0.00  0.00    +0.000 C 
ATOM     10  C   UNL     1       3.215   6.018  17.800  0.00  0.00    +0.000 C 
ATOM     11  C   UNL     1       4.717   6.327  17.795  0.00  0.00    +0.000 C 
BRANCH   6  12
ATOM     12  S   UNL     1       7.214   5.462  17.242  0.00  0.00    +0.000 S 
ATOM     13  O   UNL     1       7.471   5.897  15.886  0.00  0.00    +0.000 OA
ATOM     14  O   UNL     1       7.899   4.316  17.803  0.00  0.00    +0.000 OA
BRANCH  12  16
ATOM     15  C   UNL     1       7.880   8.095  17.581  0.00  0.00    +0.000 C 
ATOM     16  C   UNL     1       7.431   6.863  18.340  0.00  0.00    +0.000 C 
ENDBRANCH  12  16
ENDBRANCH   6  12
ENDBRANCH   1  10
BRANCH   3  17
ATOM     17  C   UNL     1       0.864   9.343  20.554  0.00  0.00    +0.000 A 
ATOM     18  C   UNL     1       0.205   8.581  21.528  0.00  0.00    +0.000 A 
ATOM     19  C   UNL     1      -0.450   9.209  22.586  0.00  0.00    +0.000 A 
ATOM     20  C   UNL     1      -0.455  10.602  22.675  0.00  0.00    +0.000 A 
ATOM     21  C   UNL     1       0.196  11.377  21.715  0.00  0.00    +0.000 A 
ATOM     22  C   UNL     1       0.857  10.746  20.662  0.00  0.00    +0.000 A 
BRANCH  21  23
ATOM     23  O   UNL     1       0.107  12.728  21.913  0.00  0.00    +0.000 OA
ATOM     24  C   UNL     1      -0.977  13.195  22.710  0.00  0.00    +0.000 C 
ENDBRANCH  21  23
ENDBRANCH   3  17
TORSDOF 5
ENDMDL
MODEL 3
REMARK VINA RESULT:      -7.7      1.728      2.301
REMARK  Name = 
REMARK  7 active torsions:
REMARK  status: ('A' for Active; 'I' for Inactive)
REMARK    1  A    between atoms: C_1  and  C_2
REMARK    2  A    between atoms: C_2  and  S_3
REMARK    3  A    between atoms: S_3  and  N_6
REMARK    4  A    between atoms: C_10  and  C_11
REMARK    5  A    between atoms: C_13  and  C_14
REMARK    6  A    between atoms: C_18  and  O_19
REMARK    7  A    between atoms: O_19  and  C_20
REMARK                            x       y       z     vdW  Elec       q    Type
REMARK                         _______ _______ _______ _____ _____    ______ ____
ROOT
ATOM      1  C   UNL     1       2.545   6.763  18.925  0.00  0.00    +0.000 A 
ATOM      2  N   UNL     1       2.164   8.015  18.882  0.00  0.00    +0.000 NA
ATOM      3  C   UNL     1       1.528   8.183  20.093  0.00  0.00    +0.000 A 
ATOM      4  N   UNL     1       1.528   7.077  20.858  0.00  0.00    +0.000 NA
ATOM      5  O   UNL     1       2.201   6.132  20.082  0.00  0.00    +0.000 OA
ENDROOT
BRANCH   1  10
ATOM      6  N   UNL     1       5.431   5.297  16.963  0.00  0.00    +0.000 NA
ATOM      7  C   UNL     1       5.090   3.845  17.129  0.00  0.00    +0.000 C 
ATOM      8  C   UNL     1       3.586   3.632  16.989  0.00  0.00    +0.000 C 
ATOM      9  C   UNL     1       2.808   4.477  17.993  0.00  0.00    +0.000 C 
ATOM     10  C   UNL     1       3.184   5.954  17.857  0.00  0.00    +0.000 C 
ATOM     11  C   UNL     1       4.702   6.136  17.965  0.00  0.00    +0.000 C 
BRANCH   6  12
ATOM     12  S   UNL     1       7.141   5.534  16.973  0.00  0.00    +0.000 S 
ATOM     13  O   UNL     1       7.501   6.083  15.684  0.00  0.00    +0.000 OA
ATOM     14  O   UNL     1       7.734   4.304  17.456  0.00  0.00    +0.000 OA
BRANCH  12  16
ATOM     15  C   UNL     1       7.881   8.094  17.603  0.00  0.00    +0.000 C 
ATOM     16  C   UNL     1       7.357   6.809  18.215  0.00  0.00    +0.000 C 
ENDBRANCH  12  16
ENDBRANCH   6  12
ENDBRANCH   1  10
BRANCH   3  17
ATOM     17  C   UNL     1       0.890   9.443  20.451  0.00  0.00    +0.000 A 
ATOM     18  C   UNL     1       0.889  10.532  19.569  0.00  0.00    +0.000 A 
ATOM     19  C   UNL     1       0.293  11.736  19.942  0.00  0.00    +0.000 A 
ATOM     20  C   UNL     1      -0.302  11.860  21.198  0.00  0.00    +0.000 A 
ATOM     21  C   UNL     1      -0.311  10.787  22.089  0.00  0.00    +0.000 A 
ATOM     22  C   UNL     1       0.279   9.581  21.711  0.00  0.00    +0.000 A 
BRANCH  21  23
ATOM     23  O   UNL     1      -0.916  11.044  23.289  0.00  0.00    +0.000 OA
ATOM     24  C   UNL     1      -2.136  11.778  23.255  0.00  0.00    +0.000 C 
ENDBRANCH  21  23
ENDBRANCH   3  17
TORSDOF 5
ENDMDL
MODEL 4
REMARK VINA RESULT:      -7.6      1.226      1.533
REMARK  Name = 
REMARK  7 active torsions:
REMARK  status: ('A' for Active; 'I' for Inactive)
REMARK    1  A    between atoms: C_1  and  C_2
REMARK    2  A    between atoms: C_2  and  S_3
REMARK    3  A    between atoms: S_3  and  N_6
REMARK    4  A    between atoms: C_10  and  C_11
REMARK    5  A    between atoms: C_13  and  C_14
REMARK    6  A    between atoms: C_18  and  O_19
REMARK    7  A    between atoms: O_19  and  C_20
REMARK                            x       y       z     vdW  Elec       q    Type
REMARK                         _______ _______ _______ _____ _____    ______ ____
ROOT
ATOM      1  C   UNL     1       2.482   7.663  18.176  0.00  0.00    +0.000 A 
ATOM      2  N   UNL     1       1.806   8.164  19.180  0.00  0.00    +0.000 NA
ATOM      3  C   UNL     1       1.512   9.438  18.744  0.00  0.00    +0.000 A 
ATOM      4  N   UNL     1       1.979   9.707  17.512  0.00  0.00    +0.000 NA
ATOM      5  O   UNL     1       2.627   8.529  17.135  0.00  0.00    +0.000 OA
ENDROOT
BRANCH   1  10
ATOM      6  N   UNL     1       5.369   5.327  17.444  0.00  0.00    +0.000 NA
ATOM      7  C   UNL     1       5.500   4.712  18.807  0.00  0.00    +0.000 C 
ATOM      8  C   UNL     1       4.121   4.430  19.398  0.00  0.00    +0.000 C 
ATOM      9  C   UNL     1       3.277   5.699  19.469  0.00  0.00    +0.000 C 
ATOM     10  C   UNL     1       3.176   6.354  18.090  0.00  0.00    +0.000 C 
ATOM     11  C   UNL     1       4.572   6.592  17.503  0.00  0.00    +0.000 C 
BRANCH   6  12
ATOM     12  S   UNL     1       6.916   5.516  16.702  0.00  0.00    +0.000 S 
ATOM     13  O   UNL     1       6.699   5.551  15.271  0.00  0.00    +0.000 OA
ATOM     14  O   UNL     1       7.795   4.535  17.303  0.00  0.00    +0.000 OA
BRANCH  12  16
ATOM     15  C   UNL     1       8.136   7.097  18.575  0.00  0.00    +0.000 C 
ATOM     16  C   UNL     1       7.417   7.152  17.241  0.00  0.00    +0.000 C 
ENDBRANCH  12  16
ENDBRANCH   6  12
ENDBRANCH   1  10
BRANCH   3  17
ATOM     17  C   UNL     1       0.798  10.386  19.589  0.00  0.00    +0.000 A 
ATOM     18  C   UNL     1       0.355  11.617  19.085  0.00  0.00    +0.000 A 
ATOM     19  C   UNL     1      -0.305  12.520  19.917  0.00  0.00    +0.000 A 
ATOM     20  C   UNL     1      -0.523  12.201  21.258  0.00  0.00    +0.000 A 
ATOM     21  C   UNL     1      -0.090  10.981  21.778  0.00  0.00    +0.000 A 
ATOM     22  C   UNL     1       0.563  10.076  20.942  0.00  0.00    +0.000 A 
BRANCH  21  23
ATOM     23  O   UNL     1      -0.357  10.798  23.108  0.00  0.00    +0.000 OA
ATOM     24  C   UNL     1      -0.114   9.501  23.643  0.00  0.00    +0.000 C 
ENDBRANCH  21  23
ENDBRANCH   3  17
TORSDOF 5
ENDMDL
MODEL 5
REMARK VINA RESULT:      -7.6      1.987      2.984
REMARK  Name = 
REMARK  7 active torsions:
REMARK  status: ('A' for Active; 'I' for Inactive)
REMARK    1  A    between atoms: C_1  and  C_2
REMARK    2  A    between atoms: C_2  and  S_3
REMARK    3  A    between atoms: S_3  and  N_6
REMARK    4  A    between atoms: C_10  and  C_11
REMARK    5  A    between atoms: C_13  and  C_14
REMARK    6  A    between atoms: C_18  and  O_19
REMARK    7  A    between atoms: O_19  and  C_20
REMARK                            x       y       z     vdW  Elec       q    Type
REMARK                         _______ _______ _______ _____ _____    ______ ____
ROOT
ATOM      1  C   UNL     1       2.377   7.500  18.386  0.00  0.00    +0.000 A 
ATOM      2  N   UNL     1       1.658   8.529  18.014  0.00  0.00    +0.000 NA
ATOM      3  C   UNL     1       1.208   9.036  19.214  0.00  0.00    +0.000 A 
ATOM      4  N   UNL     1       1.644   8.350  20.285  0.00  0.00    +0.000 NA
ATOM      5  O   UNL     1       2.418   7.327  19.736  0.00  0.00    +0.000 OA
ENDROOT
BRANCH   1  10
ATOM      6  N   UNL     1       5.293   5.697  16.780  0.00  0.00    +0.000 NA
ATOM      7  C   UNL     1       5.011   4.320  17.306  0.00  0.00    +0.000 C 
ATOM      8  C   UNL     1       3.514   4.027  17.254  0.00  0.00    +0.000 C 
ATOM      9  C   UNL     1       2.717   5.065  18.038  0.00  0.00    +0.000 C 
ATOM     10  C   UNL     1       3.033   6.476  17.536  0.00  0.00    +0.000 C 
ATOM     11  C   UNL     1       4.545   6.731  17.562  0.00  0.00    +0.000 C 
BRANCH   6  12
ATOM     12  S   UNL     1       6.992   5.989  16.695  0.00  0.00    +0.000 S 
ATOM     13  O   UNL     1       7.204   7.375  17.055  0.00  0.00    +0.000 OA
ATOM     14  O   UNL     1       7.446   5.468  15.423  0.00  0.00    +0.000 OA
BRANCH  12  16
ATOM     15  C   UNL     1       7.846   5.748  19.285  0.00  0.00    +0.000 C 
ATOM     16  C   UNL     1       7.638   4.955  18.010  0.00  0.00    +0.000 C 
ENDBRANCH  12  16
ENDBRANCH   6  12
ENDBRANCH   1  10
BRANCH   3  17
ATOM     17  C   UNL     1       0.309  10.182  19.269  0.00  0.00    +0.000 A 
ATOM     18  C   UNL     1       0.378  11.109  20.317  0.00  0.00    +0.000 A 
ATOM     19  C   UNL     1      -0.507  12.185  20.362  0.00  0.00    +0.000 A 
ATOM     20  C   UNL     1      -1.469  12.338  19.363  0.00  0.00    +0.000 A 
ATOM     21  C   UNL     1      -1.554  11.426  18.311  0.00  0.00    +0.000 A 
ATOM     22  C   UNL     1      -0.662  10.355  18.264  0.00  0.00    +0.000 A 
BRANCH  21  23
ATOM     23  O   UNL     1      -2.546  11.686  17.405  0.00  0.00    +0.000 OA
ATOM     24  C   UNL     1      -2.580  10.876  16.234  0.00  0.00    +0.000 C 
ENDBRANCH  21  23
ENDBRANCH   3  17
TORSDOF 5
ENDMDL
MODEL 6
REMARK VINA RESULT:      -7.6      1.531      2.462
REMARK  Name = 
REMARK  7 active torsions:
REMARK  status: ('A' for Active; 'I' for Inactive)
REMARK    1  A    between atoms: C_1  and  C_2
REMARK    2  A    between atoms: C_2  and  S_3
REMARK    3  A    between atoms: S_3  and  N_6
REMARK    4  A    between atoms: C_10  and  C_11
REMARK    5  A    between atoms: C_13  and  C_14
REMARK    6  A    between atoms: C_18  and  O_19
REMARK    7  A    between atoms: O_19  and  C_20
REMARK                            x       y       z     vdW  Elec       q    Type
REMARK                         _______ _______ _______ _____ _____    ______ ____
ROOT
ATOM      1  C   UNL     1       2.582   7.410  18.182  0.00  0.00    +0.000 A 
ATOM      2  N   UNL     1       1.930   7.836  19.235  0.00  0.00    +0.000 NA
ATOM      3  C   UNL     1       1.570   9.116  18.872  0.00  0.00    +0.000 A 
ATOM      4  N   UNL     1       1.976   9.460  17.638  0.00  0.00    +0.000 NA
ATOM      5  O   UNL     1       2.651   8.328  17.179  0.00  0.00    +0.000 OA
ENDROOT
BRANCH   1  10
ATOM      6  N   UNL     1       5.618   5.235  17.564  0.00  0.00    +0.000 NA
ATOM      7  C   UNL     1       5.555   4.415  18.819  0.00  0.00    +0.000 C 
ATOM      8  C   UNL     1       4.112   4.036  19.135  0.00  0.00    +0.000 C 
ATOM      9  C   UNL     1       3.228   5.272  19.266  0.00  0.00    +0.000 C 
ATOM     10  C   UNL     1       3.321   6.135  18.006  0.00  0.00    +0.000 C 
ATOM     11  C   UNL     1       4.783   6.470  17.690  0.00  0.00    +0.000 C 
BRANCH   6  12
ATOM     12  S   UNL     1       7.254   5.548  17.112  0.00  0.00    +0.000 S 
ATOM     13  O   UNL     1       7.224   6.169  15.805  0.00  0.00    +0.000 OA
ATOM     14  O   UNL     1       7.997   4.327  17.344  0.00  0.00    +0.000 OA
BRANCH  12  16
ATOM     15  C   UNL     1       7.935   8.140  17.671  0.00  0.00    +0.000 C 
ATOM     16  C   UNL     1       7.769   6.777  18.313  0.00  0.00    +0.000 C 
ENDBRANCH  12  16
ENDBRANCH   6  12
ENDBRANCH   1  10
BRANCH   3  17
ATOM     17  C   UNL     1       0.856   9.995  19.789  0.00  0.00    +0.000 A 
ATOM     18  C   UNL     1       0.562   9.594  21.099  0.00  0.00    +0.000 A 
ATOM     19  C   UNL     1      -0.143  10.441  21.952  0.00  0.00    +0.000 A 
ATOM     20  C   UNL     1      -0.561  11.694  21.501  0.00  0.00    +0.000 A 
ATOM     21  C   UNL     1      -0.277  12.112  20.201  0.00  0.00    +0.000 A 
ATOM     22  C   UNL     1       0.434  11.265  19.351  0.00  0.00    +0.000 A 
BRANCH  21  23
ATOM     23  O   UNL     1      -0.752  13.355  19.882  0.00  0.00    +0.000 OA
ATOM     24  C   UNL     1      -0.234  13.963  18.702  0.00  0.00    +0.000 C 
ENDBRANCH  21  23
ENDBRANCH   3  17
TORSDOF 5
ENDMDL
MODEL 7
REMARK VINA RESULT:      -7.6      1.987      2.428
REMARK  Name = 
REMARK  7 active torsions:
REMARK  status: ('A' for Active; 'I' for Inactive)
REMARK    1  A    between atoms: C_1  and  C_2
REMARK    2  A    between atoms: C_2  and  S_3
REMARK    3  A    between atoms: S_3  and  N_6
REMARK    4  A    between atoms: C_10  and  C_11
REMARK    5  A    between atoms: C_13  and  C_14
REMARK    6  A    between atoms: C_18  and  O_19
REMARK    7  A    between atoms: O_19  and  C_20
REMARK                            x       y       z     vdW  Elec       q    Type
REMARK                         _______ _______ _______ _____ _____    ______ ____
ROOT
ATOM      1  C   UNL     1       2.495   7.294  18.541  0.00  0.00    +0.000 A 
ATOM      2  N   UNL     1       2.008   8.344  17.928  0.00  0.00    +0.000 NA
ATOM      3  C   UNL     1       1.463   9.074  18.962  0.00  0.00    +0.000 A 
ATOM      4  N   UNL     1       1.620   8.499  20.167  0.00  0.00    +0.000 NA
ATOM      5  O   UNL     1       2.303   7.315  19.888  0.00  0.00    +0.000 OA
ENDROOT
BRANCH   1  10
ATOM      6  N   UNL     1       5.290   5.198  17.082  0.00  0.00    +0.000 NA
ATOM      7  C   UNL     1       5.228   4.052  18.049  0.00  0.00    +0.000 C 
ATOM      8  C   UNL     1       3.777   3.694  18.356  0.00  0.00    +0.000 C 
ATOM      9  C   UNL     1       3.013   4.893  18.908  0.00  0.00    +0.000 C 
ATOM     10  C   UNL     1       3.109   6.080  17.947  0.00  0.00    +0.000 C 
ATOM     11  C   UNL     1       4.575   6.395  17.625  0.00  0.00    +0.000 C 
BRANCH   6  12
ATOM     12  S   UNL     1       6.919   5.520  16.611  0.00  0.00    +0.000 S 
ATOM     13  O   UNL     1       7.769   4.664  17.411  0.00  0.00    +0.000 OA
ATOM     14  O   UNL     1       7.085   6.958  16.619  0.00  0.00    +0.000 OA
BRANCH  12  16
ATOM     15  C   UNL     1       5.608   4.425  14.471  0.00  0.00    +0.000 C 
ATOM     16  C   UNL     1       6.964   4.940  14.915  0.00  0.00    +0.000 C 
ENDBRANCH  12  16
ENDBRANCH   6  12
ENDBRANCH   1  10
BRANCH   3  17
ATOM     17  C   UNL     1       0.753  10.323  18.721  0.00  0.00    +0.000 A 
ATOM     18  C   UNL     1       1.399  11.561  18.841  0.00  0.00    +0.000 A 
ATOM     19  C   UNL     1       0.695  12.744  18.630  0.00  0.00    +0.000 A 
ATOM     20  C   UNL     1      -0.661  12.700  18.301  0.00  0.00    +0.000 A 
ATOM     21  C   UNL     1      -1.322  11.478  18.175  0.00  0.00    +0.000 A 
ATOM     22  C   UNL     1      -0.613  10.295  18.380  0.00  0.00    +0.000 A 
BRANCH  21  23
ATOM     23  O   UNL     1      -2.650  11.575  17.859  0.00  0.00    +0.000 OA
ATOM     24  C   UNL     1      -3.329  10.364  17.544  0.00  0.00    +0.000 C 
ENDBRANCH  21  23
ENDBRANCH   3  17
TORSDOF 5
ENDMDL
MODEL 8
REMARK VINA RESULT:      -7.6      2.469      3.684
REMARK  Name = 
REMARK  7 active torsions:
REMARK  status: ('A' for Active; 'I' for Inactive)
REMARK    1  A    between atoms: C_1  and  C_2
REMARK    2  A    between atoms: C_2  and  S_3
REMARK    3  A    between atoms: S_3  and  N_6
REMARK    4  A    between atoms: C_10  and  C_11
REMARK    5  A    between atoms: C_13  and  C_14
REMARK    6  A    between atoms: C_18  and  O_19
REMARK    7  A    between atoms: O_19  and  C_20
REMARK                            x       y       z     vdW  Elec       q    Type
REMARK                         _______ _______ _______ _____ _____    ______ ____
ROOT
ATOM      1  C   UNL     1       2.704   7.375  18.860  0.00  0.00    +0.000 A 
ATOM      2  N   UNL     1       2.166   7.641  20.024  0.00  0.00    +0.000 NA
ATOM      3  C   UNL     1       1.383   8.743  19.753  0.00  0.00    +0.000 A 
ATOM      4  N   UNL     1       1.430   9.133  18.467  0.00  0.00    +0.000 NA
ATOM      5  O   UNL     1       2.309   8.227  17.873  0.00  0.00    +0.000 OA
ENDROOT
BRANCH   1  10
ATOM      6  N   UNL     1       4.216   3.909  18.695  0.00  0.00    +0.000 NA
ATOM      7  C   UNL     1       4.421   3.833  17.211  0.00  0.00    +0.000 C 
ATOM      8  C   UNL     1       4.937   5.166  16.676  0.00  0.00    +0.000 C 
ATOM      9  C   UNL     1       3.987   6.309  17.021  0.00  0.00    +0.000 C 
ATOM     10  C   UNL     1       3.739   6.364  18.530  0.00  0.00    +0.000 C 
ATOM     11  C   UNL     1       3.258   5.003  19.047  0.00  0.00    +0.000 C 
BRANCH   6  12
ATOM     12  S   UNL     1       3.774   2.369  19.336  0.00  0.00    +0.000 S 
ATOM     13  O   UNL     1       4.736   2.045  20.367  0.00  0.00    +0.000 OA
ATOM     14  O   UNL     1       3.562   1.487  18.207  0.00  0.00    +0.000 OA
BRANCH  12  16
ATOM     15  C   UNL     1       2.312   2.693  21.628  0.00  0.00    +0.000 C 
ATOM     16  C   UNL     1       2.194   2.702  20.116  0.00  0.00    +0.000 C 
ENDBRANCH  12  16
ENDBRANCH   6  12
ENDBRANCH   1  10
BRANCH   3  17
ATOM     17  C   UNL     1       0.629   9.417  20.801  0.00  0.00    +0.000 A 
ATOM     18  C   UNL     1       0.599   8.919  22.111  0.00  0.00    +0.000 A 
ATOM     19  C   UNL     1      -0.149   9.567  23.092  0.00  0.00    +0.000 A 
ATOM     20  C   UNL     1      -0.875  10.715  22.771  0.00  0.00    +0.000 A 
ATOM     21  C   UNL     1      -0.858  11.227  21.474  0.00  0.00    +0.000 A 
ATOM     22  C   UNL     1      -0.103  10.581  20.495  0.00  0.00    +0.000 A 
BRANCH  21  23
ATOM     23  O   UNL     1      -1.619  12.349  21.290  0.00  0.00    +0.000 OA
ATOM     24  C   UNL     1      -2.765  12.496  22.123  0.00  0.00    +0.000 C 
ENDBRANCH  21  23
ENDBRANCH   3  17
TORSDOF 5
ENDMDL
MODEL 9
REMARK VINA RESULT:      -7.6      1.860      2.845
REMARK  Name = 
REMARK  7 active torsions:
REMARK  status: ('A' for Active; 'I' for Inactive)
REMARK    1  A    between atoms: C_1  and  C_2
REMARK    2  A    between atoms: C_2  and  S_3
REMARK    3  A    between atoms: S_3  and  N_6
REMARK    4  A    between atoms: C_10  and  C_11
REMARK    5  A    between atoms: C_13  and  C_14
REMARK    6  A    between atoms: C_18  and  O_19
REMARK    7  A    between atoms: O_19  and  C_20
REMARK                            x       y       z     vdW  Elec       q    Type
REMARK                         _______ _______ _______ _____ _____    ______ ____
ROOT
ATOM      1  C   UNL     1       2.405   6.650  19.138  0.00  0.00    +0.000 A 
ATOM      2  N   UNL     1       2.034   7.898  19.275  0.00  0.00    +0.000 NA
ATOM      3  C   UNL     1       1.429   7.901  20.514  0.00  0.00    +0.000 A 
ATOM      4  N   UNL     1       1.439   6.702  21.120  0.00  0.00    +0.000 NA
ATOM      5  O   UNL     1       2.084   5.868  20.206  0.00  0.00    +0.000 OA
ENDROOT
BRANCH   1  10
ATOM      6  N   UNL     1       5.216   5.613  16.824  0.00  0.00    +0.000 NA
ATOM      7  C   UNL     1       5.011   4.127  16.888  0.00  0.00    +0.000 C 
ATOM      8  C   UNL     1       3.523   3.794  16.851  0.00  0.00    +0.000 C 
ATOM      9  C   UNL     1       2.770   4.480  17.987  0.00  0.00    +0.000 C 
ATOM     10  C   UNL     1       3.011   5.991  17.954  0.00  0.00    +0.000 C 
ATOM     11  C   UNL     1       4.513   6.298  17.954  0.00  0.00    +0.000 C 
BRANCH   6  12
ATOM     12  S   UNL     1       6.895   5.999  16.717  0.00  0.00    +0.000 S 
ATOM     13  O   UNL     1       7.038   7.385  17.112  0.00  0.00    +0.000 OA
ATOM     14  O   UNL     1       7.352   5.539  15.423  0.00  0.00    +0.000 OA
BRANCH  12  16
ATOM     15  C   UNL     1       7.932   5.768  19.240  0.00  0.00    +0.000 C 
ATOM     16  C   UNL     1       7.622   4.967  17.991  0.00  0.00    +0.000 C 
ENDBRANCH  12  16
ENDBRANCH   6  12
ENDBRANCH   1  10
BRANCH   3  17
ATOM     17  C   UNL     1       0.810   9.104  21.056  0.00  0.00    +0.000 A 
ATOM     18  C   UNL     1       0.208   9.102  22.322  0.00  0.00    +0.000 A 
ATOM     19  C   UNL     1      -0.400  10.257  22.812  0.00  0.00    +0.000 A 
ATOM     20  C   UNL     1      -0.413  11.419  22.039  0.00  0.00    +0.000 A 
ATOM     21  C   UNL     1       0.182  11.441  20.778  0.00  0.00    +0.000 A 
ATOM     22  C   UNL     1       0.796  10.286  20.293  0.00  0.00    +0.000 A 
BRANCH  21  23
ATOM     23  O   UNL     1       0.090  12.638  20.121  0.00  0.00    +0.000 OA
ATOM     24  C   UNL     1       1.297  13.371  19.941  0.00  0.00    +0.000 C 
ENDBRANCH  21  23
ENDBRANCH   3  17
TORSDOF 5
ENDMDL
