MODEL 1
REMARK VINA RESULT:      -8.5      0.000      0.000
REMARK  Name = 
REMARK  3 active torsions:
REMARK  status: ('A' for Active; 'I' for Inactive)
REMARK    1  A    between atoms: C_4  and  C_5
REMARK    2  A    between atoms: C_7  and  C_8
REMARK    3  A    between atoms: C_16  and  C_17
REMARK                            x       y       z     vdW  Elec       q    Type
REMARK                         _______ _______ _______ _____ _____    ______ ____
ROOT
ATOM      1  C   UNL     1       2.281   8.414  18.372  0.00  0.00    +0.000 A 
ATOM      2  C   UNL     1       1.885   7.295  19.124  0.00  0.00    +0.000 A 
ATOM      3  C   UNL     1       2.449   6.021  18.914  0.00  0.00    +0.000 A 
ATOM      4  C   UNL     1       3.418   5.960  17.896  0.00  0.00    +0.000 A 
ATOM      5  N   UNL     1       4.164   4.914  17.403  0.00  0.00    +0.000 NA
ATOM      6  C   UNL     1       4.903   5.416  16.434  0.00  0.00    +0.000 A 
ATOM      7  N   UNL     1       4.673   6.764  16.295  0.00  0.00    +0.000 N 
ATOM      8  C   UNL     1       3.724   7.126  17.210  0.00  0.00    +0.000 A 
ATOM      9  N   UNL     1       3.211   8.356  17.381  0.00  0.00    +0.000 NA
ATOM     10  H   UNL     1       5.104   7.390  15.633  0.00  0.00    +0.000 HD
ENDROOT
BRANCH   1  14
ATOM     11  C   UNL     1       0.557  12.295  19.139  0.00  0.00    +0.000 A 
ATOM     12  C   UNL     1       1.727  12.189  18.397  0.00  0.00    +0.000 A 
ATOM     13  C   UNL     1       2.277  10.931  18.131  0.00  0.00    +0.000 A 
ATOM     14  C   UNL     1       1.679   9.748  18.613  0.00  0.00    +0.000 A 
ATOM     15  C   UNL     1       0.488   9.886  19.348  0.00  0.00    +0.000 A 
ATOM     16  C   UNL     1      -0.068  11.143  19.610  0.00  0.00    +0.000 A 
ENDBRANCH   1  14
BRANCH   3  17
ATOM     17  C   UNL     1       2.065   4.830  19.694  0.00  0.00    +0.000 A 
ATOM     18  C   UNL     1       2.505   4.647  21.018  0.00  0.00    +0.000 A 
ATOM     19  C   UNL     1       2.163   3.507  21.752  0.00  0.00    +0.000 A 
ATOM     20  C   UNL     1       1.361   2.526  21.182  0.00  0.00    +0.000 A 
ATOM     21  C   UNL     1       0.901   2.683  19.878  0.00  0.00    +0.000 A 
ATOM     22  C   UNL     1       1.256   3.818  19.145  0.00  0.00    +0.000 A 
ENDBRANCH   3  17
BRANCH   6  23
ATOM     23  C   UNL     1       5.851   4.648  15.578  0.00  0.00    +0.000 C 
ATOM     24  C   UNL     1       5.202   4.152  14.287  0.00  0.00    +0.000 C 
ATOM     25  C   UNL     1       6.385   3.867  13.370  0.00  0.00    +0.000 C 
ATOM     26  C   UNL     1       7.482   4.841  13.788  0.00  0.00    +0.000 C 
ATOM     27  C   UNL     1       6.990   5.529  15.059  0.00  0.00    +0.000 C 
ENDBRANCH   6  23
TORSDOF 3
ENDMDL
MODEL 2
REMARK VINA RESULT:      -8.4      0.048      1.334
REMARK  Name = 
REMARK  3 active torsions:
REMARK  status: ('A' for Active; 'I' for Inactive)
REMARK    1  A    between atoms: C_4  and  C_5
REMARK    2  A    between atoms: C_7  and  C_8
REMARK    3  A    between atoms: C_16  and  C_17
REMARK                            x       y       z     vdW  Elec       q    Type
REMARK                         _______ _______ _______ _____ _____    ______ ____
ROOT
ATOM      1  C   UNL     1       2.278   8.389  18.410  0.00  0.00    +0.000 A 
ATOM      2  C   UNL     1       1.893   7.266  19.160  0.00  0.00    +0.000 A 
ATOM      3  C   UNL     1       2.462   5.995  18.941  0.00  0.00    +0.000 A 
ATOM      4  C   UNL     1       3.425   5.943  17.918  0.00  0.00    +0.000 A 
ATOM      5  N   UNL     1       4.173   4.903  17.416  0.00  0.00    +0.000 NA
ATOM      6  C   UNL     1       4.904   5.412  16.445  0.00  0.00    +0.000 A 
ATOM      7  N   UNL     1       4.666   6.760  16.312  0.00  0.00    +0.000 N 
ATOM      8  C   UNL     1       3.721   7.113  17.234  0.00  0.00    +0.000 A 
ATOM      9  N   UNL     1       3.202   8.340  17.413  0.00  0.00    +0.000 NA
ATOM     10  H   UNL     1       5.090   7.390  15.650  0.00  0.00    +0.000 HD
ENDROOT
BRANCH   1  14
ATOM     11  C   UNL     1       0.487  12.260  19.067  0.00  0.00    +0.000 A 
ATOM     12  C   UNL     1      -0.106  11.120  19.598  0.00  0.00    +0.000 A 
ATOM     13  C   UNL     1       0.483   9.867  19.402  0.00  0.00    +0.000 A 
ATOM     14  C   UNL     1       1.671   9.719  18.659  0.00  0.00    +0.000 A 
ATOM     15  C   UNL     1       2.256  10.891  18.147  0.00  0.00    +0.000 A 
ATOM     16  C   UNL     1       1.672  12.147  18.346  0.00  0.00    +0.000 A 
ENDBRANCH   1  14
BRANCH   3  17
ATOM     17  C   UNL     1       2.089   4.799  19.719  0.00  0.00    +0.000 A 
ATOM     18  C   UNL     1       1.252   3.805  19.179  0.00  0.00    +0.000 A 
ATOM     19  C   UNL     1       0.875   2.682  19.921  0.00  0.00    +0.000 A 
ATOM     20  C   UNL     1       1.338   2.520  21.222  0.00  0.00    +0.000 A 
ATOM     21  C   UNL     1       2.175   3.480  21.781  0.00  0.00    +0.000 A 
ATOM     22  C   UNL     1       2.538   4.607  21.038  0.00  0.00    +0.000 A 
ENDBRANCH   3  17
BRANCH   6  23
ATOM     23  C   UNL     1       5.851   4.652  15.580  0.00  0.00    +0.000 C 
ATOM     24  C   UNL     1       5.208   4.191  14.273  0.00  0.00    +0.000 C 
ATOM     25  C   UNL     1       6.395   3.912  13.360  0.00  0.00    +0.000 C 
ATOM     26  C   UNL     1       7.499   4.866  13.809  0.00  0.00    +0.000 C 
ATOM     27  C   UNL     1       7.004   5.531  15.089  0.00  0.00    +0.000 C 
ENDBRANCH   6  23
TORSDOF 3
ENDMDL
MODEL 3
REMARK VINA RESULT:      -8.3      3.515      6.935
REMARK  Name = 
REMARK  3 active torsions:
REMARK  status: ('A' for Active; 'I' for Inactive)
REMARK    1  A    between atoms: C_4  and  C_5
REMARK    2  A    between atoms: C_7  and  C_8
REMARK    3  A    between atoms: C_16  and  C_17
REMARK                            x       y       z     vdW  Elec       q    Type
REMARK                         _______ _______ _______ _____ _____    ______ ____
ROOT
ATOM      1  C   UNL     1       4.085   4.520  17.702  0.00  0.00    +0.000 A 
ATOM      2  C   UNL     1       4.531   4.204  16.409  0.00  0.00    +0.000 A 
ATOM      3  C   UNL     1       5.632   4.860  15.822  0.00  0.00    +0.000 A 
ATOM      4  C   UNL     1       6.230   5.850  16.621  0.00  0.00    +0.000 A 
ATOM      5  N   UNL     1       7.293   6.693  16.393  0.00  0.00    +0.000 NA
ATOM      6  C   UNL     1       7.412   7.435  17.476  0.00  0.00    +0.000 A 
ATOM      7  N   UNL     1       6.466   7.086  18.411  0.00  0.00    +0.000 N 
ATOM      8  C   UNL     1       5.699   6.087  17.881  0.00  0.00    +0.000 A 
ATOM      9  N   UNL     1       4.655   5.484  18.475  0.00  0.00    +0.000 NA
ATOM     10  H   UNL     1       6.334   7.492  19.324  0.00  0.00    +0.000 HD
ENDROOT
BRANCH   1  14
ATOM     11  C   UNL     1       0.674   2.505  19.415  0.00  0.00    +0.000 A 
ATOM     12  C   UNL     1       1.468   1.854  18.479  0.00  0.00    +0.000 A 
ATOM     13  C   UNL     1       2.585   2.498  17.937  0.00  0.00    +0.000 A 
ATOM     14  C   UNL     1       2.928   3.815  18.306  0.00  0.00    +0.000 A 
ATOM     15  C   UNL     1       2.115   4.443  19.266  0.00  0.00    +0.000 A 
ATOM     16  C   UNL     1       1.000   3.798  19.815  0.00  0.00    +0.000 A 
ENDBRANCH   1  14
BRANCH   3  17
ATOM     17  C   UNL     1       6.133   4.544  14.471  0.00  0.00    +0.000 A 
ATOM     18  C   UNL     1       7.301   5.141  13.964  0.00  0.00    +0.000 A 
ATOM     19  C   UNL     1       7.766   4.863  12.675  0.00  0.00    +0.000 A 
ATOM     20  C   UNL     1       7.077   3.968  11.865  0.00  0.00    +0.000 A 
ATOM     21  C   UNL     1       5.924   3.353  12.341  0.00  0.00    +0.000 A 
ATOM     22  C   UNL     1       5.457   3.644  13.626  0.00  0.00    +0.000 A 
ENDBRANCH   3  17
BRANCH   6  23
ATOM     23  C   UNL     1       8.410   8.524  17.678  0.00  0.00    +0.000 C 
ATOM     24  C   UNL     1       7.828   9.910  17.407  0.00  0.00    +0.000 C 
ATOM     25  C   UNL     1       8.781  10.854  18.128  0.00  0.00    +0.000 C 
ATOM     26  C   UNL     1       9.334  10.065  19.312  0.00  0.00    +0.000 C 
ATOM     27  C   UNL     1       8.848   8.629  19.141  0.00  0.00    +0.000 C 
ENDBRANCH   6  23
TORSDOF 3
ENDMDL
MODEL 4
REMARK VINA RESULT:      -8.3      3.503      6.974
REMARK  Name = 
REMARK  3 active torsions:
REMARK  status: ('A' for Active; 'I' for Inactive)
REMARK    1  A    between atoms: C_4  and  C_5
REMARK    2  A    between atoms: C_7  and  C_8
REMARK    3  A    between atoms: C_16  and  C_17
REMARK                            x       y       z     vdW  Elec       q    Type
REMARK                         _______ _______ _______ _____ _____    ______ ____
ROOT
ATOM      1  C   UNL     1       4.051   4.550  17.699  0.00  0.00    +0.000 A 
ATOM      2  C   UNL     1       4.492   4.236  16.404  0.00  0.00    +0.000 A 
ATOM      3  C   UNL     1       5.599   4.885  15.818  0.00  0.00    +0.000 A 
ATOM      4  C   UNL     1       6.207   5.865  16.622  0.00  0.00    +0.000 A 
ATOM      5  N   UNL     1       7.278   6.700  16.397  0.00  0.00    +0.000 NA
ATOM      6  C   UNL     1       7.405   7.435  17.484  0.00  0.00    +0.000 A 
ATOM      7  N   UNL     1       6.457   7.090  18.418  0.00  0.00    +0.000 N 
ATOM      8  C   UNL     1       5.680   6.100  17.884  0.00  0.00    +0.000 A 
ATOM      9  N   UNL     1       4.632   5.504  18.476  0.00  0.00    +0.000 NA
ATOM     10  H   UNL     1       6.330   7.492  19.333  0.00  0.00    +0.000 HD
ENDROOT
BRANCH   1  14
ATOM     11  C   UNL     1       0.713   2.483  19.492  0.00  0.00    +0.000 A 
ATOM     12  C   UNL     1       0.986   3.799  19.845  0.00  0.00    +0.000 A 
ATOM     13  C   UNL     1       2.055   4.477  19.251  0.00  0.00    +0.000 A 
ATOM     14  C   UNL     1       2.888   3.852  18.300  0.00  0.00    +0.000 A 
ATOM     15  C   UNL     1       2.579   2.525  17.952  0.00  0.00    +0.000 A 
ATOM     16  C   UNL     1       1.505   1.846  18.540  0.00  0.00    +0.000 A 
ENDBRANCH   1  14
BRANCH   3  17
ATOM     17  C   UNL     1       6.095   4.571  14.466  0.00  0.00    +0.000 A 
ATOM     18  C   UNL     1       5.412   3.673  13.624  0.00  0.00    +0.000 A 
ATOM     19  C   UNL     1       5.892   3.354  12.351  0.00  0.00    +0.000 A 
ATOM     20  C   UNL     1       7.065   3.936  11.882  0.00  0.00    +0.000 A 
ATOM     21  C   UNL     1       7.757   4.836  12.686  0.00  0.00    +0.000 A 
ATOM     22  C   UNL     1       7.279   5.142  13.963  0.00  0.00    +0.000 A 
ENDBRANCH   3  17
BRANCH   6  23
ATOM     23  C   UNL     1       8.413   8.513  17.690  0.00  0.00    +0.000 C 
ATOM     24  C   UNL     1       7.850   9.903  17.404  0.00  0.00    +0.000 C 
ATOM     25  C   UNL     1       8.807  10.841  18.130  0.00  0.00    +0.000 C 
ATOM     26  C   UNL     1       9.337  10.054  19.325  0.00  0.00    +0.000 C 
ATOM     27  C   UNL     1       8.836   8.622  19.157  0.00  0.00    +0.000 C 
ENDBRANCH   6  23
TORSDOF 3
ENDMDL
MODEL 5
REMARK VINA RESULT:      -8.1      1.095      1.773
REMARK  Name = 
REMARK  3 active torsions:
REMARK  status: ('A' for Active; 'I' for Inactive)
REMARK    1  A    between atoms: C_4  and  C_5
REMARK    2  A    between atoms: C_7  and  C_8
REMARK    3  A    between atoms: C_16  and  C_17
REMARK                            x       y       z     vdW  Elec       q    Type
REMARK                         _______ _______ _______ _____ _____    ______ ____
ROOT
ATOM      1  C   UNL     1       1.565   8.651  19.524  0.00  0.00    +0.000 A 
ATOM      2  C   UNL     1       1.360   7.375  20.073  0.00  0.00    +0.000 A 
ATOM      3  C   UNL     1       2.044   6.240  19.592  0.00  0.00    +0.000 A 
ATOM      4  C   UNL     1       2.927   6.485  18.526  0.00  0.00    +0.000 A 
ATOM      5  N   UNL     1       3.742   5.648  17.799  0.00  0.00    +0.000 NA
ATOM      6  C   UNL     1       4.339   6.405  16.901  0.00  0.00    +0.000 A 
ATOM      7  N   UNL     1       3.948   7.716  17.033  0.00  0.00    +0.000 N 
ATOM      8  C   UNL     1       3.043   7.785  18.055  0.00  0.00    +0.000 A 
ATOM      9  N   UNL     1       2.411   8.890  18.486  0.00  0.00    +0.000 NA
ATOM     10  H   UNL     1       4.251   8.500  16.476  0.00  0.00    +0.000 HD
ENDROOT
BRANCH   1  14
ATOM     11  C   UNL     1      -0.606  12.068  21.018  0.00  0.00    +0.000 A 
ATOM     12  C   UNL     1      -0.268  11.030  21.878  0.00  0.00    +0.000 A 
ATOM     13  C   UNL     1       0.452   9.930  21.400  0.00  0.00    +0.000 A 
ATOM     14  C   UNL     1       0.840   9.834  20.048  0.00  0.00    +0.000 A 
ATOM     15  C   UNL     1       0.497  10.907  19.205  0.00  0.00    +0.000 A 
ATOM     16  C   UNL     1      -0.218  12.011  19.683  0.00  0.00    +0.000 A 
ENDBRANCH   1  14
BRANCH   3  17
ATOM     17  C   UNL     1       1.861   4.889  20.155  0.00  0.00    +0.000 A 
ATOM     18  C   UNL     1       2.414   4.532  21.399  0.00  0.00    +0.000 A 
ATOM     19  C   UNL     1       2.263   3.245  21.924  0.00  0.00    +0.000 A 
ATOM     20  C   UNL     1       1.544   2.285  21.220  0.00  0.00    +0.000 A 
ATOM     21  C   UNL     1       0.977   2.611  19.993  0.00  0.00    +0.000 A 
ATOM     22  C   UNL     1       1.141   3.895  19.467  0.00  0.00    +0.000 A 
ENDBRANCH   3  17
BRANCH   6  23
ATOM     23  C   UNL     1       5.293   5.929  15.859  0.00  0.00    +0.000 C 
ATOM     24  C   UNL     1       6.718   5.790  16.391  0.00  0.00    +0.000 C 
ATOM     25  C   UNL     1       7.391   4.855  15.394  0.00  0.00    +0.000 C 
ATOM     26  C   UNL     1       6.285   3.950  14.858  0.00  0.00    +0.000 C 
ATOM     27  C   UNL     1       4.971   4.505  15.401  0.00  0.00    +0.000 C 
ENDBRANCH   6  23
TORSDOF 3
ENDMDL
MODEL 6
REMARK VINA RESULT:      -8.1      1.123      1.884
REMARK  Name = 
REMARK  3 active torsions:
REMARK  status: ('A' for Active; 'I' for Inactive)
REMARK    1  A    between atoms: C_4  and  C_5
REMARK    2  A    between atoms: C_7  and  C_8
REMARK    3  A    between atoms: C_16  and  C_17
REMARK                            x       y       z     vdW  Elec       q    Type
REMARK                         _______ _______ _______ _____ _____    ______ ____
ROOT
ATOM      1  C   UNL     1       1.544   8.609  19.582  0.00  0.00    +0.000 A 
ATOM      2  C   UNL     1       1.351   7.324  20.115  0.00  0.00    +0.000 A 
ATOM      3  C   UNL     1       2.044   6.202  19.618  0.00  0.00    +0.000 A 
ATOM      4  C   UNL     1       2.922   6.468  18.553  0.00  0.00    +0.000 A 
ATOM      5  N   UNL     1       3.742   5.647  17.814  0.00  0.00    +0.000 NA
ATOM      6  C   UNL     1       4.331   6.420  16.924  0.00  0.00    +0.000 A 
ATOM      7  N   UNL     1       3.930   7.727  17.074  0.00  0.00    +0.000 N 
ATOM      8  C   UNL     1       3.026   7.775  18.098  0.00  0.00    +0.000 A 
ATOM      9  N   UNL     1       2.386   8.869  18.545  0.00  0.00    +0.000 NA
ATOM     10  H   UNL     1       4.225   8.520  16.527  0.00  0.00    +0.000 HD
ENDROOT
BRANCH   1  14
ATOM     11  C   UNL     1      -0.530  12.037  21.187  0.00  0.00    +0.000 A 
ATOM     12  C   UNL     1      -0.143  12.021  19.852  0.00  0.00    +0.000 A 
ATOM     13  C   UNL     1       0.512  10.903  19.325  0.00  0.00    +0.000 A 
ATOM     14  C   UNL     1       0.811   9.780  20.122  0.00  0.00    +0.000 A 
ATOM     15  C   UNL     1       0.394   9.818  21.465  0.00  0.00    +0.000 A 
ATOM     16  C   UNL     1      -0.268  10.933  21.993  0.00  0.00    +0.000 A 
ENDBRANCH   1  14
BRANCH   3  17
ATOM     17  C   UNL     1       1.873   4.842  20.163  0.00  0.00    +0.000 A 
ATOM     18  C   UNL     1       1.132   3.864  19.474  0.00  0.00    +0.000 A 
ATOM     19  C   UNL     1       0.947   2.581  19.999  0.00  0.00    +0.000 A 
ATOM     20  C   UNL     1       1.510   2.243  21.224  0.00  0.00    +0.000 A 
ATOM     21  C   UNL     1       2.255   3.185  21.925  0.00  0.00    +0.000 A 
ATOM     22  C   UNL     1       2.427   4.469  21.401  0.00  0.00    +0.000 A 
ENDBRANCH   3  17
BRANCH   6  23
ATOM     23  C   UNL     1       5.287   5.966  15.874  0.00  0.00    +0.000 C 
ATOM     24  C   UNL     1       6.705   5.789  16.412  0.00  0.00    +0.000 C 
ATOM     25  C   UNL     1       7.373   4.878  15.389  0.00  0.00    +0.000 C 
ATOM     26  C   UNL     1       6.258   4.007  14.815  0.00  0.00    +0.000 C 
ATOM     27  C   UNL     1       4.948   4.563  15.366  0.00  0.00    +0.000 C 
ENDBRANCH   6  23
TORSDOF 3
ENDMDL
MODEL 7
REMARK VINA RESULT:      -8.0      1.060      6.613
REMARK  Name = 
REMARK  3 active torsions:
REMARK  status: ('A' for Active; 'I' for Inactive)
REMARK    1  A    between atoms: C_4  and  C_5
REMARK    2  A    between atoms: C_7  and  C_8
REMARK    3  A    between atoms: C_16  and  C_17
REMARK                            x       y       z     vdW  Elec       q    Type
REMARK                         _______ _______ _______ _____ _____    ______ ____
ROOT
ATOM      1  C   UNL     1       4.476   5.718  16.692  0.00  0.00    +0.000 A 
ATOM      2  C   UNL     1       3.920   4.835  17.632  0.00  0.00    +0.000 A 
ATOM      3  C   UNL     1       2.982   5.265  18.592  0.00  0.00    +0.000 A 
ATOM      4  C   UNL     1       2.663   6.633  18.541  0.00  0.00    +0.000 A 
ATOM      5  N   UNL     1       1.819   7.407  19.304  0.00  0.00    +0.000 NA
ATOM      6  C   UNL     1       1.917   8.633  18.832  0.00  0.00    +0.000 A 
ATOM      7  N   UNL     1       2.789   8.677  17.770  0.00  0.00    +0.000 N 
ATOM      8  C   UNL     1       3.280   7.416  17.576  0.00  0.00    +0.000 A 
ATOM      9  N   UNL     1       4.175   7.045  16.646  0.00  0.00    +0.000 NA
ATOM     10  H   UNL     1       3.046   9.486  17.227  0.00  0.00    +0.000 HD
ENDROOT
BRANCH   1  14
ATOM     11  C   UNL     1       7.306   4.392  13.716  0.00  0.00    +0.000 A 
ATOM     12  C   UNL     1       7.732   5.183  14.777  0.00  0.00    +0.000 A 
ATOM     13  C   UNL     1       6.820   5.598  15.752  0.00  0.00    +0.000 A 
ATOM     14  C   UNL     1       5.457   5.246  15.685  0.00  0.00    +0.000 A 
ATOM     15  C   UNL     1       5.058   4.433  14.609  0.00  0.00    +0.000 A 
ATOM     16  C   UNL     1       5.970   4.011  13.635  0.00  0.00    +0.000 A 
ENDBRANCH   1  14
BRANCH   3  17
ATOM     17  C   UNL     1       2.371   4.361  19.584  0.00  0.00    +0.000 A 
ATOM     18  C   UNL     1       2.786   4.360  20.929  0.00  0.00    +0.000 A 
ATOM     19  C   UNL     1       2.226   3.487  21.867  0.00  0.00    +0.000 A 
ATOM     20  C   UNL     1       1.227   2.600  21.484  0.00  0.00    +0.000 A 
ATOM     21  C   UNL     1       0.788   2.584  20.164  0.00  0.00    +0.000 A 
ATOM     22  C   UNL     1       1.359   3.450  19.228  0.00  0.00    +0.000 A 
ENDBRANCH   3  17
BRANCH   6  23
ATOM     23  C   UNL     1       1.210   9.830  19.369  0.00  0.00    +0.000 C 
ATOM     24  C   UNL     1      -0.047  10.174  18.572  0.00  0.00    +0.000 C 
ATOM     25  C   UNL     1      -0.858  11.043  19.526  0.00  0.00    +0.000 C 
ATOM     26  C   UNL     1      -0.497  10.569  20.931  0.00  0.00    +0.000 C 
ATOM     27  C   UNL     1       0.655   9.581  20.773  0.00  0.00    +0.000 C 
ENDBRANCH   6  23
TORSDOF 3
ENDMDL
MODEL 8
REMARK VINA RESULT:      -7.9      1.086      6.720
REMARK  Name = 
REMARK  3 active torsions:
REMARK  status: ('A' for Active; 'I' for Inactive)
REMARK    1  A    between atoms: C_4  and  C_5
REMARK    2  A    between atoms: C_7  and  C_8
REMARK    3  A    between atoms: C_16  and  C_17
REMARK                            x       y       z     vdW  Elec       q    Type
REMARK                         _______ _______ _______ _____ _____    ______ ____
ROOT
ATOM      1  C   UNL     1       4.464   5.766  16.711  0.00  0.00    +0.000 A 
ATOM      2  C   UNL     1       3.914   4.869  17.641  0.00  0.00    +0.000 A 
ATOM      3  C   UNL     1       2.979   5.285  18.610  0.00  0.00    +0.000 A 
ATOM      4  C   UNL     1       2.656   6.653  18.577  0.00  0.00    +0.000 A 
ATOM      5  N   UNL     1       1.814   7.415  19.353  0.00  0.00    +0.000 NA
ATOM      6  C   UNL     1       1.909   8.648  18.897  0.00  0.00    +0.000 A 
ATOM      7  N   UNL     1       2.776   8.707  17.832  0.00  0.00    +0.000 N 
ATOM      8  C   UNL     1       3.269   7.450  17.620  0.00  0.00    +0.000 A 
ATOM      9  N   UNL     1       4.162   7.092  16.682  0.00  0.00    +0.000 NA
ATOM     10  H   UNL     1       3.030   9.523  17.298  0.00  0.00    +0.000 HD
ENDROOT
BRANCH   1  14
ATOM     11  C   UNL     1       7.334   4.383  13.799  0.00  0.00    +0.000 A 
ATOM     12  C   UNL     1       5.995   4.034  13.675  0.00  0.00    +0.000 A 
ATOM     13  C   UNL     1       5.060   4.497  14.606  0.00  0.00    +0.000 A 
ATOM     14  C   UNL     1       5.443   5.308  15.694  0.00  0.00    +0.000 A 
ATOM     15  C   UNL     1       6.802   5.657  15.785  0.00  0.00    +0.000 A 
ATOM     16  C   UNL     1       7.738   5.200  14.851  0.00  0.00    +0.000 A 
ENDBRANCH   1  14
BRANCH   3  17
ATOM     17  C   UNL     1       2.373   4.367  19.592  0.00  0.00    +0.000 A 
ATOM     18  C   UNL     1       1.310   3.515  19.241  0.00  0.00    +0.000 A 
ATOM     19  C   UNL     1       0.717   2.661  20.176  0.00  0.00    +0.000 A 
ATOM     20  C   UNL     1       1.182   2.631  21.486  0.00  0.00    +0.000 A 
ATOM     21  C   UNL     1       2.238   3.454  21.861  0.00  0.00    +0.000 A 
ATOM     22  C   UNL     1       2.820   4.314  20.926  0.00  0.00    +0.000 A 
ENDBRANCH   3  17
BRANCH   6  23
ATOM     23  C   UNL     1       1.201   9.837  19.451  0.00  0.00    +0.000 C 
ATOM     24  C   UNL     1      -0.092  10.151  18.701  0.00  0.00    +0.000 C 
ATOM     25  C   UNL     1      -0.881  11.013  19.679  0.00  0.00    +0.000 C 
ATOM     26  C   UNL     1      -0.458  10.558  21.073  0.00  0.00    +0.000 C 
ATOM     27  C   UNL     1       0.705   9.589  20.878  0.00  0.00    +0.000 C 
ENDBRANCH   6  23
TORSDOF 3
ENDMDL
MODEL 9
REMARK VINA RESULT:      -7.4      3.688      9.204
REMARK  Name = 
REMARK  3 active torsions:
REMARK  status: ('A' for Active; 'I' for Inactive)
REMARK    1  A    between atoms: C_4  and  C_5
REMARK    2  A    between atoms: C_7  and  C_8
REMARK    3  A    between atoms: C_16  and  C_17
REMARK                            x       y       z     vdW  Elec       q    Type
REMARK                         _______ _______ _______ _____ _____    ______ ____
ROOT
ATOM      1  C   UNL     1       1.036  10.079  18.704  0.00  0.00    +0.000 A 
ATOM      2  C   UNL     1      -0.326  10.115  18.364  0.00  0.00    +0.000 A 
ATOM      3  C   UNL     1      -1.034  11.329  18.257  0.00  0.00    +0.000 A 
ATOM      4  C   UNL     1      -0.278  12.484  18.525  0.00  0.00    +0.000 A 
ATOM      5  N   UNL     1      -0.615  13.818  18.534  0.00  0.00    +0.000 NA
ATOM      6  C   UNL     1       0.478  14.470  18.874  0.00  0.00    +0.000 A 
ATOM      7  N   UNL     1       1.524  13.599  19.069  0.00  0.00    +0.000 N 
ATOM      8  C   UNL     1       1.059  12.330  18.861  0.00  0.00    +0.000 A 
ATOM      9  N   UNL     1       1.767  11.194  18.973  0.00  0.00    +0.000 NA
ATOM     10  H   UNL     1       2.468  13.831  19.334  0.00  0.00    +0.000 HD
ENDROOT
BRANCH   1  14
ATOM     11  C   UNL     1       3.096   6.298  18.987  0.00  0.00    +0.000 A 
ATOM     12  C   UNL     1       3.235   7.081  17.848  0.00  0.00    +0.000 A 
ATOM     13  C   UNL     1       2.583   8.315  17.762  0.00  0.00    +0.000 A 
ATOM     14  C   UNL     1       1.765   8.792  18.806  0.00  0.00    +0.000 A 
ATOM     15  C   UNL     1       1.655   7.984  19.953  0.00  0.00    +0.000 A 
ATOM     16  C   UNL     1       2.311   6.751  20.044  0.00  0.00    +0.000 A 
ENDBRANCH   1  14
BRANCH   3  17
ATOM     17  C   UNL     1      -2.461  11.401  17.890  0.00  0.00    +0.000 A 
ATOM     18  C   UNL     1      -3.439  11.790  18.825  0.00  0.00    +0.000 A 
ATOM     19  C   UNL     1      -4.795  11.836  18.488  0.00  0.00    +0.000 A 
ATOM     20  C   UNL     1      -5.205  11.504  17.202  0.00  0.00    +0.000 A 
ATOM     21  C   UNL     1      -4.262  11.126  16.253  0.00  0.00    +0.000 A 
ATOM     22  C   UNL     1      -2.908  11.070  16.598  0.00  0.00    +0.000 A 
ENDBRANCH   3  17
BRANCH   6  23
ATOM     23  C   UNL     1       0.590  15.946  19.050  0.00  0.00    +0.000 C 
ATOM     24  C   UNL     1       1.809  16.530  18.338  0.00  0.00    +0.000 C 
ATOM     25  C   UNL     1       1.479  18.011  18.203  0.00  0.00    +0.000 C 
ATOM     26  C   UNL     1      -0.043  18.092  18.105  0.00  0.00    +0.000 C 
ATOM     27  C   UNL     1      -0.570  16.688  18.384  0.00  0.00    +0.000 C 
ENDBRANCH   6  23
TORSDOF 3
ENDMDL
