MODEL 1
REMARK VINA RESULT:      -7.8      0.000      0.000
REMARK  Name = 
REMARK  11 active torsions:
REMARK  status: ('A' for Active; 'I' for Inactive)
REMARK    1  A    between atoms: C_1  and  O_2
REMARK    2  A    between atoms: O_2  and  C_3
REMARK    3  A    between atoms: C_3  and  C_5
REMARK    4  A    between atoms: C_5  and  N_6
REMARK    5  A    between atoms: C_10  and  C_12
REMARK    6  A    between atoms: C_12  and  N_13
REMARK    7  A    between atoms: C_14  and  C_16
REMARK    8  A    between atoms: C_19  and  C_20
REMARK    9  A    between atoms: C_25  and  C_26
REMARK   10  A    between atoms: C_26  and  C_27
REMARK   11  A    between atoms: C_27  and  O_29
REMARK                            x       y       z     vdW  Elec       q    Type
REMARK                         _______ _______ _______ _____ _____    ______ ____
ROOT
ATOM      1  N   UNL     1       5.948   5.711  17.811  0.00  0.00    +0.000 N 
ATOM      2  C   UNL     1       5.299   6.748  17.012  0.00  0.00    +0.000 C 
ATOM      3  C   UNL     1       3.775   6.704  17.092  0.00  0.00    +0.000 C 
ATOM      4  N   UNL     1       3.340   6.604  18.485  0.00  0.00    +0.000 N 
ATOM      5  C   UNL     1       2.471   7.560  18.992  0.00  0.00    +0.000 C 
ATOM      6  O   UNL     1       2.158   8.560  18.336  0.00  0.00    +0.000 OA
ATOM      7  C   UNL     1       3.913   5.474  19.239  0.00  0.00    +0.000 C 
ATOM      8  C   UNL     1       5.439   5.309  19.035  0.00  0.00    +0.000 C 
ATOM      9  O   UNL     1       6.104   4.645  19.832  0.00  0.00    +0.000 OA
ENDROOT
BRANCH   1  10
ATOM     10  C   UNL     1       7.173   5.090  17.300  0.00  0.00    +0.000 C 
BRANCH  10  11
ATOM     11  C   UNL     1       7.053   4.888  15.788  0.00  0.00    +0.000 C 
ATOM     12  O   UNL     1       7.743   5.453  14.944  0.00  0.00    +0.000 OA
BRANCH  11  14
ATOM     13  C   UNL     1       5.632   3.987  14.153  0.00  0.00    +0.000 C 
ATOM     14  O   UNL     1       6.084   3.970  15.510  0.00  0.00    +0.000 OA
ENDBRANCH  11  14
ENDBRANCH  10  11
ENDBRANCH   1  10
BRANCH   5  15
ATOM     15  C   UNL     1       1.977   7.447  20.441  0.00  0.00    +0.000 C 
BRANCH  15  16
ATOM     16  N   UNL     1       0.949   8.442  20.702  0.00  0.00    +0.000 N 
ATOM     17  C   UNL     1       0.991   9.287  21.790  0.00  0.00    +0.000 C 
ATOM     18  O   UNL     1       1.913   9.293  22.602  0.00  0.00    +0.000 OA
ATOM     19  H   UNL     1       0.249   8.564  19.985  0.00  0.00    +0.000 HD
BRANCH  17  20
ATOM     20  C   UNL     1      -0.139  10.246  21.917  0.00  0.00    +0.000 A 
ATOM     21  C   UNL     1      -0.804  10.448  23.135  0.00  0.00    +0.000 A 
ATOM     22  C   UNL     1      -1.860  11.360  23.217  0.00  0.00    +0.000 A 
ATOM     23  C   UNL     1      -2.257  12.083  22.086  0.00  0.00    +0.000 A 
ATOM     24  C   UNL     1      -1.592  11.889  20.870  0.00  0.00    +0.000 A 
ATOM     25  C   UNL     1      -0.533  10.979  20.789  0.00  0.00    +0.000 A 
BRANCH  23  26
ATOM     26  C   UNL     1      -3.383  13.058  22.195  0.00  0.00    +0.000 C 
ATOM     27  N   UNL     1      -3.226  14.334  22.051  0.00  0.00    +0.000 NA
ATOM     28  N   UNL     1      -4.649  12.627  22.449  0.00  0.00    +0.000 N 
ATOM     29  H   UNL     1      -2.243  14.585  21.915  0.00  0.00    +0.000 HD
ATOM     30  H   UNL     1      -4.926  11.756  22.013  0.00  0.00    +0.000 HD
ATOM     31  H   UNL     1      -5.320  13.372  22.288  0.00  0.00    +0.000 HD
ENDBRANCH  23  26
ENDBRANCH  17  20
ENDBRANCH  15  16
ENDBRANCH   5  15
BRANCH   7  32
ATOM     32  C   UNL     1       3.293   4.123  18.867  0.00  0.00    +0.000 C 
BRANCH  32  33
ATOM     33  C   UNL     1       1.798   4.157  18.801  0.00  0.00    +0.000 C 
ATOM     34  O   UNL     1       1.081   4.209  19.790  0.00  0.00    +0.000 OA
BRANCH  33  35
ATOM     35  O   UNL     1       1.292   4.132  17.550  0.00  0.00    +0.000 OA
ATOM     36  H   UNL     1       0.401   4.520  17.435  0.00  0.00    +0.000 HD
ENDBRANCH  33  35
ENDBRANCH  32  33
ENDBRANCH   7  32
TORSDOF 10
ENDMDL
MODEL 2
REMARK VINA RESULT:      -7.6      0.470      1.046
REMARK  Name = 
REMARK  11 active torsions:
REMARK  status: ('A' for Active; 'I' for Inactive)
REMARK    1  A    between atoms: C_1  and  O_2
REMARK    2  A    between atoms: O_2  and  C_3
REMARK    3  A    between atoms: C_3  and  C_5
REMARK    4  A    between atoms: C_5  and  N_6
REMARK    5  A    between atoms: C_10  and  C_12
REMARK    6  A    between atoms: C_12  and  N_13
REMARK    7  A    between atoms: C_14  and  C_16
REMARK    8  A    between atoms: C_19  and  C_20
REMARK    9  A    between atoms: C_25  and  C_26
REMARK   10  A    between atoms: C_26  and  C_27
REMARK   11  A    between atoms: C_27  and  O_29
REMARK                            x       y       z     vdW  Elec       q    Type
REMARK                         _______ _______ _______ _____ _____    ______ ____
ROOT
ATOM      1  N   UNL     1       5.969   5.880  17.872  0.00  0.00    +0.000 N 
ATOM      2  C   UNL     1       5.357   6.957  17.097  0.00  0.00    +0.000 C 
ATOM      3  C   UNL     1       3.832   6.902  17.091  0.00  0.00    +0.000 C 
ATOM      4  N   UNL     1       3.322   6.723  18.450  0.00  0.00    +0.000 N 
ATOM      5  C   UNL     1       2.419   7.646  18.962  0.00  0.00    +0.000 C 
ATOM      6  O   UNL     1       2.136   8.679  18.346  0.00  0.00    +0.000 OA
ATOM      7  C   UNL     1       3.861   5.555  19.172  0.00  0.00    +0.000 C 
ATOM      8  C   UNL     1       5.397   5.408  19.042  0.00  0.00    +0.000 C 
ATOM      9  O   UNL     1       6.022   4.704  19.836  0.00  0.00    +0.000 OA
ENDROOT
BRANCH   1  10
ATOM     10  C   UNL     1       7.224   5.293  17.394  0.00  0.00    +0.000 C 
BRANCH  10  11
ATOM     11  C   UNL     1       6.986   4.592  16.055  0.00  0.00    +0.000 C 
ATOM     12  O   UNL     1       6.226   3.644  15.881  0.00  0.00    +0.000 OA
BRANCH  11  14
ATOM     13  C   UNL     1       7.234   4.953  13.751  0.00  0.00    +0.000 C 
ATOM     14  O   UNL     1       7.723   5.186  15.075  0.00  0.00    +0.000 OA
ENDBRANCH  11  14
ENDBRANCH  10  11
ENDBRANCH   1  10
BRANCH   5  15
ATOM     15  C   UNL     1       1.848   7.450  20.374  0.00  0.00    +0.000 C 
BRANCH  15  16
ATOM     16  N   UNL     1       0.862   8.478  20.665  0.00  0.00    +0.000 N 
ATOM     17  C   UNL     1       0.959   9.314  21.756  0.00  0.00    +0.000 C 
ATOM     18  O   UNL     1       1.900   9.283  22.546  0.00  0.00    +0.000 OA
ATOM     19  H   UNL     1       0.149   8.628  19.966  0.00  0.00    +0.000 HD
BRANCH  17  20
ATOM     20  C   UNL     1      -0.134  10.310  21.915  0.00  0.00    +0.000 A 
ATOM     21  C   UNL     1      -0.836  10.451  23.121  0.00  0.00    +0.000 A 
ATOM     22  C   UNL     1      -1.855  11.400  23.235  0.00  0.00    +0.000 A 
ATOM     23  C   UNL     1      -2.179  12.222  22.149  0.00  0.00    +0.000 A 
ATOM     24  C   UNL     1      -1.476  12.089  20.946  0.00  0.00    +0.000 A 
ATOM     25  C   UNL     1      -0.454  11.141  20.833  0.00  0.00    +0.000 A 
BRANCH  23  26
ATOM     26  C   UNL     1      -3.266  13.235  22.292  0.00  0.00    +0.000 C 
ATOM     27  N   UNL     1      -4.075  13.262  23.302  0.00  0.00    +0.000 NA
ATOM     28  N   UNL     1      -3.446  14.196  21.344  0.00  0.00    +0.000 N 
ATOM     29  H   UNL     1      -3.912  12.481  23.942  0.00  0.00    +0.000 HD
ATOM     30  H   UNL     1      -2.608  14.578  20.924  0.00  0.00    +0.000 HD
ATOM     31  H   UNL     1      -4.075  14.919  21.682  0.00  0.00    +0.000 HD
ENDBRANCH  23  26
ENDBRANCH  17  20
ENDBRANCH  15  16
ENDBRANCH   5  15
BRANCH   7  32
ATOM     32  C   UNL     1       3.272   4.224  18.692  0.00  0.00    +0.000 C 
BRANCH  32  33
ATOM     33  C   UNL     1       1.780   4.250  18.565  0.00  0.00    +0.000 C 
ATOM     34  O   UNL     1       1.196   4.301  17.492  0.00  0.00    +0.000 OA
BRANCH  33  35
ATOM     35  O   UNL     1       1.118   4.204  19.739  0.00  0.00    +0.000 OA
ATOM     36  H   UNL     1       1.574   3.747  20.476  0.00  0.00    +0.000 HD
ENDBRANCH  33  35
ENDBRANCH  32  33
ENDBRANCH   7  32
TORSDOF 10
ENDMDL
MODEL 3
REMARK VINA RESULT:      -7.6      1.310      1.454
REMARK  Name = 
REMARK  11 active torsions:
REMARK  status: ('A' for Active; 'I' for Inactive)
REMARK    1  A    between atoms: C_1  and  O_2
REMARK    2  A    between atoms: O_2  and  C_3
REMARK    3  A    between atoms: C_3  and  C_5
REMARK    4  A    between atoms: C_5  and  N_6
REMARK    5  A    between atoms: C_10  and  C_12
REMARK    6  A    between atoms: C_12  and  N_13
REMARK    7  A    between atoms: C_14  and  C_16
REMARK    8  A    between atoms: C_19  and  C_20
REMARK    9  A    between atoms: C_25  and  C_26
REMARK   10  A    between atoms: C_26  and  C_27
REMARK   11  A    between atoms: C_27  and  O_29
REMARK                            x       y       z     vdW  Elec       q    Type
REMARK                         _______ _______ _______ _____ _____    ______ ____
ROOT
ATOM      1  N   UNL     1       5.863   5.449  17.675  0.00  0.00    +0.000 N 
ATOM      2  C   UNL     1       5.534   6.694  16.985  0.00  0.00    +0.000 C 
ATOM      3  C   UNL     1       4.032   6.923  16.838  0.00  0.00    +0.000 C 
ATOM      4  N   UNL     1       3.355   6.703  18.116  0.00  0.00    +0.000 N 
ATOM      5  C   UNL     1       2.577   7.719  18.654  0.00  0.00    +0.000 C 
ATOM      6  O   UNL     1       2.545   8.844  18.144  0.00  0.00    +0.000 OA
ATOM      7  C   UNL     1       3.603   5.388  18.736  0.00  0.00    +0.000 C 
ATOM      8  C   UNL     1       5.094   4.974  18.725  0.00  0.00    +0.000 C 
ATOM      9  O   UNL     1       5.498   4.089  19.481  0.00  0.00    +0.000 OA
ENDROOT
BRANCH   1  10
ATOM     10  C   UNL     1       7.041   4.693  17.242  0.00  0.00    +0.000 C 
BRANCH  10  11
ATOM     11  C   UNL     1       7.067   4.612  15.715  0.00  0.00    +0.000 C 
ATOM     12  O   UNL     1       7.790   5.285  14.986  0.00  0.00    +0.000 OA
BRANCH  11  14
ATOM     13  C   UNL     1       5.613   3.948  13.998  0.00  0.00    +0.000 C 
ATOM     14  O   UNL     1       6.188   3.667  15.277  0.00  0.00    +0.000 OA
ENDBRANCH  11  14
ENDBRANCH  10  11
ENDBRANCH   1  10
BRANCH   5  15
ATOM     15  C   UNL     1       1.831   7.489  19.976  0.00  0.00    +0.000 C 
BRANCH  15  16
ATOM     16  N   UNL     1       1.346   8.752  20.507  0.00  0.00    +0.000 N 
ATOM     17  C   UNL     1       0.212   8.846  21.284  0.00  0.00    +0.000 C 
ATOM     18  O   UNL     1      -0.456   7.871  21.619  0.00  0.00    +0.000 OA
ATOM     19  H   UNL     1       1.942   9.556  20.370  0.00  0.00    +0.000 HD
BRANCH  17  20
ATOM     20  C   UNL     1      -0.153  10.212  21.745  0.00  0.00    +0.000 A 
ATOM     21  C   UNL     1      -0.999  10.420  22.844  0.00  0.00    +0.000 A 
ATOM     22  C   UNL     1      -1.318  11.718  23.251  0.00  0.00    +0.000 A 
ATOM     23  C   UNL     1      -0.789  12.821  22.569  0.00  0.00    +0.000 A 
ATOM     24  C   UNL     1       0.061  12.618  21.477  0.00  0.00    +0.000 A 
ATOM     25  C   UNL     1       0.382  11.319  21.071  0.00  0.00    +0.000 A 
BRANCH  23  26
ATOM     26  C   UNL     1      -1.135  14.200  23.024  0.00  0.00    +0.000 C 
ATOM     27  N   UNL     1      -1.030  14.584  24.255  0.00  0.00    +0.000 NA
ATOM     28  N   UNL     1      -1.579  15.131  22.134  0.00  0.00    +0.000 N 
ATOM     29  H   UNL     1      -0.741  13.818  24.869  0.00  0.00    +0.000 HD
ATOM     30  H   UNL     1      -1.154  15.116  21.216  0.00  0.00    +0.000 HD
ATOM     31  H   UNL     1      -1.571  16.057  22.551  0.00  0.00    +0.000 HD
ENDBRANCH  23  26
ENDBRANCH  17  20
ENDBRANCH  15  16
ENDBRANCH   5  15
BRANCH   7  32
ATOM     32  C   UNL     1       2.846   4.245  18.050  0.00  0.00    +0.000 C 
BRANCH  32  33
ATOM     33  C   UNL     1       2.174   3.318  19.015  0.00  0.00    +0.000 C 
ATOM     34  O   UNL     1       1.062   3.521  19.480  0.00  0.00    +0.000 OA
BRANCH  33  35
ATOM     35  O   UNL     1       2.894   2.221  19.331  0.00  0.00    +0.000 OA
ATOM     36  H   UNL     1       3.717   2.375  19.840  0.00  0.00    +0.000 HD
ENDBRANCH  33  35
ENDBRANCH  32  33
ENDBRANCH   7  32
TORSDOF 10
ENDMDL
MODEL 4
REMARK VINA RESULT:      -7.5      0.631      1.106
REMARK  Name = 
REMARK  11 active torsions:
REMARK  status: ('A' for Active; 'I' for Inactive)
REMARK    1  A    between atoms: C_1  and  O_2
REMARK    2  A    between atoms: O_2  and  C_3
REMARK    3  A    between atoms: C_3  and  C_5
REMARK    4  A    between atoms: C_5  and  N_6
REMARK    5  A    between atoms: C_10  and  C_12
REMARK    6  A    between atoms: C_12  and  N_13
REMARK    7  A    between atoms: C_14  and  C_16
REMARK    8  A    between atoms: C_19  and  C_20
REMARK    9  A    between atoms: C_25  and  C_26
REMARK   10  A    between atoms: C_26  and  C_27
REMARK   11  A    between atoms: C_27  and  O_29
REMARK                            x       y       z     vdW  Elec       q    Type
REMARK                         _______ _______ _______ _____ _____    ______ ____
ROOT
ATOM      1  N   UNL     1       5.768   5.439  17.886  0.00  0.00    +0.000 N 
ATOM      2  C   UNL     1       5.117   6.420  17.020  0.00  0.00    +0.000 C 
ATOM      3  C   UNL     1       3.599   6.445  17.173  0.00  0.00    +0.000 C 
ATOM      4  N   UNL     1       3.229   6.497  18.587  0.00  0.00    +0.000 N 
ATOM      5  C   UNL     1       2.421   7.532  19.038  0.00  0.00    +0.000 C 
ATOM      6  O   UNL     1       2.113   8.476  18.302  0.00  0.00    +0.000 OA
ATOM      7  C   UNL     1       3.798   5.423  19.422  0.00  0.00    +0.000 C 
ATOM      8  C   UNL     1       5.304   5.177  19.166  0.00  0.00    +0.000 C 
ATOM      9  O   UNL     1       5.984   4.567  19.993  0.00  0.00    +0.000 OA
ENDROOT
BRANCH   1  10
ATOM     10  C   UNL     1       6.942   4.723  17.383  0.00  0.00    +0.000 C 
BRANCH  10  11
ATOM     11  C   UNL     1       6.990   4.822  15.857  0.00  0.00    +0.000 C 
ATOM     12  O   UNL     1       7.607   5.674  15.225  0.00  0.00    +0.000 OA
BRANCH  11  14
ATOM     13  C   UNL     1       6.052   3.954  13.889  0.00  0.00    +0.000 C 
ATOM     14  O   UNL     1       6.267   3.812  15.297  0.00  0.00    +0.000 OA
ENDBRANCH  11  14
ENDBRANCH  10  11
ENDBRANCH   1  10
BRANCH   5  15
ATOM     15  C   UNL     1       1.995   7.579  20.512  0.00  0.00    +0.000 C 
BRANCH  15  16
ATOM     16  N   UNL     1       0.976   8.597  20.709  0.00  0.00    +0.000 N 
ATOM     17  C   UNL     1       0.952   9.421  21.814  0.00  0.00    +0.000 C 
ATOM     18  O   UNL     1       1.805   9.386  22.697  0.00  0.00    +0.000 OA
ATOM     19  H   UNL     1       0.339   8.751  19.941  0.00  0.00    +0.000 HD
BRANCH  17  20
ATOM     20  C   UNL     1      -0.159  10.408  21.869  0.00  0.00    +0.000 A 
ATOM     21  C   UNL     1      -0.550  11.144  20.741  0.00  0.00    +0.000 A 
ATOM     22  C   UNL     1      -1.601  12.061  20.829  0.00  0.00    +0.000 A 
ATOM     23  C   UNL     1      -2.276  12.246  22.042  0.00  0.00    +0.000 A 
ATOM     24  C   UNL     1      -1.893  11.509  23.168  0.00  0.00    +0.000 A 
ATOM     25  C   UNL     1      -0.843  10.589  23.079  0.00  0.00    +0.000 A 
BRANCH  23  26
ATOM     26  C   UNL     1      -3.400  13.226  22.115  0.00  0.00    +0.000 C 
ATOM     27  N   UNL     1      -3.363  14.288  22.852  0.00  0.00    +0.000 NA
ATOM     28  N   UNL     1      -4.533  13.034  21.383  0.00  0.00    +0.000 N 
ATOM     29  H   UNL     1      -2.507  14.336  23.410  0.00  0.00    +0.000 HD
ATOM     30  H   UNL     1      -4.411  12.646  20.456  0.00  0.00    +0.000 HD
ATOM     31  H   UNL     1      -5.103  13.875  21.380  0.00  0.00    +0.000 HD
ENDBRANCH  23  26
ENDBRANCH  17  20
ENDBRANCH  15  16
ENDBRANCH   5  15
BRANCH   7  32
ATOM     32  C   UNL     1       3.112   4.068  19.212  0.00  0.00    +0.000 C 
BRANCH  32  33
ATOM     33  C   UNL     1       1.990   3.819  20.171  0.00  0.00    +0.000 C 
ATOM     34  O   UNL     1       1.995   4.208  21.330  0.00  0.00    +0.000 OA
BRANCH  33  35
ATOM     35  O   UNL     1       0.953   3.129  19.652  0.00  0.00    +0.000 OA
ATOM     36  H   UNL     1       0.814   3.217  18.686  0.00  0.00    +0.000 HD
ENDBRANCH  33  35
ENDBRANCH  32  33
ENDBRANCH   7  32
TORSDOF 10
ENDMDL
MODEL 5
REMARK VINA RESULT:      -7.5      2.125      3.212
REMARK  Name = 
REMARK  11 active torsions:
REMARK  status: ('A' for Active; 'I' for Inactive)
REMARK    1  A    between atoms: C_1  and  O_2
REMARK    2  A    between atoms: O_2  and  C_3
REMARK    3  A    between atoms: C_3  and  C_5
REMARK    4  A    between atoms: C_5  and  N_6
REMARK    5  A    between atoms: C_10  and  C_12
REMARK    6  A    between atoms: C_12  and  N_13
REMARK    7  A    between atoms: C_14  and  C_16
REMARK    8  A    between atoms: C_19  and  C_20
REMARK    9  A    between atoms: C_25  and  C_26
REMARK   10  A    between atoms: C_26  and  C_27
REMARK   11  A    between atoms: C_27  and  O_29
REMARK                            x       y       z     vdW  Elec       q    Type
REMARK                         _______ _______ _______ _____ _____    ______ ____
ROOT
ATOM      1  N   UNL     1       5.621   4.307  17.356  0.00  0.00    +0.000 N 
ATOM      2  C   UNL     1       4.456   4.251  16.475  0.00  0.00    +0.000 C 
ATOM      3  C   UNL     1       3.344   3.350  17.004  0.00  0.00    +0.000 C 
ATOM      4  N   UNL     1       3.068   3.650  18.409  0.00  0.00    +0.000 N 
ATOM      5  C   UNL     1       1.778   3.998  18.787  0.00  0.00    +0.000 C 
ATOM      6  O   UNL     1       0.889   4.182  17.948  0.00  0.00    +0.000 OA
ATOM      7  C   UNL     1       4.238   3.579  19.304  0.00  0.00    +0.000 C 
ATOM      8  C   UNL     1       5.492   4.286  18.735  0.00  0.00    +0.000 C 
ATOM      9  O   UNL     1       6.421   4.599  19.481  0.00  0.00    +0.000 OA
ENDROOT
BRANCH   1  10
ATOM     10  C   UNL     1       6.955   4.392  16.757  0.00  0.00    +0.000 C 
BRANCH  10  11
ATOM     11  C   UNL     1       7.149   5.776  16.133  0.00  0.00    +0.000 C 
ATOM     12  O   UNL     1       6.882   6.841  16.682  0.00  0.00    +0.000 OA
BRANCH  11  14
ATOM     13  C   UNL     1       7.030   4.702  14.050  0.00  0.00    +0.000 C 
ATOM     14  O   UNL     1       7.687   5.659  14.886  0.00  0.00    +0.000 OA
ENDBRANCH  11  14
ENDBRANCH  10  11
ENDBRANCH   1  10
BRANCH   5  15
ATOM     15  C   UNL     1       1.467   4.280  20.263  0.00  0.00    +0.000 C 
BRANCH  15  16
ATOM     16  N   UNL     1       1.108   5.677  20.444  0.00  0.00    +0.000 N 
ATOM     17  C   UNL     1       1.983   6.709  20.182  0.00  0.00    +0.000 C 
ATOM     18  O   UNL     1       3.117   6.535  19.742  0.00  0.00    +0.000 OA
ATOM     19  H   UNL     1       0.143   5.868  20.670  0.00  0.00    +0.000 HD
BRANCH  17  20
ATOM     20  C   UNL     1       1.464   8.082  20.422  0.00  0.00    +0.000 A 
ATOM     21  C   UNL     1       1.061   8.509  21.696  0.00  0.00    +0.000 A 
ATOM     22  C   UNL     1       0.581   9.807  21.885  0.00  0.00    +0.000 A 
ATOM     23  C   UNL     1       0.505  10.695  20.805  0.00  0.00    +0.000 A 
ATOM     24  C   UNL     1       0.912  10.275  19.533  0.00  0.00    +0.000 A 
ATOM     25  C   UNL     1       1.395   8.977  19.345  0.00  0.00    +0.000 A 
BRANCH  23  26
ATOM     26  C   UNL     1      -0.004  12.081  21.028  0.00  0.00    +0.000 C 
ATOM     27  N   UNL     1       0.712  13.017  21.563  0.00  0.00    +0.000 NA
ATOM     28  N   UNL     1      -1.270  12.420  20.659  0.00  0.00    +0.000 N 
ATOM     29  H   UNL     1       1.629  12.673  21.859  0.00  0.00    +0.000 HD
ATOM     30  H   UNL     1      -1.616  12.009  19.802  0.00  0.00    +0.000 HD
ATOM     31  H   UNL     1      -1.392  13.429  20.683  0.00  0.00    +0.000 HD
ENDBRANCH  23  26
ENDBRANCH  17  20
ENDBRANCH  15  16
ENDBRANCH   5  15
BRANCH   7  32
ATOM     32  C   UNL     1       4.673   2.143  19.616  0.00  0.00    +0.000 C 
BRANCH  32  33
ATOM     33  C   UNL     1       4.549   1.789  21.066  0.00  0.00    +0.000 C 
ATOM     34  O   UNL     1       3.548   2.014  21.730  0.00  0.00    +0.000 OA
BRANCH  33  35
ATOM     35  O   UNL     1       5.637   1.188  21.590  0.00  0.00    +0.000 OA
ATOM     36  H   UNL     1       5.607   0.211  21.646  0.00  0.00    +0.000 HD
ENDBRANCH  33  35
ENDBRANCH  32  33
ENDBRANCH   7  32
TORSDOF 10
ENDMDL
MODEL 6
REMARK VINA RESULT:      -7.5      1.169      1.579
REMARK  Name = 
REMARK  11 active torsions:
REMARK  status: ('A' for Active; 'I' for Inactive)
REMARK    1  A    between atoms: C_1  and  O_2
REMARK    2  A    between atoms: O_2  and  C_3
REMARK    3  A    between atoms: C_3  and  C_5
REMARK    4  A    between atoms: C_5  and  N_6
REMARK    5  A    between atoms: C_10  and  C_12
REMARK    6  A    between atoms: C_12  and  N_13
REMARK    7  A    between atoms: C_14  and  C_16
REMARK    8  A    between atoms: C_19  and  C_20
REMARK    9  A    between atoms: C_25  and  C_26
REMARK   10  A    between atoms: C_26  and  C_27
REMARK   11  A    between atoms: C_27  and  O_29
REMARK                            x       y       z     vdW  Elec       q    Type
REMARK                         _______ _______ _______ _____ _____    ______ ____
ROOT
ATOM      1  N   UNL     1       5.920   5.803  17.874  0.00  0.00    +0.000 N 
ATOM      2  C   UNL     1       5.296   6.856  17.076  0.00  0.00    +0.000 C 
ATOM      3  C   UNL     1       3.771   6.803  17.094  0.00  0.00    +0.000 C 
ATOM      4  N   UNL     1       3.282   6.667  18.466  0.00  0.00    +0.000 N 
ATOM      5  C   UNL     1       2.388   7.606  18.962  0.00  0.00    +0.000 C 
ATOM      6  O   UNL     1       2.096   8.620  18.318  0.00  0.00    +0.000 OA
ATOM      7  C   UNL     1       3.832   5.522  19.215  0.00  0.00    +0.000 C 
ATOM      8  C   UNL     1       5.365   5.369  19.068  0.00  0.00    +0.000 C 
ATOM      9  O   UNL     1       6.002   4.689  19.873  0.00  0.00    +0.000 OA
ENDROOT
BRANCH   1  10
ATOM     10  C   UNL     1       7.167   5.201  17.397  0.00  0.00    +0.000 C 
BRANCH  10  11
ATOM     11  C   UNL     1       6.929   4.536  16.039  0.00  0.00    +0.000 C 
ATOM     12  O   UNL     1       6.152   3.608  15.835  0.00  0.00    +0.000 OA
BRANCH  11  14
ATOM     13  C   UNL     1       7.189   4.976  13.749  0.00  0.00    +0.000 C 
ATOM     14  O   UNL     1       7.688   5.139  15.080  0.00  0.00    +0.000 OA
ENDBRANCH  11  14
ENDBRANCH  10  11
ENDBRANCH   1  10
BRANCH   5  15
ATOM     15  C   UNL     1       1.838   7.455  20.387  0.00  0.00    +0.000 C 
BRANCH  15  16
ATOM     16  N   UNL     1       1.343   8.733  20.874  0.00  0.00    +0.000 N 
ATOM     17  C   UNL     1       0.094   8.880  21.437  0.00  0.00    +0.000 C 
ATOM     18  O   UNL     1      -0.683   7.943  21.607  0.00  0.00    +0.000 OA
ATOM     19  H   UNL     1       2.001   9.498  20.879  0.00  0.00    +0.000 HD
BRANCH  17  20
ATOM     20  C   UNL     1      -0.265  10.254  21.881  0.00  0.00    +0.000 A 
ATOM     21  C   UNL     1       0.239  11.394  21.238  0.00  0.00    +0.000 A 
ATOM     22  C   UNL     1      -0.121  12.669  21.680  0.00  0.00    +0.000 A 
ATOM     23  C   UNL     1      -0.995  12.818  22.765  0.00  0.00    +0.000 A 
ATOM     24  C   UNL     1      -1.505  11.684  23.405  0.00  0.00    +0.000 A 
ATOM     25  C   UNL     1      -1.146  10.408  22.960  0.00  0.00    +0.000 A 
BRANCH  23  26
ATOM     26  C   UNL     1      -1.374  14.189  23.218  0.00  0.00    +0.000 C 
ATOM     27  N   UNL     1      -0.654  15.237  22.976  0.00  0.00    +0.000 NA
ATOM     28  N   UNL     1      -2.527  14.393  23.915  0.00  0.00    +0.000 N 
ATOM     29  H   UNL     1       0.218  14.997  22.497  0.00  0.00    +0.000 HD
ATOM     30  H   UNL     1      -3.326  13.837  23.638  0.00  0.00    +0.000 HD
ATOM     31  H   UNL     1      -2.743  15.385  23.967  0.00  0.00    +0.000 HD
ENDBRANCH  23  26
ENDBRANCH  17  20
ENDBRANCH  15  16
ENDBRANCH   5  15
BRANCH   7  32
ATOM     32  C   UNL     1       3.234   4.177  18.786  0.00  0.00    +0.000 C 
BRANCH  32  33
ATOM     33  C   UNL     1       1.737   4.178  18.755  0.00  0.00    +0.000 C 
ATOM     34  O   UNL     1       1.043   4.148  19.761  0.00  0.00    +0.000 OA
BRANCH  33  35
ATOM     35  O   UNL     1       1.204   4.221  17.517  0.00  0.00    +0.000 OA
ATOM     36  H   UNL     1       1.221   5.092  17.068  0.00  0.00    +0.000 HD
ENDBRANCH  33  35
ENDBRANCH  32  33
ENDBRANCH   7  32
TORSDOF 10
ENDMDL
MODEL 7
REMARK VINA RESULT:      -7.4      0.993      1.510
REMARK  Name = 
REMARK  11 active torsions:
REMARK  status: ('A' for Active; 'I' for Inactive)
REMARK    1  A    between atoms: C_1  and  O_2
REMARK    2  A    between atoms: O_2  and  C_3
REMARK    3  A    between atoms: C_3  and  C_5
REMARK    4  A    between atoms: C_5  and  N_6
REMARK    5  A    between atoms: C_10  and  C_12
REMARK    6  A    between atoms: C_12  and  N_13
REMARK    7  A    between atoms: C_14  and  C_16
REMARK    8  A    between atoms: C_19  and  C_20
REMARK    9  A    between atoms: C_25  and  C_26
REMARK   10  A    between atoms: C_26  and  C_27
REMARK   11  A    between atoms: C_27  and  O_29
REMARK                            x       y       z     vdW  Elec       q    Type
REMARK                         _______ _______ _______ _____ _____    ______ ____
ROOT
ATOM      1  N   UNL     1       4.834   5.102  17.587  0.00  0.00    +0.000 N 
ATOM      2  C   UNL     1       4.669   6.426  16.989  0.00  0.00    +0.000 C 
ATOM      3  C   UNL     1       3.241   6.954  17.079  0.00  0.00    +0.000 C 
ATOM      4  N   UNL     1       2.724   6.799  18.439  0.00  0.00    +0.000 N 
ATOM      5  C   UNL     1       2.255   7.917  19.117  0.00  0.00    +0.000 C 
ATOM      6  O   UNL     1       2.381   9.054  18.648  0.00  0.00    +0.000 OA
ATOM      7  C   UNL     1       2.786   5.428  18.979  0.00  0.00    +0.000 C 
ATOM      8  C   UNL     1       4.144   4.729  18.729  0.00  0.00    +0.000 C 
ATOM      9  O   UNL     1       4.464   3.740  19.390  0.00  0.00    +0.000 OA
ENDROOT
BRANCH   1  10
ATOM     10  C   UNL     1       5.758   4.155  16.959  0.00  0.00    +0.000 C 
BRANCH  10  11
ATOM     11  C   UNL     1       7.197   4.637  17.153  0.00  0.00    +0.000 C 
ATOM     12  O   UNL     1       7.799   4.650  18.223  0.00  0.00    +0.000 OA
BRANCH  11  14
ATOM     13  C   UNL     1       6.992   4.582  14.816  0.00  0.00    +0.000 C 
ATOM     14  O   UNL     1       7.727   5.029  15.960  0.00  0.00    +0.000 OA
ENDBRANCH  11  14
ENDBRANCH  10  11
ENDBRANCH   1  10
BRANCH   5  15
ATOM     15  C   UNL     1       1.677   7.763  20.530  0.00  0.00    +0.000 C 
BRANCH  15  16
ATOM     16  N   UNL     1       0.676   8.788  20.779  0.00  0.00    +0.000 N 
ATOM     17  C   UNL     1       0.733   9.635  21.865  0.00  0.00    +0.000 C 
ATOM     18  O   UNL     1       1.647   9.616  22.686  0.00  0.00    +0.000 OA
ATOM     19  H   UNL     1      -0.014   8.927  20.056  0.00  0.00    +0.000 HD
BRANCH  17  20
ATOM     20  C   UNL     1      -0.370  10.625  21.979  0.00  0.00    +0.000 A 
ATOM     21  C   UNL     1      -0.701  11.489  20.924  0.00  0.00    +0.000 A 
ATOM     22  C   UNL     1      -1.746  12.405  21.065  0.00  0.00    +0.000 A 
ATOM     23  C   UNL     1      -2.476  12.464  22.259  0.00  0.00    +0.000 A 
ATOM     24  C   UNL     1      -2.153  11.600  23.312  0.00  0.00    +0.000 A 
ATOM     25  C   UNL     1      -1.110  10.681  23.169  0.00  0.00    +0.000 A 
BRANCH  23  26
ATOM     26  C   UNL     1      -3.593  13.445  22.389  0.00  0.00    +0.000 C 
ATOM     27  N   UNL     1      -3.474  14.695  22.074  0.00  0.00    +0.000 NA
ATOM     28  N   UNL     1      -4.812  13.049  22.848  0.00  0.00    +0.000 N 
ATOM     29  H   UNL     1      -2.520  14.927  21.788  0.00  0.00    +0.000 HD
ATOM     30  H   UNL     1      -5.128  12.132  22.558  0.00  0.00    +0.000 HD
ATOM     31  H   UNL     1      -5.509  13.770  22.683  0.00  0.00    +0.000 HD
ENDBRANCH  23  26
ENDBRANCH  17  20
ENDBRANCH  15  16
ENDBRANCH   5  15
BRANCH   7  32
ATOM     32  C   UNL     1       1.722   4.498  18.386  0.00  0.00    +0.000 C 
BRANCH  32  33
ATOM     33  C   UNL     1       1.265   3.438  19.339  0.00  0.00    +0.000 C 
ATOM     34  O   UNL     1       0.572   3.667  20.320  0.00  0.00    +0.000 OA
BRANCH  33  35
ATOM     35  O   UNL     1       1.675   2.191  19.028  0.00  0.00    +0.000 OA
ATOM     36  H   UNL     1       0.982   1.571  18.719  0.00  0.00    +0.000 HD
ENDBRANCH  33  35
ENDBRANCH  32  33
ENDBRANCH   7  32
TORSDOF 10
ENDMDL
MODEL 8
REMARK VINA RESULT:      -7.3      2.904      4.562
REMARK  Name = 
REMARK  11 active torsions:
REMARK  status: ('A' for Active; 'I' for Inactive)
REMARK    1  A    between atoms: C_1  and  O_2
REMARK    2  A    between atoms: O_2  and  C_3
REMARK    3  A    between atoms: C_3  and  C_5
REMARK    4  A    between atoms: C_5  and  N_6
REMARK    5  A    between atoms: C_10  and  C_12
REMARK    6  A    between atoms: C_12  and  N_13
REMARK    7  A    between atoms: C_14  and  C_16
REMARK    8  A    between atoms: C_19  and  C_20
REMARK    9  A    between atoms: C_25  and  C_26
REMARK   10  A    between atoms: C_26  and  C_27
REMARK   11  A    between atoms: C_27  and  O_29
REMARK                            x       y       z     vdW  Elec       q    Type
REMARK                         _______ _______ _______ _____ _____    ______ ____
ROOT
ATOM      1  N   UNL     1       1.705   3.731  19.103  0.00  0.00    +0.000 N 
ATOM      2  C   UNL     1       1.485   4.362  20.403  0.00  0.00    +0.000 C 
ATOM      3  C   UNL     1       2.369   5.585  20.635  0.00  0.00    +0.000 C 
ATOM      4  N   UNL     1       2.321   6.476  19.476  0.00  0.00    +0.000 N 
ATOM      5  C   UNL     1       1.940   7.799  19.655  0.00  0.00    +0.000 C 
ATOM      6  O   UNL     1       1.519   8.206  20.744  0.00  0.00    +0.000 OA
ATOM      7  C   UNL     1       2.667   5.846  18.189  0.00  0.00    +0.000 C 
ATOM      8  C   UNL     1       1.979   4.478  17.968  0.00  0.00    +0.000 C 
ATOM      9  O   UNL     1       1.900   3.997  16.837  0.00  0.00    +0.000 OA
ENDROOT
BRANCH   1  10
ATOM     10  C   UNL     1       1.624   2.272  19.005  0.00  0.00    +0.000 C 
BRANCH  10  11
ATOM     11  C   UNL     1       3.029   1.690  18.837  0.00  0.00    +0.000 C 
ATOM     12  O   UNL     1       3.509   1.301  17.776  0.00  0.00    +0.000 OA
BRANCH  11  14
ATOM     13  C   UNL     1       4.808   2.571  20.088  0.00  0.00    +0.000 C 
ATOM     14  O   UNL     1       3.684   1.687  20.032  0.00  0.00    +0.000 OA
ENDBRANCH  11  14
ENDBRANCH  10  11
ENDBRANCH   1  10
BRANCH   5  15
ATOM     15  C   UNL     1       1.921   8.755  18.454  0.00  0.00    +0.000 C 
BRANCH  15  16
ATOM     16  N   UNL     1       0.569   9.235  18.214  0.00  0.00    +0.000 N 
ATOM     17  C   UNL     1       0.106  10.432  18.714  0.00  0.00    +0.000 C 
ATOM     18  O   UNL     1       0.804  11.204  19.368  0.00  0.00    +0.000 OA
ATOM     19  H   UNL     1       0.010   8.698  17.568  0.00  0.00    +0.000 HD
BRANCH  17  20
ATOM     20  C   UNL     1      -1.302  10.777  18.382  0.00  0.00    +0.000 A 
ATOM     21  C   UNL     1      -1.964  10.209  17.283  0.00  0.00    +0.000 A 
ATOM     22  C   UNL     1      -3.288  10.554  17.003  0.00  0.00    +0.000 A 
ATOM     23  C   UNL     1      -3.968  11.465  17.822  0.00  0.00    +0.000 A 
ATOM     24  C   UNL     1      -3.314  12.030  18.922  0.00  0.00    +0.000 A 
ATOM     25  C   UNL     1      -1.989  11.682  19.204  0.00  0.00    +0.000 A 
BRANCH  23  26
ATOM     26  C   UNL     1      -5.385  11.817  17.510  0.00  0.00    +0.000 C 
ATOM     27  N   UNL     1      -6.382  11.045  17.801  0.00  0.00    +0.000 NA
ATOM     28  N   UNL     1      -5.688  12.996  16.901  0.00  0.00    +0.000 N 
ATOM     29  H   UNL     1      -6.073  10.159  18.208  0.00  0.00    +0.000 HD
ATOM     30  H   UNL     1      -5.136  13.800  17.173  0.00  0.00    +0.000 HD
ATOM     31  H   UNL     1      -6.687  13.177  16.947  0.00  0.00    +0.000 HD
ENDBRANCH  23  26
ENDBRANCH  17  20
ENDBRANCH  15  16
ENDBRANCH   5  15
BRANCH   7  32
ATOM     32  C   UNL     1       4.170   5.589  18.027  0.00  0.00    +0.000 C 
BRANCH  32  33
ATOM     33  C   UNL     1       4.644   5.723  16.613  0.00  0.00    +0.000 C 
ATOM     34  O   UNL     1       4.869   6.799  16.077  0.00  0.00    +0.000 OA
BRANCH  33  35
ATOM     35  O   UNL     1       4.814   4.551  15.967  0.00  0.00    +0.000 OA
ATOM     36  H   UNL     1       4.309   3.787  16.315  0.00  0.00    +0.000 HD
ENDBRANCH  33  35
ENDBRANCH  32  33
ENDBRANCH   7  32
TORSDOF 10
ENDMDL
MODEL 9
REMARK VINA RESULT:      -7.3      0.839      1.026
REMARK  Name = 
REMARK  11 active torsions:
REMARK  status: ('A' for Active; 'I' for Inactive)
REMARK    1  A    between atoms: C_1  and  O_2
REMARK    2  A    between atoms: O_2  and  C_3
REMARK    3  A    between atoms: C_3  and  C_5
REMARK    4  A    between atoms: C_5  and  N_6
REMARK    5  A    between atoms: C_10  and  C_12
REMARK    6  A    between atoms: C_12  and  N_13
REMARK    7  A    between atoms: C_14  and  C_16
REMARK    8  A    between atoms: C_19  and  C_20
REMARK    9  A    between atoms: C_25  and  C_26
REMARK   10  A    between atoms: C_26  and  C_27
REMARK   11  A    between atoms: C_27  and  O_29
REMARK                            x       y       z     vdW  Elec       q    Type
REMARK                         _______ _______ _______ _____ _____    ______ ____
ROOT
ATOM      1  N   UNL     1       5.330   5.466  17.879  0.00  0.00    +0.000 N 
ATOM      2  C   UNL     1       4.927   6.684  17.179  0.00  0.00    +0.000 C 
ATOM      3  C   UNL     1       3.421   6.927  17.214  0.00  0.00    +0.000 C 
ATOM      4  N   UNL     1       2.911   6.775  18.577  0.00  0.00    +0.000 N 
ATOM      5  C   UNL     1       2.217   7.827  19.162  0.00  0.00    +0.000 C 
ATOM      6  O   UNL     1       2.131   8.928  18.608  0.00  0.00    +0.000 OA
ATOM      7  C   UNL     1       3.224   5.486  19.222  0.00  0.00    +0.000 C 
ATOM      8  C   UNL     1       4.698   5.050  19.040  0.00  0.00    +0.000 C 
ATOM      9  O   UNL     1       5.188   4.194  19.778  0.00  0.00    +0.000 OA
ENDROOT
BRANCH   1  10
ATOM     10  C   UNL     1       6.436   4.673  17.336  0.00  0.00    +0.000 C 
BRANCH  10  11
ATOM     11  C   UNL     1       7.240   5.523  16.350  0.00  0.00    +0.000 C 
ATOM     12  O   UNL     1       7.732   6.619  16.601  0.00  0.00    +0.000 OA
BRANCH  11  14
ATOM     13  C   UNL     1       6.305   3.941  14.891  0.00  0.00    +0.000 C 
ATOM     14  O   UNL     1       7.355   4.876  15.155  0.00  0.00    +0.000 OA
ENDBRANCH  11  14
ENDBRANCH  10  11
ENDBRANCH   1  10
BRANCH   5  15
ATOM     15  C   UNL     1       1.645   7.667  20.577  0.00  0.00    +0.000 C 
BRANCH  15  16
ATOM     16  N   UNL     1       0.636   8.684  20.830  0.00  0.00    +0.000 N 
ATOM     17  C   UNL     1       0.708   9.554  21.896  0.00  0.00    +0.000 C 
ATOM     18  O   UNL     1       1.644   9.566  22.693  0.00  0.00    +0.000 OA
ATOM     19  H   UNL     1      -0.074   8.798  20.121  0.00  0.00    +0.000 HD
BRANCH  17  20
ATOM     20  C   UNL     1      -0.405  10.532  22.017  0.00  0.00    +0.000 A 
ATOM     21  C   UNL     1      -1.110  10.706  23.217  0.00  0.00    +0.000 A 
ATOM     22  C   UNL     1      -2.148  11.637  23.295  0.00  0.00    +0.000 A 
ATOM     23  C   UNL     1      -2.490  12.408  22.177  0.00  0.00    +0.000 A 
ATOM     24  C   UNL     1      -1.785  12.243  20.979  0.00  0.00    +0.000 A 
ATOM     25  C   UNL     1      -0.744  11.313  20.903  0.00  0.00    +0.000 A 
BRANCH  23  26
ATOM     26  C   UNL     1      -3.598  13.403  22.281  0.00  0.00    +0.000 C 
ATOM     27  N   UNL     1      -3.513  14.481  22.993  0.00  0.00    +0.000 NA
ATOM     28  N   UNL     1      -4.766  13.211  21.608  0.00  0.00    +0.000 N 
ATOM     29  H   UNL     1      -2.631  14.529  23.508  0.00  0.00    +0.000 HD
ATOM     30  H   UNL     1      -4.693  12.801  20.686  0.00  0.00    +0.000 HD
ATOM     31  H   UNL     1      -5.327  14.058  21.614  0.00  0.00    +0.000 HD
ENDBRANCH  23  26
ENDBRANCH  17  20
ENDBRANCH  15  16
ENDBRANCH   5  15
BRANCH   7  32
ATOM     32  C   UNL     1       2.376   4.325  18.692  0.00  0.00    +0.000 C 
BRANCH  32  33
ATOM     33  C   UNL     1       1.486   3.720  19.732  0.00  0.00    +0.000 C 
ATOM     34  O   UNL     1       0.649   2.863  19.487  0.00  0.00    +0.000 OA
BRANCH  33  35
ATOM     35  O   UNL     1       1.684   4.192  20.981  0.00  0.00    +0.000 OA
ATOM     36  H   UNL     1       2.556   4.601  21.156  0.00  0.00    +0.000 HD
ENDBRANCH  33  35
ENDBRANCH  32  33
ENDBRANCH   7  32
TORSDOF 10
ENDMDL
