MODEL 1
REMARK VINA RESULT:      -9.4      0.000      0.000
REMARK  Name = 
REMARK  7 active torsions:
REMARK  status: ('A' for Active; 'I' for Inactive)
REMARK    1  A    between atoms: C_9  and  C_10
REMARK    2  A    between atoms: N_12  and  C_13
REMARK    3  A    between atoms: C_16  and  C_17
REMARK    4  A    between atoms: C_17  and  C_18
REMARK    5  A    between atoms: C_21  and  C_22
REMARK    6  A    between atoms: C_22  and  O_23
REMARK    7  A    between atoms: C_22  and  C_24
REMARK                            x       y       z     vdW  Elec       q    Type
REMARK                         _______ _______ _______ _____ _____    ______ ____
ROOT
ATOM      1  C   UNL     1       7.902   7.343  18.334  0.00  0.00    +0.000 A 
ATOM      2  C   UNL     1       6.892   7.610  17.406  0.00  0.00    +0.000 A 
ATOM      3  C   UNL     1       6.063   6.589  16.925  0.00  0.00    +0.000 A 
ATOM      4  C   UNL     1       6.231   5.274  17.362  0.00  0.00    +0.000 A 
ATOM      5  C   UNL     1       7.254   4.999  18.279  0.00  0.00    +0.000 A 
ATOM      6  C   UNL     1       8.090   6.021  18.751  0.00  0.00    +0.000 A 
ENDROOT
BRANCH   1   9
ATOM      7  C   UNL     1       8.777   9.669  18.498  0.00  0.00    +0.000 C 
ATOM      8  O   UNL     1       7.939  10.214  17.780  0.00  0.00    +0.000 OA
ATOM      9  N   UNL     1       8.760   8.332  18.860  0.00  0.00    +0.000 N 
ATOM     10  H   UNL     1       9.420   8.037  19.574  0.00  0.00    +0.000 HD
BRANCH   7  19
ATOM     11  N   UNL     1      11.335  14.132  16.258  0.00  0.00    +0.000 N 
ATOM     12  C   UNL     1      10.731  13.455  17.248  0.00  0.00    +0.000 A 
ATOM     13  N   UNL     1      10.799  12.143  17.379  0.00  0.00    +0.000 NA
ATOM     14  C   UNL     1      10.090  11.805  18.494  0.00  0.00    +0.000 A 
ATOM     15  C   UNL     1       9.494  12.824  19.176  0.00  0.00    +0.000 A 
ATOM     16  S   UNL     1       9.780  14.296  18.446  0.00  0.00    +0.000 S 
ATOM     17  C   UNL     1       8.784  12.387  20.394  0.00  0.00    +0.000 C 
ATOM     18  C   UNL     1       9.427  10.971  20.593  0.00  0.00    +0.000 C 
ATOM     19  C   UNL     1       9.881  10.493  19.156  0.00  0.00    +0.000 C 
ATOM     20  H   UNL     1      11.651  13.584  15.467  0.00  0.00    +0.000 HD
ATOM     21  H   UNL     1      10.977  15.049  16.022  0.00  0.00    +0.000 HD
ENDBRANCH   7  19
ENDBRANCH   1   9
BRANCH   4  22
ATOM     22  C   UNL     1       5.304   4.179  16.886  0.00  0.00    +0.000 C 
BRANCH  22  23
ATOM     23  C   UNL     1       4.782   3.238  17.988  0.00  0.00    +0.000 C 
ATOM     24  C   UNL     1       3.701   2.311  17.453  0.00  0.00    +0.000 C 
ATOM     25  C   UNL     1       2.868   1.963  18.672  0.00  0.00    +0.000 C 
ATOM     26  C   UNL     1       3.045   3.136  19.643  0.00  0.00    +0.000 C 
ATOM     27  N   UNL     1       4.099   3.979  19.051  0.00  0.00    +0.000 NA
ATOM     28  H   UNL     1       4.771   4.285  19.756  0.00  0.00    +0.000 HD
BRANCH  26  29
ATOM     29  C   UNL     1       1.747   3.978  19.892  0.00  0.00    +0.000 C 
BRANCH  29  30
ATOM     30  C   UNL     1       1.924   5.455  19.573  0.00  0.00    +0.000 A 
ATOM     31  C   UNL     1       1.756   6.417  20.580  0.00  0.00    +0.000 A 
ATOM     32  C   UNL     1       1.850   7.781  20.285  0.00  0.00    +0.000 A 
ATOM     33  C   UNL     1       2.119   8.199  18.986  0.00  0.00    +0.000 A 
ATOM     34  C   UNL     1       2.335   7.257  17.984  0.00  0.00    +0.000 A 
ATOM     35  C   UNL     1       2.242   5.895  18.276  0.00  0.00    +0.000 A 
ENDBRANCH  29  30
BRANCH  29  36
ATOM     36  O   UNL     1       1.261   3.824  21.232  0.00  0.00    +0.000 OA
ATOM     37  H   UNL     1       0.398   4.264  21.269  0.00  0.00    +0.000 HD
ENDBRANCH  29  36
ENDBRANCH  26  29
ENDBRANCH  22  23
ENDBRANCH   4  22
TORSDOF 7
ENDMDL
MODEL 2
REMARK VINA RESULT:      -9.2      5.810      9.329
REMARK  Name = 
REMARK  7 active torsions:
REMARK  status: ('A' for Active; 'I' for Inactive)
REMARK    1  A    between atoms: C_9  and  C_10
REMARK    2  A    between atoms: N_12  and  C_13
REMARK    3  A    between atoms: C_16  and  C_17
REMARK    4  A    between atoms: C_17  and  C_18
REMARK    5  A    between atoms: C_21  and  C_22
REMARK    6  A    between atoms: C_22  and  O_23
REMARK    7  A    between atoms: C_22  and  C_24
REMARK                            x       y       z     vdW  Elec       q    Type
REMARK                         _______ _______ _______ _____ _____    ______ ____
ROOT
ATOM      1  C   UNL     1       0.550   9.568  19.473  0.00  0.00    +0.000 A 
ATOM      2  C   UNL     1       0.636   8.817  20.647  0.00  0.00    +0.000 A 
ATOM      3  C   UNL     1       1.477   7.701  20.733  0.00  0.00    +0.000 A 
ATOM      4  C   UNL     1       2.250   7.310  19.638  0.00  0.00    +0.000 A 
ATOM      5  C   UNL     1       2.154   8.050  18.452  0.00  0.00    +0.000 A 
ATOM      6  C   UNL     1       1.302   9.161  18.365  0.00  0.00    +0.000 A 
ENDROOT
BRANCH   1   9
ATOM      7  C   UNL     1      -1.487  10.754  18.669  0.00  0.00    +0.000 C 
ATOM      8  O   UNL     1      -2.096   9.772  18.245  0.00  0.00    +0.000 OA
ATOM      9  N   UNL     1      -0.272  10.706  19.332  0.00  0.00    +0.000 N 
ATOM     10  H   UNL     1       0.054  11.567  19.763  0.00  0.00    +0.000 HD
BRANCH   7  19
ATOM     11  N   UNL     1      -6.858  11.881  17.502  0.00  0.00    +0.000 N 
ATOM     12  C   UNL     1      -5.715  12.025  18.191  0.00  0.00    +0.000 A 
ATOM     13  N   UNL     1      -4.517  11.870  17.654  0.00  0.00    +0.000 NA
ATOM     14  C   UNL     1      -3.597  12.108  18.632  0.00  0.00    +0.000 A 
ATOM     15  C   UNL     1      -4.079  12.421  19.868  0.00  0.00    +0.000 A 
ATOM     16  S   UNL     1      -5.747  12.424  19.890  0.00  0.00    +0.000 S 
ATOM     17  C   UNL     1      -3.025  12.708  20.860  0.00  0.00    +0.000 C 
ATOM     18  C   UNL     1      -1.809  12.963  19.902  0.00  0.00    +0.000 C 
ATOM     19  C   UNL     1      -2.113  12.143  18.586  0.00  0.00    +0.000 C 
ATOM     20  H   UNL     1      -6.787  11.410  16.608  0.00  0.00    +0.000 HD
ATOM     21  H   UNL     1      -7.703  11.680  18.021  0.00  0.00    +0.000 HD
ENDBRANCH   7  19
ENDBRANCH   1   9
BRANCH   4  22
ATOM     22  C   UNL     1       3.199   6.138  19.743  0.00  0.00    +0.000 C 
BRANCH  22  23
ATOM     23  C   UNL     1       3.043   5.067  18.648  0.00  0.00    +0.000 C 
ATOM     24  C   UNL     1       3.611   3.730  19.101  0.00  0.00    +0.000 C 
ATOM     25  C   UNL     1       3.990   3.027  17.811  0.00  0.00    +0.000 C 
ATOM     26  C   UNL     1       4.260   4.144  16.795  0.00  0.00    +0.000 C 
ATOM     27  N   UNL     1       3.837   5.389  17.460  0.00  0.00    +0.000 NA
ATOM     28  H   UNL     1       3.301   5.986  16.828  0.00  0.00    +0.000 HD
BRANCH  26  29
ATOM     29  C   UNL     1       5.752   4.254  16.328  0.00  0.00    +0.000 C 
BRANCH  29  30
ATOM     30  C   UNL     1       6.564   5.242  17.152  0.00  0.00    +0.000 A 
ATOM     31  C   UNL     1       6.764   6.550  16.685  0.00  0.00    +0.000 A 
ATOM     32  C   UNL     1       7.564   7.447  17.401  0.00  0.00    +0.000 A 
ATOM     33  C   UNL     1       8.165   7.052  18.591  0.00  0.00    +0.000 A 
ATOM     34  C   UNL     1       7.940   5.773  19.094  0.00  0.00    +0.000 A 
ATOM     35  C   UNL     1       7.142   4.877  18.381  0.00  0.00    +0.000 A 
ENDBRANCH  29  30
BRANCH  29  36
ATOM     36  O   UNL     1       5.852   4.583  14.936  0.00  0.00    +0.000 OA
ATOM     37  H   UNL     1       6.745   4.931  14.795  0.00  0.00    +0.000 HD
ENDBRANCH  29  36
ENDBRANCH  26  29
ENDBRANCH  22  23
ENDBRANCH   4  22
TORSDOF 7
ENDMDL
MODEL 3
REMARK VINA RESULT:      -9.2      5.614      9.047
REMARK  Name = 
REMARK  7 active torsions:
REMARK  status: ('A' for Active; 'I' for Inactive)
REMARK    1  A    between atoms: C_9  and  C_10
REMARK    2  A    between atoms: N_12  and  C_13
REMARK    3  A    between atoms: C_16  and  C_17
REMARK    4  A    between atoms: C_17  and  C_18
REMARK    5  A    between atoms: C_21  and  C_22
REMARK    6  A    between atoms: C_22  and  O_23
REMARK    7  A    between atoms: C_22  and  C_24
REMARK                            x       y       z     vdW  Elec       q    Type
REMARK                         _______ _______ _______ _____ _____    ______ ____
ROOT
ATOM      1  C   UNL     1       0.820   9.499  19.441  0.00  0.00    +0.000 A 
ATOM      2  C   UNL     1       0.884   8.687  20.575  0.00  0.00    +0.000 A 
ATOM      3  C   UNL     1       1.680   7.536  20.597  0.00  0.00    +0.000 A 
ATOM      4  C   UNL     1       2.429   7.170  19.477  0.00  0.00    +0.000 A 
ATOM      5  C   UNL     1       2.354   7.973  18.330  0.00  0.00    +0.000 A 
ATOM      6  C   UNL     1       1.547   9.120  18.307  0.00  0.00    +0.000 A 
ENDROOT
BRANCH   1   9
ATOM      7  C   UNL     1      -1.205  10.788  18.776  0.00  0.00    +0.000 C 
ATOM      8  O   UNL     1      -1.880   9.841  18.373  0.00  0.00    +0.000 OA
ATOM      9  N   UNL     1       0.043  10.675  19.366  0.00  0.00    +0.000 N 
ATOM     10  H   UNL     1       0.432  11.513  19.789  0.00  0.00    +0.000 HD
BRANCH   7  19
ATOM     11  N   UNL     1      -6.559  12.210  19.666  0.00  0.00    +0.000 N 
ATOM     12  C   UNL     1      -5.232  12.340  19.823  0.00  0.00    +0.000 A 
ATOM     13  N   UNL     1      -4.354  12.024  18.887  0.00  0.00    +0.000 NA
ATOM     14  C   UNL     1      -3.113  12.298  19.379  0.00  0.00    +0.000 A 
ATOM     15  C   UNL     1      -3.050  12.793  20.648  0.00  0.00    +0.000 A 
ATOM     16  S   UNL     1      -4.569  12.937  21.323  0.00  0.00    +0.000 S 
ATOM     17  C   UNL     1      -1.679  13.108  21.094  0.00  0.00    +0.000 C 
ATOM     18  C   UNL     1      -0.943  13.146  19.710  0.00  0.00    +0.000 C 
ATOM     19  C   UNL     1      -1.772  12.205  18.750  0.00  0.00    +0.000 C 
ATOM     20  H   UNL     1      -6.866  11.633  18.893  0.00  0.00    +0.000 HD
ATOM     21  H   UNL     1      -7.130  12.142  20.499  0.00  0.00    +0.000 HD
ENDBRANCH   7  19
ENDBRANCH   1   9
BRANCH   4  22
ATOM     22  C   UNL     1       3.332   5.959  19.514  0.00  0.00    +0.000 C 
BRANCH  22  23
ATOM     23  C   UNL     1       3.198   5.004  18.312  0.00  0.00    +0.000 C 
ATOM     24  C   UNL     1       3.660   3.600  18.670  0.00  0.00    +0.000 C 
ATOM     25  C   UNL     1       4.094   2.998  17.348  0.00  0.00    +0.000 C 
ATOM     26  C   UNL     1       4.496   4.186  16.465  0.00  0.00    +0.000 C 
ATOM     27  N   UNL     1       4.093   5.387  17.217  0.00  0.00    +0.000 NA
ATOM     28  H   UNL     1       3.637   6.071  16.611  0.00  0.00    +0.000 HD
BRANCH  26  29
ATOM     29  C   UNL     1       6.022   4.248  16.112  0.00  0.00    +0.000 C 
BRANCH  29  30
ATOM     30  C   UNL     1       6.798   5.217  16.992  0.00  0.00    +0.000 A 
ATOM     31  C   UNL     1       7.323   4.786  18.220  0.00  0.00    +0.000 A 
ATOM     32  C   UNL     1       7.981   5.683  19.067  0.00  0.00    +0.000 A 
ATOM     33  C   UNL     1       8.129   7.015  18.696  0.00  0.00    +0.000 A 
ATOM     34  C   UNL     1       7.656   7.450  17.461  0.00  0.00    +0.000 A 
ATOM     35  C   UNL     1       6.999   6.556  16.614  0.00  0.00    +0.000 A 
ENDBRANCH  29  30
BRANCH  29  36
ATOM     36  O   UNL     1       6.237   4.566  14.731  0.00  0.00    +0.000 OA
ATOM     37  H   UNL     1       7.050   4.112  14.462  0.00  0.00    +0.000 HD
ENDBRANCH  29  36
ENDBRANCH  26  29
ENDBRANCH  22  23
ENDBRANCH   4  22
TORSDOF 7
ENDMDL
MODEL 4
REMARK VINA RESULT:      -9.2      5.273      8.210
REMARK  Name = 
REMARK  7 active torsions:
REMARK  status: ('A' for Active; 'I' for Inactive)
REMARK    1  A    between atoms: C_9  and  C_10
REMARK    2  A    between atoms: N_12  and  C_13
REMARK    3  A    between atoms: C_16  and  C_17
REMARK    4  A    between atoms: C_17  and  C_18
REMARK    5  A    between atoms: C_21  and  C_22
REMARK    6  A    between atoms: C_22  and  O_23
REMARK    7  A    between atoms: C_22  and  C_24
REMARK                            x       y       z     vdW  Elec       q    Type
REMARK                         _______ _______ _______ _____ _____    ______ ____
ROOT
ATOM      1  C   UNL     1       0.862   9.700  18.881  0.00  0.00    +0.000 A 
ATOM      2  C   UNL     1       1.613   9.150  17.840  0.00  0.00    +0.000 A 
ATOM      3  C   UNL     1       2.388   8.001  18.035  0.00  0.00    +0.000 A 
ATOM      4  C   UNL     1       2.431   7.378  19.284  0.00  0.00    +0.000 A 
ATOM      5  C   UNL     1       1.693   7.936  20.336  0.00  0.00    +0.000 A 
ATOM      6  C   UNL     1       0.926   9.094  20.141  0.00  0.00    +0.000 A 
ENDROOT
BRANCH   1   9
ATOM      7  C   UNL     1       0.500  12.161  18.763  0.00  0.00    +0.000 C 
ATOM      8  O   UNL     1       1.683  12.503  18.752  0.00  0.00    +0.000 OA
ATOM      9  N   UNL     1       0.056  10.850  18.740  0.00  0.00    +0.000 N 
ATOM     10  H   UNL     1      -0.940  10.701  18.602  0.00  0.00    +0.000 HD
BRANCH   7  19
ATOM     11  N   UNL     1      -4.070  12.365  22.012  0.00  0.00    +0.000 N 
ATOM     12  C   UNL     1      -3.007  12.895  21.386  0.00  0.00    +0.000 A 
ATOM     13  N   UNL     1      -2.533  12.437  20.241  0.00  0.00    +0.000 NA
ATOM     14  C   UNL     1      -1.471  13.219  19.895  0.00  0.00    +0.000 A 
ATOM     15  C   UNL     1      -1.144  14.227  20.753  0.00  0.00    +0.000 A 
ATOM     16  S   UNL     1      -2.156  14.252  22.079  0.00  0.00    +0.000 S 
ATOM     17  C   UNL     1      -0.015  15.057  20.290  0.00  0.00    +0.000 C 
ATOM     18  C   UNL     1       0.009  14.664  18.772  0.00  0.00    +0.000 C 
ATOM     19  C   UNL     1      -0.606  13.210  18.689  0.00  0.00    +0.000 C 
ATOM     20  H   UNL     1      -4.359  11.444  21.704  0.00  0.00    +0.000 HD
ATOM     21  H   UNL     1      -4.167  12.529  23.005  0.00  0.00    +0.000 HD
ENDBRANCH   7  19
ENDBRANCH   1   9
BRANCH   4  22
ATOM     22  C   UNL     1       3.223   6.106  19.485  0.00  0.00    +0.000 C 
BRANCH  22  23
ATOM     23  C   UNL     1       3.083   5.061  18.363  0.00  0.00    +0.000 C 
ATOM     24  C   UNL     1       3.521   3.683  18.835  0.00  0.00    +0.000 C 
ATOM     25  C   UNL     1       3.955   2.972  17.568  0.00  0.00    +0.000 C 
ATOM     26  C   UNL     1       4.381   4.080  16.597  0.00  0.00    +0.000 C 
ATOM     27  N   UNL     1       3.991   5.343  17.247  0.00  0.00    +0.000 NA
ATOM     28  H   UNL     1       3.549   5.983  16.585  0.00  0.00    +0.000 HD
BRANCH  26  29
ATOM     29  C   UNL     1       5.910   4.092  16.252  0.00  0.00    +0.000 C 
BRANCH  29  30
ATOM     30  C   UNL     1       6.695   5.117  17.057  0.00  0.00    +0.000 A 
ATOM     31  C   UNL     1       7.189   4.785  18.327  0.00  0.00    +0.000 A 
ATOM     32  C   UNL     1       7.855   5.740  19.104  0.00  0.00    +0.000 A 
ATOM     33  C   UNL     1       8.040   7.030  18.620  0.00  0.00    +0.000 A 
ATOM     34  C   UNL     1       7.596   7.364  17.343  0.00  0.00    +0.000 A 
ATOM     35  C   UNL     1       6.933   6.413  16.566  0.00  0.00    +0.000 A 
ENDBRANCH  29  30
BRANCH  29  36
ATOM     36  O   UNL     1       6.139   4.294  14.851  0.00  0.00    +0.000 OA
ATOM     37  H   UNL     1       6.528   5.177  14.756  0.00  0.00    +0.000 HD
ENDBRANCH  29  36
ENDBRANCH  26  29
ENDBRANCH  22  23
ENDBRANCH   4  22
TORSDOF 7
ENDMDL
MODEL 5
REMARK VINA RESULT:      -9.2      5.182      8.355
REMARK  Name = 
REMARK  7 active torsions:
REMARK  status: ('A' for Active; 'I' for Inactive)
REMARK    1  A    between atoms: C_9  and  C_10
REMARK    2  A    between atoms: N_12  and  C_13
REMARK    3  A    between atoms: C_16  and  C_17
REMARK    4  A    between atoms: C_17  and  C_18
REMARK    5  A    between atoms: C_21  and  C_22
REMARK    6  A    between atoms: C_22  and  O_23
REMARK    7  A    between atoms: C_22  and  C_24
REMARK                            x       y       z     vdW  Elec       q    Type
REMARK                         _______ _______ _______ _____ _____    ______ ____
ROOT
ATOM      1  C   UNL     1       1.048   9.296  19.443  0.00  0.00    +0.000 A 
ATOM      2  C   UNL     1       0.994   8.546  20.619  0.00  0.00    +0.000 A 
ATOM      3  C   UNL     1       1.682   7.333  20.737  0.00  0.00    +0.000 A 
ATOM      4  C   UNL     1       2.438   6.841  19.672  0.00  0.00    +0.000 A 
ATOM      5  C   UNL     1       2.482   7.581  18.483  0.00  0.00    +0.000 A 
ATOM      6  C   UNL     1       1.783   8.791  18.364  0.00  0.00    +0.000 A 
ENDROOT
BRANCH   1   9
ATOM      7  C   UNL     1       0.387  11.586  20.168  0.00  0.00    +0.000 C 
ATOM      8  O   UNL     1       1.100  11.656  21.169  0.00  0.00    +0.000 OA
ATOM      9  N   UNL     1       0.384  10.530  19.272  0.00  0.00    +0.000 N 
ATOM     10  H   UNL     1      -0.139  10.656  18.409  0.00  0.00    +0.000 HD
BRANCH   7  19
ATOM     11  N   UNL     1      -3.793  11.439  16.428  0.00  0.00    +0.000 N 
ATOM     12  C   UNL     1      -3.232  11.771  17.601  0.00  0.00    +0.000 A 
ATOM     13  N   UNL     1      -1.942  12.014  17.748  0.00  0.00    +0.000 NA
ATOM     14  C   UNL     1      -1.732  12.335  19.057  0.00  0.00    +0.000 A 
ATOM     15  C   UNL     1      -2.823  12.325  19.876  0.00  0.00    +0.000 A 
ATOM     16  S   UNL     1      -4.203  11.891  19.046  0.00  0.00    +0.000 S 
ATOM     17  C   UNL     1      -2.525  12.726  21.264  0.00  0.00    +0.000 C 
ATOM     18  C   UNL     1      -1.138  13.427  21.055  0.00  0.00    +0.000 C 
ATOM     19  C   UNL     1      -0.502  12.761  19.771  0.00  0.00    +0.000 C 
ATOM     20  H   UNL     1      -3.160  11.140  15.696  0.00  0.00    +0.000 HD
ATOM     21  H   UNL     1      -4.679  10.950  16.447  0.00  0.00    +0.000 HD
ENDBRANCH   7  19
ENDBRANCH   1   9
BRANCH   4  22
ATOM     22  C   UNL     1       3.226   5.558  19.812  0.00  0.00    +0.000 C 
BRANCH  22  23
ATOM     23  C   UNL     1       3.109   4.583  18.626  0.00  0.00    +0.000 C 
ATOM     24  C   UNL     1       3.747   3.241  18.951  0.00  0.00    +0.000 C 
ATOM     25  C   UNL     1       4.146   2.678  17.600  0.00  0.00    +0.000 C 
ATOM     26  C   UNL     1       4.348   3.893  16.688  0.00  0.00    +0.000 C 
ATOM     27  N   UNL     1       3.873   5.051  17.466  0.00  0.00    +0.000 NA
ATOM     28  H   UNL     1       3.300   5.675  16.895  0.00  0.00    +0.000 HD
BRANCH  26  29
ATOM     29  C   UNL     1       5.827   4.119  16.221  0.00  0.00    +0.000 C 
BRANCH  29  30
ATOM     30  C   UNL     1       6.574   5.132  17.076  0.00  0.00    +0.000 A 
ATOM     31  C   UNL     1       6.716   6.456  16.635  0.00  0.00    +0.000 A 
ATOM     32  C   UNL     1       7.457   7.380  17.380  0.00  0.00    +0.000 A 
ATOM     33  C   UNL     1       8.058   6.995  18.574  0.00  0.00    +0.000 A 
ATOM     34  C   UNL     1       7.889   5.697  19.050  0.00  0.00    +0.000 A 
ATOM     35  C   UNL     1       7.149   4.774  18.309  0.00  0.00    +0.000 A 
ENDBRANCH  29  30
BRANCH  29  36
ATOM     36  O   UNL     1       5.899   4.500  14.841  0.00  0.00    +0.000 OA
ATOM     37  H   UNL     1       5.072   4.963  14.635  0.00  0.00    +0.000 HD
ENDBRANCH  29  36
ENDBRANCH  26  29
ENDBRANCH  22  23
ENDBRANCH   4  22
TORSDOF 7
ENDMDL
MODEL 6
REMARK VINA RESULT:      -9.2      0.315      1.240
REMARK  Name = 
REMARK  7 active torsions:
REMARK  status: ('A' for Active; 'I' for Inactive)
REMARK    1  A    between atoms: C_9  and  C_10
REMARK    2  A    between atoms: N_12  and  C_13
REMARK    3  A    between atoms: C_16  and  C_17
REMARK    4  A    between atoms: C_17  and  C_18
REMARK    5  A    between atoms: C_21  and  C_22
REMARK    6  A    between atoms: C_22  and  O_23
REMARK    7  A    between atoms: C_22  and  C_24
REMARK                            x       y       z     vdW  Elec       q    Type
REMARK                         _______ _______ _______ _____ _____    ______ ____
ROOT
ATOM      1  C   UNL     1       8.099   7.596  18.549  0.00  0.00    +0.000 A 
ATOM      2  C   UNL     1       8.086   6.302  19.074  0.00  0.00    +0.000 A 
ATOM      3  C   UNL     1       7.216   5.327  18.575  0.00  0.00    +0.000 A 
ATOM      4  C   UNL     1       6.333   5.629  17.537  0.00  0.00    +0.000 A 
ATOM      5  C   UNL     1       6.330   6.931  17.018  0.00  0.00    +0.000 A 
ATOM      6  C   UNL     1       7.195   7.909  17.527  0.00  0.00    +0.000 A 
ENDROOT
BRANCH   1   9
ATOM      7  C   UNL     1       8.963   9.932  18.575  0.00  0.00    +0.000 C 
ATOM      8  O   UNL     1       8.107  10.434  17.845  0.00  0.00    +0.000 OA
ATOM      9  N   UNL     1       8.960   8.616  19.006  0.00  0.00    +0.000 N 
ATOM     10  H   UNL     1       9.636   8.363  19.722  0.00  0.00    +0.000 HD
BRANCH   7  19
ATOM     11  N   UNL     1      11.299  14.416  16.144  0.00  0.00    +0.000 N 
ATOM     12  C   UNL     1      10.758  13.743  17.171  0.00  0.00    +0.000 A 
ATOM     13  N   UNL     1      10.867  12.435  17.322  0.00  0.00    +0.000 NA
ATOM     14  C   UNL     1      10.217  12.100  18.473  0.00  0.00    +0.000 A 
ATOM     15  C   UNL     1       9.627  13.117  19.165  0.00  0.00    +0.000 A 
ATOM     16  S   UNL     1       9.841  14.581  18.397  0.00  0.00    +0.000 S 
ATOM     17  C   UNL     1       8.985  12.684  20.421  0.00  0.00    +0.000 C 
ATOM     18  C   UNL     1       9.673  11.288  20.614  0.00  0.00    +0.000 C 
ATOM     19  C   UNL     1      10.073  10.796  19.167  0.00  0.00    +0.000 C 
ATOM     20  H   UNL     1      11.593  13.862  15.349  0.00  0.00    +0.000 HD
ATOM     21  H   UNL     1      10.907  15.319  15.909  0.00  0.00    +0.000 HD
ENDBRANCH   7  19
ENDBRANCH   1   9
BRANCH   4  22
ATOM     22  C   UNL     1       5.429   4.564  16.957  0.00  0.00    +0.000 C 
BRANCH  22  23
ATOM     23  C   UNL     1       4.952   3.494  17.957  0.00  0.00    +0.000 C 
ATOM     24  C   UNL     1       3.899   2.590  17.334  0.00  0.00    +0.000 C 
ATOM     25  C   UNL     1       3.091   2.085  18.515  0.00  0.00    +0.000 C 
ATOM     26  C   UNL     1       3.237   3.155  19.604  0.00  0.00    +0.000 C 
ATOM     27  N   UNL     1       4.254   4.094  19.097  0.00  0.00    +0.000 NA
ATOM     28  H   UNL     1       4.923   4.348  19.826  0.00  0.00    +0.000 HD
BRANCH  26  29
ATOM     29  C   UNL     1       1.913   3.919  19.949  0.00  0.00    +0.000 C 
BRANCH  29  30
ATOM     30  C   UNL     1       1.962   5.395  19.583  0.00  0.00    +0.000 A 
ATOM     31  C   UNL     1       2.194   5.783  18.255  0.00  0.00    +0.000 A 
ATOM     32  C   UNL     1       2.307   7.136  17.918  0.00  0.00    +0.000 A 
ATOM     33  C   UNL     1       2.184   8.114  18.899  0.00  0.00    +0.000 A 
ATOM     34  C   UNL     1       1.908   7.749  20.214  0.00  0.00    +0.000 A 
ATOM     35  C   UNL     1       1.794   6.400  20.552  0.00  0.00    +0.000 A 
ENDBRANCH  29  30
BRANCH  29  36
ATOM     36  O   UNL     1       1.557   3.772  21.330  0.00  0.00    +0.000 OA
ATOM     37  H   UNL     1       1.161   2.892  21.425  0.00  0.00    +0.000 HD
ENDBRANCH  29  36
ENDBRANCH  26  29
ENDBRANCH  22  23
ENDBRANCH   4  22
TORSDOF 7
ENDMDL
MODEL 7
REMARK VINA RESULT:      -9.2      5.885      9.410
REMARK  Name = 
REMARK  7 active torsions:
REMARK  status: ('A' for Active; 'I' for Inactive)
REMARK    1  A    between atoms: C_9  and  C_10
REMARK    2  A    between atoms: N_12  and  C_13
REMARK    3  A    between atoms: C_16  and  C_17
REMARK    4  A    between atoms: C_17  and  C_18
REMARK    5  A    between atoms: C_21  and  C_22
REMARK    6  A    between atoms: C_22  and  O_23
REMARK    7  A    between atoms: C_22  and  C_24
REMARK                            x       y       z     vdW  Elec       q    Type
REMARK                         _______ _______ _______ _____ _____    ______ ____
ROOT
ATOM      1  C   UNL     1       0.916   9.443  19.013  0.00  0.00    +0.000 A 
ATOM      2  C   UNL     1       1.704   8.942  17.975  0.00  0.00    +0.000 A 
ATOM      3  C   UNL     1       2.500   7.805  18.155  0.00  0.00    +0.000 A 
ATOM      4  C   UNL     1       2.527   7.146  19.385  0.00  0.00    +0.000 A 
ATOM      5  C   UNL     1       1.751   7.655  20.434  0.00  0.00    +0.000 A 
ATOM      6  C   UNL     1       0.962   8.801  20.255  0.00  0.00    +0.000 A 
ENDROOT
BRANCH   1   9
ATOM      7  C   UNL     1      -1.107  10.640  18.187  0.00  0.00    +0.000 C 
ATOM      8  O   UNL     1      -1.692   9.668  17.709  0.00  0.00    +0.000 OA
ATOM      9  N   UNL     1       0.087  10.579  18.886  0.00  0.00    +0.000 N 
ATOM     10  H   UNL     1       0.392  11.427  19.356  0.00  0.00    +0.000 HD
BRANCH   7  19
ATOM     11  N   UNL     1      -6.544  11.735  17.341  0.00  0.00    +0.000 N 
ATOM     12  C   UNL     1      -5.362  11.889  17.958  0.00  0.00    +0.000 A 
ATOM     13  N   UNL     1      -4.199  11.736  17.351  0.00  0.00    +0.000 NA
ATOM     14  C   UNL     1      -3.221  11.985  18.268  0.00  0.00    +0.000 A 
ATOM     15  C   UNL     1      -3.628  12.304  19.530  0.00  0.00    +0.000 A 
ATOM     16  S   UNL     1      -5.292  12.300  19.653  0.00  0.00    +0.000 S 
ATOM     17  C   UNL     1      -2.517  12.604  20.453  0.00  0.00    +0.000 C 
ATOM     18  C   UNL     1      -1.364  12.857  19.421  0.00  0.00    +0.000 C 
ATOM     19  C   UNL     1      -1.744  12.026  18.131  0.00  0.00    +0.000 C 
ATOM     20  H   UNL     1      -6.526  11.258  16.448  0.00  0.00    +0.000 HD
ATOM     21  H   UNL     1      -7.355  11.534  17.913  0.00  0.00    +0.000 HD
ENDBRANCH   7  19
ENDBRANCH   1   9
BRANCH   4  22
ATOM     22  C   UNL     1       3.343   5.886  19.568  0.00  0.00    +0.000 C 
BRANCH  22  23
ATOM     23  C   UNL     1       3.362   4.935  18.356  0.00  0.00    +0.000 C 
ATOM     24  C   UNL     1       4.134   3.662  18.668  0.00  0.00    +0.000 C 
ATOM     25  C   UNL     1       4.625   3.180  17.316  0.00  0.00    +0.000 C 
ATOM     26  C   UNL     1       4.717   4.434  16.438  0.00  0.00    +0.000 C 
ATOM     27  N   UNL     1       4.099   5.512  17.229  0.00  0.00    +0.000 NA
ATOM     28  H   UNL     1       3.476   6.085  16.657  0.00  0.00    +0.000 HD
BRANCH  26  29
ATOM     29  C   UNL     1       6.173   4.830  16.018  0.00  0.00    +0.000 C 
BRANCH  29  30
ATOM     30  C   UNL     1       6.451   4.601  14.539  0.00  0.00    +0.000 A 
ATOM     31  C   UNL     1       5.676   3.687  13.811  0.00  0.00    +0.000 A 
ATOM     32  C   UNL     1       5.964   3.419  12.468  0.00  0.00    +0.000 A 
ATOM     33  C   UNL     1       7.023   4.065  11.838  0.00  0.00    +0.000 A 
ATOM     34  C   UNL     1       7.774   5.010  12.533  0.00  0.00    +0.000 A 
ATOM     35  C   UNL     1       7.487   5.279  13.872  0.00  0.00    +0.000 A 
ENDBRANCH  29  30
BRANCH  29  36
ATOM     36  O   UNL     1       7.159   4.153  16.809  0.00  0.00    +0.000 OA
ATOM     37  H   UNL     1       7.427   3.367  16.309  0.00  0.00    +0.000 HD
ENDBRANCH  29  36
ENDBRANCH  26  29
ENDBRANCH  22  23
ENDBRANCH   4  22
TORSDOF 7
ENDMDL
MODEL 8
REMARK VINA RESULT:      -9.1      6.060      9.032
REMARK  Name = 
REMARK  7 active torsions:
REMARK  status: ('A' for Active; 'I' for Inactive)
REMARK    1  A    between atoms: C_9  and  C_10
REMARK    2  A    between atoms: N_12  and  C_13
REMARK    3  A    between atoms: C_16  and  C_17
REMARK    4  A    between atoms: C_17  and  C_18
REMARK    5  A    between atoms: C_21  and  C_22
REMARK    6  A    between atoms: C_22  and  O_23
REMARK    7  A    between atoms: C_22  and  C_24
REMARK                            x       y       z     vdW  Elec       q    Type
REMARK                         _______ _______ _______ _____ _____    ______ ____
ROOT
ATOM      1  C   UNL     1       0.133  10.561  20.605  0.00  0.00    +0.000 A 
ATOM      2  C   UNL     1       0.328   9.606  21.605  0.00  0.00    +0.000 A 
ATOM      3  C   UNL     1       1.046   8.431  21.354  0.00  0.00    +0.000 A 
ATOM      4  C   UNL     1       1.582   8.184  20.089  0.00  0.00    +0.000 A 
ATOM      5  C   UNL     1       1.373   9.131  19.077  0.00  0.00    +0.000 A 
ATOM      6  C   UNL     1       0.644  10.302  19.328  0.00  0.00    +0.000 A 
ENDROOT
BRANCH   1   9
ATOM      7  C   UNL     1      -0.061  12.925  21.364  0.00  0.00    +0.000 C 
ATOM      8  O   UNL     1       1.127  13.115  21.622  0.00  0.00    +0.000 OA
ATOM      9  N   UNL     1      -0.573  11.766  20.804  0.00  0.00    +0.000 N 
ATOM     10  H   UNL     1      -1.544  11.788  20.503  0.00  0.00    +0.000 HD
BRANCH   7  19
ATOM     11  N   UNL     1      -5.597  12.275  22.006  0.00  0.00    +0.000 N 
ATOM     12  C   UNL     1      -4.399  12.801  22.306  0.00  0.00    +0.000 A 
ATOM     13  N   UNL     1      -3.445  12.996  21.413  0.00  0.00    +0.000 NA
ATOM     14  C   UNL     1      -2.385  13.557  22.061  0.00  0.00    +0.000 A 
ATOM     15  C   UNL     1      -2.525  13.770  23.400  0.00  0.00    +0.000 A 
ATOM     16  S   UNL     1      -4.016  13.259  23.946  0.00  0.00    +0.000 S 
ATOM     17  C   UNL     1      -1.356  14.421  24.022  0.00  0.00    +0.000 C 
ATOM     18  C   UNL     1      -0.646  14.988  22.744  0.00  0.00    +0.000 C 
ATOM     19  C   UNL     1      -1.079  14.047  21.551  0.00  0.00    +0.000 C 
ATOM     20  H   UNL     1      -5.669  11.802  21.114  0.00  0.00    +0.000 HD
ATOM     21  H   UNL     1      -6.129  11.850  22.755  0.00  0.00    +0.000 HD
ENDBRANCH   7  19
ENDBRANCH   1   9
BRANCH   4  22
ATOM     22  C   UNL     1       2.403   6.942  19.827  0.00  0.00    +0.000 C 
BRANCH  22  23
ATOM     23  C   UNL     1       1.654   5.609  20.011  0.00  0.00    +0.000 C 
ATOM     24  C   UNL     1       2.215   4.821  21.186  0.00  0.00    +0.000 C 
ATOM     25  C   UNL     1       1.894   3.376  20.855  0.00  0.00    +0.000 C 
ATOM     26  C   UNL     1       1.799   3.312  19.326  0.00  0.00    +0.000 C 
ATOM     27  N   UNL     1       1.859   4.713  18.871  0.00  0.00    +0.000 NA
ATOM     28  H   UNL     1       1.165   4.900  18.146  0.00  0.00    +0.000 HD
BRANCH  26  29
ATOM     29  C   UNL     1       2.923   2.465  18.637  0.00  0.00    +0.000 C 
BRANCH  29  30
ATOM     30  C   UNL     1       4.068   3.314  18.105  0.00  0.00    +0.000 A 
ATOM     31  C   UNL     1       4.175   3.568  16.730  0.00  0.00    +0.000 A 
ATOM     32  C   UNL     1       5.260   4.291  16.221  0.00  0.00    +0.000 A 
ATOM     33  C   UNL     1       6.243   4.772  17.079  0.00  0.00    +0.000 A 
ATOM     34  C   UNL     1       6.129   4.570  18.452  0.00  0.00    +0.000 A 
ATOM     35  C   UNL     1       5.047   3.849  18.961  0.00  0.00    +0.000 A 
ENDBRANCH  29  30
BRANCH  29  36
ATOM     36  O   UNL     1       2.401   1.639  17.588  0.00  0.00    +0.000 OA
ATOM     37  H   UNL     1       1.440   1.765  17.584  0.00  0.00    +0.000 HD
ENDBRANCH  29  36
ENDBRANCH  26  29
ENDBRANCH  22  23
ENDBRANCH   4  22
TORSDOF 7
ENDMDL
MODEL 9
REMARK VINA RESULT:      -9.1      5.462      8.783
REMARK  Name = 
REMARK  7 active torsions:
REMARK  status: ('A' for Active; 'I' for Inactive)
REMARK    1  A    between atoms: C_9  and  C_10
REMARK    2  A    between atoms: N_12  and  C_13
REMARK    3  A    between atoms: C_16  and  C_17
REMARK    4  A    between atoms: C_17  and  C_18
REMARK    5  A    between atoms: C_21  and  C_22
REMARK    6  A    between atoms: C_22  and  O_23
REMARK    7  A    between atoms: C_22  and  C_24
REMARK                            x       y       z     vdW  Elec       q    Type
REMARK                         _______ _______ _______ _____ _____    ______ ____
ROOT
ATOM      1  C   UNL     1       0.888   9.555  19.091  0.00  0.00    +0.000 A 
ATOM      2  C   UNL     1       1.579   8.987  18.018  0.00  0.00    +0.000 A 
ATOM      3  C   UNL     1       2.322   7.811  18.178  0.00  0.00    +0.000 A 
ATOM      4  C   UNL     1       2.392   7.180  19.421  0.00  0.00    +0.000 A 
ATOM      5  C   UNL     1       1.714   7.756  20.504  0.00  0.00    +0.000 A 
ATOM      6  C   UNL     1       0.980   8.940  20.344  0.00  0.00    +0.000 A 
ENDROOT
BRANCH   1   9
ATOM      7  C   UNL     1      -1.173  10.818  18.489  0.00  0.00    +0.000 C 
ATOM      8  O   UNL     1      -1.886   9.852  18.214  0.00  0.00    +0.000 OA
ATOM      9  N   UNL     1       0.117  10.733  18.986  0.00  0.00    +0.000 N 
ATOM     10  H   UNL     1       0.545  11.595  19.311  0.00  0.00    +0.000 HD
BRANCH   7  19
ATOM     11  N   UNL     1      -5.767  12.727  21.083  0.00  0.00    +0.000 N 
ATOM     12  C   UNL     1      -4.488  12.798  20.681  0.00  0.00    +0.000 A 
ATOM     13  N   UNL     1      -4.045  12.252  19.562  0.00  0.00    +0.000 NA
ATOM     14  C   UNL     1      -2.715  12.536  19.466  0.00  0.00    +0.000 A 
ATOM     15  C   UNL     1      -2.166  13.262  20.481  0.00  0.00    +0.000 A 
ATOM     16  S   UNL     1      -3.299  13.631  21.649  0.00  0.00    +0.000 S 
ATOM     17  C   UNL     1      -0.736  13.568  20.284  0.00  0.00    +0.000 C 
ATOM     18  C   UNL     1      -0.605  13.290  18.747  0.00  0.00    +0.000 C 
ATOM     19  C   UNL     1      -1.729  12.236  18.398  0.00  0.00    +0.000 C 
ATOM     20  H   UNL     1      -6.344  12.032  20.625  0.00  0.00    +0.000 HD
ATOM     21  H   UNL     1      -5.963  12.858  22.067  0.00  0.00    +0.000 HD
ENDBRANCH   7  19
ENDBRANCH   1   9
BRANCH   4  22
ATOM     22  C   UNL     1       3.147   5.881  19.586  0.00  0.00    +0.000 C 
BRANCH  22  23
ATOM     23  C   UNL     1       3.052   4.911  18.393  0.00  0.00    +0.000 C 
ATOM     24  C   UNL     1       3.520   3.516  18.780  0.00  0.00    +0.000 C 
ATOM     25  C   UNL     1       3.992   2.903  17.475  0.00  0.00    +0.000 C 
ATOM     26  C   UNL     1       4.401   4.084  16.587  0.00  0.00    +0.000 C 
ATOM     27  N   UNL     1       3.968   5.290  17.314  0.00  0.00    +0.000 NA
ATOM     28  H   UNL     1       3.518   5.961  16.690  0.00  0.00    +0.000 HD
BRANCH  26  29
ATOM     29  C   UNL     1       5.934   4.160  16.269  0.00  0.00    +0.000 C 
BRANCH  29  30
ATOM     30  C   UNL     1       6.672   5.179  17.125  0.00  0.00    +0.000 A 
ATOM     31  C   UNL     1       6.848   6.491  16.661  0.00  0.00    +0.000 A 
ATOM     32  C   UNL     1       7.582   7.418  17.409  0.00  0.00    +0.000 A 
ATOM     33  C   UNL     1       8.140   7.048  18.628  0.00  0.00    +0.000 A 
ATOM     34  C   UNL     1       7.935   5.764  19.125  0.00  0.00    +0.000 A 
ATOM     35  C   UNL     1       7.203   4.838  18.381  0.00  0.00    +0.000 A 
ENDBRANCH  29  30
BRANCH  29  36
ATOM     36  O   UNL     1       6.178   4.423  14.880  0.00  0.00    +0.000 OA
ATOM     37  H   UNL     1       5.751   3.710  14.381  0.00  0.00    +0.000 HD
ENDBRANCH  29  36
ENDBRANCH  26  29
ENDBRANCH  22  23
ENDBRANCH   4  22
TORSDOF 7
ENDMDL
