MODEL 1
REMARK VINA RESULT:      -7.6      0.000      0.000
REMARK  Name = 
REMARK  3 active torsions:
REMARK  status: ('A' for Active; 'I' for Inactive)
REMARK    1  A    between atoms: C_1  and  N_2
REMARK    2  A    between atoms: C_4  and  C_5
REMARK    3  A    between atoms: C_18  and  N_19
REMARK                            x       y       z     vdW  Elec       q    Type
REMARK                         _______ _______ _______ _____ _____    ______ ____
ROOT
ATOM      1  C   UNL     1      -2.784  11.432  18.072  0.00  0.00    +0.000 A 
ATOM      2  C   UNL     1      -3.583  11.870  19.121  0.00  0.00    +0.000 A 
ATOM      3  C   UNL     1      -4.935  12.075  18.828  0.00  0.00    +0.000 A 
ATOM      4  C   UNL     1      -5.429  11.859  17.546  0.00  0.00    +0.000 A 
ATOM      5  C   UNL     1      -4.553  11.468  16.531  0.00  0.00    +0.000 A 
ATOM      6  N   UNL     1      -3.243  11.254  16.807  0.00  0.00    +0.000 NA
ATOM      7  C   UNL     1      -6.810  12.096  17.652  0.00  0.00    +0.000 A 
ATOM      8  N   UNL     1      -7.189  12.424  18.887  0.00  0.00    +0.000 NA
ATOM      9  N   UNL     1      -6.027  12.427  19.614  0.00  0.00    +0.000 N 
ATOM     10  C   UNL     1      -6.033  12.684  21.025  0.00  0.00    +0.000 A 
ATOM     11  C   UNL     1      -7.258  12.728  21.682  0.00  0.00    +0.000 A 
ATOM     12  C   UNL     1      -7.252  12.801  23.066  0.00  0.00    +0.000 A 
ATOM     13  C   UNL     1      -6.036  12.865  23.741  0.00  0.00    +0.000 A 
ATOM     14  C   UNL     1      -4.839  12.908  23.030  0.00  0.00    +0.000 A 
ATOM     15  N   UNL     1      -4.846  12.810  21.683  0.00  0.00    +0.000 NA
ENDROOT
BRANCH  14  16
ATOM     16  N   UNL     1      -3.636  13.071  23.684  0.00  0.00    +0.000 N 
ATOM     17  C   UNL     1      -2.630  12.019  23.664  0.00  0.00    +0.000 C 
ATOM     18  C   UNL     1      -1.540  12.332  22.641  0.00  0.00    +0.000 C 
ATOM     19  C   UNL     1      -0.909  13.728  22.692  0.00  0.00    +0.000 C 
ATOM     20  N   UNL     1      -0.961  14.448  23.970  0.00  0.00    +0.000 NA
ATOM     21  C   UNL     1      -2.276  15.096  24.160  0.00  0.00    +0.000 C 
ATOM     22  C   UNL     1      -3.409  14.165  24.624  0.00  0.00    +0.000 C 
ATOM     23  H   UNL     1      -0.259  15.186  23.937  0.00  0.00    +0.000 HD
ENDBRANCH  14  16
BRANCH   1  27
ATOM     24  C   UNL     1       1.604   9.115  17.977  0.00  0.00    +0.000 C 
ATOM     25  N   UNL     1       0.537  10.044  18.261  0.00  0.00    +0.000 N 
ATOM     26  C   UNL     1      -0.730  10.012  17.765  0.00  0.00    +0.000 A 
ATOM     27  C   UNL     1      -1.391  11.095  18.312  0.00  0.00    +0.000 A 
ATOM     28  C   UNL     1      -0.413  11.703  19.135  0.00  0.00    +0.000 A 
ATOM     29  N   UNL     1       0.762  11.068  19.104  0.00  0.00    +0.000 NA
ENDBRANCH   1  27
TORSDOF 2
ENDMDL
MODEL 2
REMARK VINA RESULT:      -7.4      1.621      5.125
REMARK  Name = 
REMARK  3 active torsions:
REMARK  status: ('A' for Active; 'I' for Inactive)
REMARK    1  A    between atoms: C_1  and  N_2
REMARK    2  A    between atoms: C_4  and  C_5
REMARK    3  A    between atoms: C_18  and  N_19
REMARK                            x       y       z     vdW  Elec       q    Type
REMARK                         _______ _______ _______ _____ _____    ______ ____
ROOT
ATOM      1  C   UNL     1      -1.464  11.687  19.608  0.00  0.00    +0.000 A 
ATOM      2  C   UNL     1      -2.537  12.040  20.417  0.00  0.00    +0.000 A 
ATOM      3  C   UNL     1      -2.226  12.706  21.606  0.00  0.00    +0.000 A 
ATOM      4  C   UNL     1      -0.906  12.979  21.948  0.00  0.00    +0.000 A 
ATOM      5  C   UNL     1       0.123  12.548  21.108  0.00  0.00    +0.000 A 
ATOM      6  N   UNL     1      -0.168  11.912  19.946  0.00  0.00    +0.000 NA
ATOM      7  C   UNL     1      -0.991  13.704  23.149  0.00  0.00    +0.000 A 
ATOM      8  N   UNL     1      -2.247  13.900  23.551  0.00  0.00    +0.000 NA
ATOM      9  N   UNL     1      -3.013  13.269  22.606  0.00  0.00    +0.000 N 
ATOM     10  C   UNL     1      -4.445  13.307  22.664  0.00  0.00    +0.000 A 
ATOM     11  C   UNL     1      -5.046  14.165  23.578  0.00  0.00    +0.000 A 
ATOM     12  C   UNL     1      -6.420  14.329  23.511  0.00  0.00    +0.000 A 
ATOM     13  C   UNL     1      -7.149  13.609  22.568  0.00  0.00    +0.000 A 
ATOM     14  C   UNL     1      -6.509  12.695  21.734  0.00  0.00    +0.000 A 
ATOM     15  N   UNL     1      -5.166  12.557  21.783  0.00  0.00    +0.000 NA
ENDROOT
BRANCH  14  16
ATOM     16  N   UNL     1      -7.233  11.905  20.866  0.00  0.00    +0.000 N 
ATOM     17  C   UNL     1      -7.563  12.379  19.529  0.00  0.00    +0.000 C 
ATOM     18  C   UNL     1      -6.618  11.774  18.492  0.00  0.00    +0.000 C 
ATOM     19  C   UNL     1      -6.415  10.256  18.529  0.00  0.00    +0.000 C 
ATOM     20  N   UNL     1      -7.481   9.445  19.129  0.00  0.00    +0.000 NA
ATOM     21  C   UNL     1      -7.375   9.438  20.603  0.00  0.00    +0.000 C 
ATOM     22  C   UNL     1      -7.916  10.694  21.309  0.00  0.00    +0.000 C 
ATOM     23  H   UNL     1      -7.355   8.485  18.809  0.00  0.00    +0.000 HD
ENDBRANCH  14  16
BRANCH   1  27
ATOM     24  C   UNL     1      -3.360  10.707  15.128  0.00  0.00    +0.000 C 
ATOM     25  N   UNL     1      -2.567  10.665  16.333  0.00  0.00    +0.000 N 
ATOM     26  C   UNL     1      -2.653  11.508  17.399  0.00  0.00    +0.000 A 
ATOM     27  C   UNL     1      -1.702  11.084  18.308  0.00  0.00    +0.000 A 
ATOM     28  C   UNL     1      -1.110   9.965  17.677  0.00  0.00    +0.000 A 
ATOM     29  N   UNL     1      -1.631   9.709  16.473  0.00  0.00    +0.000 NA
ENDBRANCH   1  27
TORSDOF 2
ENDMDL
MODEL 3
REMARK VINA RESULT:      -7.3      1.724      7.020
REMARK  Name = 
REMARK  3 active torsions:
REMARK  status: ('A' for Active; 'I' for Inactive)
REMARK    1  A    between atoms: C_1  and  N_2
REMARK    2  A    between atoms: C_4  and  C_5
REMARK    3  A    between atoms: C_18  and  N_19
REMARK                            x       y       z     vdW  Elec       q    Type
REMARK                         _______ _______ _______ _____ _____    ______ ____
ROOT
ATOM      1  C   UNL     1      -2.625  12.439  22.373  0.00  0.00    +0.000 A 
ATOM      2  C   UNL     1      -2.781  12.233  21.007  0.00  0.00    +0.000 A 
ATOM      3  C   UNL     1      -1.610  12.019  20.274  0.00  0.00    +0.000 A 
ATOM      4  C   UNL     1      -0.366  12.029  20.895  0.00  0.00    +0.000 A 
ATOM      5  C   UNL     1      -0.285  12.293  22.264  0.00  0.00    +0.000 A 
ATOM      6  N   UNL     1      -1.416  12.490  22.987  0.00  0.00    +0.000 NA
ATOM      7  C   UNL     1       0.545  11.716  19.872  0.00  0.00    +0.000 A 
ATOM      8  N   UNL     1      -0.044  11.508  18.695  0.00  0.00    +0.000 NA
ATOM      9  N   UNL     1      -1.378  11.711  18.937  0.00  0.00    +0.000 N 
ATOM     10  C   UNL     1      -2.358  11.521  17.908  0.00  0.00    +0.000 A 
ATOM     11  C   UNL     1      -1.957  10.930  16.715  0.00  0.00    +0.000 A 
ATOM     12  C   UNL     1      -2.935  10.590  15.796  0.00  0.00    +0.000 A 
ATOM     13  C   UNL     1      -4.267  10.881  16.076  0.00  0.00    +0.000 A 
ATOM     14  C   UNL     1      -4.607  11.555  17.247  0.00  0.00    +0.000 A 
ATOM     15  N   UNL     1      -3.655  11.862  18.153  0.00  0.00    +0.000 NA
ENDROOT
BRANCH  14  16
ATOM     16  N   UNL     1      -5.910  11.937  17.487  0.00  0.00    +0.000 N 
ATOM     17  C   UNL     1      -6.819  11.062  18.214  0.00  0.00    +0.000 C 
ATOM     18  C   UNL     1      -6.952  11.509  19.669  0.00  0.00    +0.000 C 
ATOM     19  C   UNL     1      -7.254  12.989  19.924  0.00  0.00    +0.000 C 
ATOM     20  N   UNL     1      -7.916  13.739  18.851  0.00  0.00    +0.000 NA
ATOM     21  C   UNL     1      -6.941  14.173  17.828  0.00  0.00    +0.000 C 
ATOM     22  C   UNL     1      -6.514  13.088  16.823  0.00  0.00    +0.000 C 
ATOM     23  H   UNL     1      -8.318  14.580  19.265  0.00  0.00    +0.000 HD
ENDBRANCH  14  16
BRANCH   1  27
ATOM     24  C   UNL     1      -7.216  13.411  23.987  0.00  0.00    +0.000 C 
ATOM     25  N   UNL     1      -5.830  13.016  23.917  0.00  0.00    +0.000 N 
ATOM     26  C   UNL     1      -5.030  13.026  22.815  0.00  0.00    +0.000 A 
ATOM     27  C   UNL     1      -3.794  12.567  23.226  0.00  0.00    +0.000 A 
ATOM     28  C   UNL     1      -3.971  12.321  24.608  0.00  0.00    +0.000 A 
ATOM     29  N   UNL     1      -5.209  12.589  25.031  0.00  0.00    +0.000 NA
ENDBRANCH   1  27
TORSDOF 2
ENDMDL
MODEL 4
REMARK VINA RESULT:      -7.2      1.892      7.277
REMARK  Name = 
REMARK  3 active torsions:
REMARK  status: ('A' for Active; 'I' for Inactive)
REMARK    1  A    between atoms: C_1  and  N_2
REMARK    2  A    between atoms: C_4  and  C_5
REMARK    3  A    between atoms: C_18  and  N_19
REMARK                            x       y       z     vdW  Elec       q    Type
REMARK                         _______ _______ _______ _____ _____    ______ ____
ROOT
ATOM      1  C   UNL     1      -3.168  14.190  22.664  0.00  0.00    +0.000 A 
ATOM      2  C   UNL     1      -3.083  13.448  21.491  0.00  0.00    +0.000 A 
ATOM      3  C   UNL     1      -1.800  13.058  21.095  0.00  0.00    +0.000 A 
ATOM      4  C   UNL     1      -0.682  13.415  21.841  0.00  0.00    +0.000 A 
ATOM      5  C   UNL     1      -0.843  14.205  22.981  0.00  0.00    +0.000 A 
ATOM      6  N   UNL     1      -2.084  14.579  23.382  0.00  0.00    +0.000 NA
ATOM      7  C   UNL     1       0.396  12.798  21.184  0.00  0.00    +0.000 A 
ATOM      8  N   UNL     1       0.022  12.093  20.117  0.00  0.00    +0.000 NA
ATOM      9  N   UNL     1      -1.336  12.266  20.050  0.00  0.00    +0.000 N 
ATOM     10  C   UNL     1      -2.121  11.605  19.048  0.00  0.00    +0.000 A 
ATOM     11  C   UNL     1      -1.511  10.625  18.273  0.00  0.00    +0.000 A 
ATOM     12  C   UNL     1      -2.312   9.869  17.431  0.00  0.00    +0.000 A 
ATOM     13  C   UNL     1      -3.676  10.138  17.363  0.00  0.00    +0.000 A 
ATOM     14  C   UNL     1      -4.223  11.190  18.095  0.00  0.00    +0.000 A 
ATOM     15  N   UNL     1      -3.445  11.907  18.934  0.00  0.00    +0.000 NA
ENDROOT
BRANCH  14  16
ATOM     16  N   UNL     1      -5.553  11.528  17.958  0.00  0.00    +0.000 N 
ATOM     17  C   UNL     1      -6.596  10.668  18.499  0.00  0.00    +0.000 C 
ATOM     18  C   UNL     1      -7.115  11.217  19.827  0.00  0.00    +0.000 C 
ATOM     19  C   UNL     1      -7.510  12.697  19.869  0.00  0.00    +0.000 C 
ATOM     20  N   UNL     1      -7.890  13.332  18.601  0.00  0.00    +0.000 NA
ATOM     21  C   UNL     1      -6.693  13.732  17.830  0.00  0.00    +0.000 C 
ATOM     22  C   UNL     1      -5.992  12.595  17.066  0.00  0.00    +0.000 C 
ATOM     23  H   UNL     1      -8.407  14.182  18.824  0.00  0.00    +0.000 HD
ENDBRANCH  14  16
BRANCH   1  27
ATOM     24  C   UNL     1      -7.862  13.930  24.253  0.00  0.00    +0.000 C 
ATOM     25  N   UNL     1      -6.550  14.408  23.890  0.00  0.00    +0.000 N 
ATOM     26  C   UNL     1      -5.516  13.670  23.400  0.00  0.00    +0.000 A 
ATOM     27  C   UNL     1      -4.468  14.549  23.203  0.00  0.00    +0.000 A 
ATOM     28  C   UNL     1      -4.999  15.798  23.604  0.00  0.00    +0.000 A 
ATOM     29  N   UNL     1      -6.264  15.715  24.026  0.00  0.00    +0.000 NA
ENDBRANCH   1  27
TORSDOF 2
ENDMDL
MODEL 5
REMARK VINA RESULT:      -7.2      0.867      1.189
REMARK  Name = 
REMARK  3 active torsions:
REMARK  status: ('A' for Active; 'I' for Inactive)
REMARK    1  A    between atoms: C_1  and  N_2
REMARK    2  A    between atoms: C_4  and  C_5
REMARK    3  A    between atoms: C_18  and  N_19
REMARK                            x       y       z     vdW  Elec       q    Type
REMARK                         _______ _______ _______ _____ _____    ______ ____
ROOT
ATOM      1  C   UNL     1      -3.122  11.472  18.322  0.00  0.00    +0.000 A 
ATOM      2  C   UNL     1      -3.976  12.047  19.256  0.00  0.00    +0.000 A 
ATOM      3  C   UNL     1      -5.263  12.362  18.808  0.00  0.00    +0.000 A 
ATOM      4  C   UNL     1      -5.642  12.118  17.493  0.00  0.00    +0.000 A 
ATOM      5  C   UNL     1      -4.711  11.585  16.599  0.00  0.00    +0.000 A 
ATOM      6  N   UNL     1      -3.464  11.264  17.025  0.00  0.00    +0.000 NA
ATOM      7  C   UNL     1      -6.995  12.493  17.437  0.00  0.00    +0.000 A 
ATOM      8  N   UNL     1      -7.464  12.929  18.606  0.00  0.00    +0.000 NA
ATOM      9  N   UNL     1      -6.388  12.864  19.454  0.00  0.00    +0.000 N 
ATOM     10  C   UNL     1      -6.513  13.205  20.841  0.00  0.00    +0.000 A 
ATOM     11  C   UNL     1      -7.788  13.405  21.359  0.00  0.00    +0.000 A 
ATOM     12  C   UNL     1      -7.917  13.559  22.730  0.00  0.00    +0.000 A 
ATOM     13  C   UNL     1      -6.777  13.547  23.529  0.00  0.00    +0.000 A 
ATOM     14  C   UNL     1      -5.514  13.432  22.950  0.00  0.00    +0.000 A 
ATOM     15  N   UNL     1      -5.394  13.255  21.617  0.00  0.00    +0.000 NA
ENDROOT
BRANCH  14  16
ATOM     16  N   UNL     1      -4.374  13.519  23.721  0.00  0.00    +0.000 N 
ATOM     17  C   UNL     1      -3.714  12.316  24.209  0.00  0.00    +0.000 C 
ATOM     18  C   UNL     1      -2.497  11.981  23.348  0.00  0.00    +0.000 C 
ATOM     19  C   UNL     1      -1.500  13.112  23.070  0.00  0.00    +0.000 C 
ATOM     20  N   UNL     1      -1.452  14.221  24.030  0.00  0.00    +0.000 NA
ATOM     21  C   UNL     1      -2.537  15.191  23.773  0.00  0.00    +0.000 C 
ATOM     22  C   UNL     1      -3.925  14.782  24.297  0.00  0.00    +0.000 C 
ATOM     23  H   UNL     1      -0.567  14.710  23.892  0.00  0.00    +0.000 HD
ENDBRANCH  14  16
BRANCH   1  27
ATOM     24  C   UNL     1       1.025  10.739  20.948  0.00  0.00    +0.000 C 
ATOM     25  N   UNL     1       0.027  10.719  19.906  0.00  0.00    +0.000 N 
ATOM     26  C   UNL     1      -1.203  11.303  19.939  0.00  0.00    +0.000 A 
ATOM     27  C   UNL     1      -1.802  11.019  18.727  0.00  0.00    +0.000 A 
ATOM     28  C   UNL     1      -0.825  10.261  18.039  0.00  0.00    +0.000 A 
ATOM     29  N   UNL     1       0.288  10.073  18.755  0.00  0.00    +0.000 NA
ENDBRANCH   1  27
TORSDOF 2
ENDMDL
MODEL 6
REMARK VINA RESULT:      -7.2      1.757      5.140
REMARK  Name = 
REMARK  3 active torsions:
REMARK  status: ('A' for Active; 'I' for Inactive)
REMARK    1  A    between atoms: C_1  and  N_2
REMARK    2  A    between atoms: C_4  and  C_5
REMARK    3  A    between atoms: C_18  and  N_19
REMARK                            x       y       z     vdW  Elec       q    Type
REMARK                         _______ _______ _______ _____ _____    ______ ____
ROOT
ATOM      1  C   UNL     1      -1.617  10.500  17.953  0.00  0.00    +0.000 A 
ATOM      2  C   UNL     1      -1.892  11.103  19.175  0.00  0.00    +0.000 A 
ATOM      3  C   UNL     1      -0.866  11.075  20.125  0.00  0.00    +0.000 A 
ATOM      4  C   UNL     1       0.350  10.461  19.846  0.00  0.00    +0.000 A 
ATOM      5  C   UNL     1       0.533   9.831  18.614  0.00  0.00    +0.000 A 
ATOM      6  N   UNL     1      -0.450   9.862  17.680  0.00  0.00    +0.000 NA
ATOM      7  C   UNL     1       1.135  10.692  20.989  0.00  0.00    +0.000 A 
ATOM      8  N   UNL     1       0.501  11.400  21.923  0.00  0.00    +0.000 NA
ATOM      9  N   UNL     1      -0.745  11.626  21.396  0.00  0.00    +0.000 N 
ATOM     10  C   UNL     1      -1.715  12.417  22.096  0.00  0.00    +0.000 A 
ATOM     11  C   UNL     1      -1.304  13.122  23.221  0.00  0.00    +0.000 A 
ATOM     12  C   UNL     1      -2.194  14.019  23.789  0.00  0.00    +0.000 A 
ATOM     13  C   UNL     1      -3.468  14.154  23.244  0.00  0.00    +0.000 A 
ATOM     14  C   UNL     1      -3.861  13.358  22.169  0.00  0.00    +0.000 A 
ATOM     15  N   UNL     1      -2.982  12.505  21.602  0.00  0.00    +0.000 NA
ENDROOT
BRANCH  14  16
ATOM     16  N   UNL     1      -5.151  13.413  21.686  0.00  0.00    +0.000 N 
ATOM     17  C   UNL     1      -5.407  13.434  20.253  0.00  0.00    +0.000 C 
ATOM     18  C   UNL     1      -5.818  12.049  19.757  0.00  0.00    +0.000 C 
ATOM     19  C   UNL     1      -6.928  11.327  20.529  0.00  0.00    +0.000 C 
ATOM     20  N   UNL     1      -7.870  12.155  21.291  0.00  0.00    +0.000 NA
ATOM     21  C   UNL     1      -7.295  12.546  22.596  0.00  0.00    +0.000 C 
ATOM     22  C   UNL     1      -6.289  13.710  22.550  0.00  0.00    +0.000 C 
ATOM     23  H   UNL     1      -8.696  11.589  21.480  0.00  0.00    +0.000 HD
ENDBRANCH  14  16
BRANCH   1  27
ATOM     24  C   UNL     1      -3.866   9.897  13.570  0.00  0.00    +0.000 C 
ATOM     25  N   UNL     1      -3.555  10.298  14.921  0.00  0.00    +0.000 N 
ATOM     26  C   UNL     1      -2.451   9.961  15.642  0.00  0.00    +0.000 A 
ATOM     27  C   UNL     1      -2.587  10.571  16.874  0.00  0.00    +0.000 A 
ATOM     28  C   UNL     1      -3.818  11.262  16.770  0.00  0.00    +0.000 A 
ATOM     29  N   UNL     1      -4.412  11.095  15.585  0.00  0.00    +0.000 NA
ENDBRANCH   1  27
TORSDOF 2
ENDMDL
MODEL 7
REMARK VINA RESULT:      -7.1      1.696      3.394
REMARK  Name = 
REMARK  3 active torsions:
REMARK  status: ('A' for Active; 'I' for Inactive)
REMARK    1  A    between atoms: C_1  and  N_2
REMARK    2  A    between atoms: C_4  and  C_5
REMARK    3  A    between atoms: C_18  and  N_19
REMARK                            x       y       z     vdW  Elec       q    Type
REMARK                         _______ _______ _______ _____ _____    ______ ____
ROOT
ATOM      1  C   UNL     1      -5.081  11.907  17.791  0.00  0.00    +0.000 A 
ATOM      2  C   UNL     1      -4.788  12.177  19.123  0.00  0.00    +0.000 A 
ATOM      3  C   UNL     1      -5.821  12.729  19.886  0.00  0.00    +0.000 A 
ATOM      4  C   UNL     1      -7.063  12.996  19.321  0.00  0.00    +0.000 A 
ATOM      5  C   UNL     1      -7.266  12.745  17.963  0.00  0.00    +0.000 A 
ATOM      6  N   UNL     1      -6.275  12.198  17.215  0.00  0.00    +0.000 NA
ATOM      7  C   UNL     1      -7.845  13.469  20.389  0.00  0.00    +0.000 A 
ATOM      8  N   UNL     1      -7.185  13.497  21.546  0.00  0.00    +0.000 NA
ATOM      9  N   UNL     1      -5.926  13.054  21.234  0.00  0.00    +0.000 N 
ATOM     10  C   UNL     1      -4.924  12.890  22.247  0.00  0.00    +0.000 A 
ATOM     11  C   UNL     1      -5.309  12.991  23.579  0.00  0.00    +0.000 A 
ATOM     12  C   UNL     1      -4.381  12.660  24.552  0.00  0.00    +0.000 A 
ATOM     13  C   UNL     1      -3.097  12.278  24.171  0.00  0.00    +0.000 A 
ATOM     14  C   UNL     1      -2.735  12.279  22.825  0.00  0.00    +0.000 A 
ATOM     15  N   UNL     1      -3.650  12.576  21.877  0.00  0.00    +0.000 NA
ENDROOT
BRANCH  14  16
ATOM     16  N   UNL     1      -1.440  11.999  22.443  0.00  0.00    +0.000 N 
ATOM     17  C   UNL     1      -0.723  10.869  23.018  0.00  0.00    +0.000 C 
ATOM     18  C   UNL     1      -0.727   9.681  22.058  0.00  0.00    +0.000 C 
ATOM     19  C   UNL     1      -0.309   9.949  20.608  0.00  0.00    +0.000 C 
ATOM     20  N   UNL     1       0.555  11.108  20.356  0.00  0.00    +0.000 NA
ATOM     21  C   UNL     1      -0.235  12.356  20.299  0.00  0.00    +0.000 C 
ATOM     22  C   UNL     1      -0.643  12.940  21.663  0.00  0.00    +0.000 C 
ATOM     23  H   UNL     1       0.987  10.978  19.442  0.00  0.00    +0.000 HD
ENDBRANCH  14  16
BRANCH   1  27
ATOM     24  C   UNL     1      -2.822   9.852  13.879  0.00  0.00    +0.000 C 
ATOM     25  N   UNL     1      -3.128  10.327  15.207  0.00  0.00    +0.000 N 
ATOM     26  C   UNL     1      -4.251  10.987  15.602  0.00  0.00    +0.000 A 
ATOM     27  C   UNL     1      -4.100  11.240  16.952  0.00  0.00    +0.000 A 
ATOM     28  C   UNL     1      -2.842  10.671  17.261  0.00  0.00    +0.000 A 
ATOM     29  N   UNL     1      -2.245  10.118  16.201  0.00  0.00    +0.000 NA
ENDBRANCH   1  27
TORSDOF 2
ENDMDL
MODEL 8
REMARK VINA RESULT:      -7.1      1.262      1.464
REMARK  Name = 
REMARK  3 active torsions:
REMARK  status: ('A' for Active; 'I' for Inactive)
REMARK    1  A    between atoms: C_1  and  N_2
REMARK    2  A    between atoms: C_4  and  C_5
REMARK    3  A    between atoms: C_18  and  N_19
REMARK                            x       y       z     vdW  Elec       q    Type
REMARK                         _______ _______ _______ _____ _____    ______ ____
ROOT
ATOM      1  C   UNL     1      -1.844  10.657  18.242  0.00  0.00    +0.000 A 
ATOM      2  C   UNL     1      -2.762  11.362  19.012  0.00  0.00    +0.000 A 
ATOM      3  C   UNL     1      -3.946  11.741  18.373  0.00  0.00    +0.000 A 
ATOM      4  C   UNL     1      -4.167  11.432  17.036  0.00  0.00    +0.000 A 
ATOM      5  C   UNL     1      -3.175  10.765  16.313  0.00  0.00    +0.000 A 
ATOM      6  N   UNL     1      -2.028  10.381  16.926  0.00  0.00    +0.000 NA
ATOM      7  C   UNL     1      -5.464  11.904  16.771  0.00  0.00    +0.000 A 
ATOM      8  N   UNL     1      -6.044  12.459  17.835  0.00  0.00    +0.000 NA
ATOM      9  N   UNL     1      -5.100  12.374  18.824  0.00  0.00    +0.000 N 
ATOM     10  C   UNL     1      -5.378  12.823  20.157  0.00  0.00    +0.000 A 
ATOM     11  C   UNL     1      -6.688  13.158  20.482  0.00  0.00    +0.000 A 
ATOM     12  C   UNL     1      -6.983  13.422  21.809  0.00  0.00    +0.000 A 
ATOM     13  C   UNL     1      -5.964  13.381  22.757  0.00  0.00    +0.000 A 
ATOM     14  C   UNL     1      -4.650  13.127  22.366  0.00  0.00    +0.000 A 
ATOM     15  N   UNL     1      -4.370  12.844  21.076  0.00  0.00    +0.000 NA
ENDROOT
BRANCH  14  16
ATOM     16  N   UNL     1      -3.620  13.183  23.280  0.00  0.00    +0.000 N 
ATOM     17  C   UNL     1      -2.591  12.152  23.304  0.00  0.00    +0.000 C 
ATOM     18  C   UNL     1      -1.323  12.637  22.603  0.00  0.00    +0.000 C 
ATOM     19  C   UNL     1      -0.773  14.006  23.016  0.00  0.00    +0.000 C 
ATOM     20  N   UNL     1      -1.121  14.500  24.353  0.00  0.00    +0.000 NA
ATOM     21  C   UNL     1      -2.471  15.103  24.360  0.00  0.00    +0.000 C 
ATOM     22  C   UNL     1      -3.639  14.103  24.412  0.00  0.00    +0.000 C 
ATOM     23  H   UNL     1      -0.457  15.236  24.592  0.00  0.00    +0.000 HD
ENDBRANCH  14  16
BRANCH   1  27
ATOM     24  C   UNL     1       1.437   9.021  21.587  0.00  0.00    +0.000 C 
ATOM     25  N   UNL     1       0.803   9.425  20.356  0.00  0.00    +0.000 N 
ATOM     26  C   UNL     1      -0.474   9.870  20.200  0.00  0.00    +0.000 A 
ATOM     27  C   UNL     1      -0.633  10.135  18.853  0.00  0.00    +0.000 A 
ATOM     28  C   UNL     1       0.629   9.818  18.298  0.00  0.00    +0.000 A 
ATOM     29  N   UNL     1       1.505   9.383  19.209  0.00  0.00    +0.000 NA
ENDBRANCH   1  27
TORSDOF 2
ENDMDL
MODEL 9
REMARK VINA RESULT:      -7.1      2.161      5.933
REMARK  Name = 
REMARK  3 active torsions:
REMARK  status: ('A' for Active; 'I' for Inactive)
REMARK    1  A    between atoms: C_1  and  N_2
REMARK    2  A    between atoms: C_4  and  C_5
REMARK    3  A    between atoms: C_18  and  N_19
REMARK                            x       y       z     vdW  Elec       q    Type
REMARK                         _______ _______ _______ _____ _____    ______ ____
ROOT
ATOM      1  C   UNL     1      -5.348  14.129  21.117  0.00  0.00    +0.000 A 
ATOM      2  C   UNL     1      -4.607  13.188  20.411  0.00  0.00    +0.000 A 
ATOM      3  C   UNL     1      -5.222  12.632  19.285  0.00  0.00    +0.000 A 
ATOM      4  C   UNL     1      -6.511  13.004  18.918  0.00  0.00    +0.000 A 
ATOM      5  C   UNL     1      -7.212  13.919  19.707  0.00  0.00    +0.000 A 
ATOM      6  N   UNL     1      -6.621  14.474  20.794  0.00  0.00    +0.000 NA
ATOM      7  C   UNL     1      -6.757  12.303  17.725  0.00  0.00    +0.000 A 
ATOM      8  N   UNL     1      -5.726  11.552  17.339  0.00  0.00    +0.000 NA
ATOM      9  N   UNL     1      -4.779  11.742  18.313  0.00  0.00    +0.000 N 
ATOM     10  C   UNL     1      -3.485  11.132  18.220  0.00  0.00    +0.000 A 
ATOM     11  C   UNL     1      -3.132  10.511  17.027  0.00  0.00    +0.000 A 
ATOM     12  C   UNL     1      -1.824  10.080  16.880  0.00  0.00    +0.000 A 
ATOM     13  C   UNL     1      -0.927  10.246  17.932  0.00  0.00    +0.000 A 
ATOM     14  C   UNL     1      -1.355  10.794  19.140  0.00  0.00    +0.000 A 
ATOM     15  N   UNL     1      -2.623  11.238  19.271  0.00  0.00    +0.000 NA
ENDROOT
BRANCH  14  16
ATOM     16  N   UNL     1      -0.502  10.871  20.220  0.00  0.00    +0.000 N 
ATOM     17  C   UNL     1      -0.487  12.051  21.073  0.00  0.00    +0.000 C 
ATOM     18  C   UNL     1      -1.277  11.800  22.356  0.00  0.00    +0.000 C 
ATOM     19  C   UNL     1      -0.958  10.522  23.139  0.00  0.00    +0.000 C 
ATOM     20  N   UNL     1       0.373   9.932  22.956  0.00  0.00    +0.000 NA
ATOM     21  C   UNL     1       0.427   9.121  21.721  0.00  0.00    +0.000 C 
ATOM     22  C   UNL     1       0.587   9.919  20.415  0.00  0.00    +0.000 C 
ATOM     23  H   UNL     1       0.542   9.303  23.741  0.00  0.00    +0.000 HD
ENDBRANCH  14  16
BRANCH   1  27
ATOM     24  C   UNL     1      -4.710  17.119  25.027  0.00  0.00    +0.000 C 
ATOM     25  N   UNL     1      -4.491  16.172  23.961  0.00  0.00    +0.000 N 
ATOM     26  C   UNL     1      -5.411  15.721  23.064  0.00  0.00    +0.000 A 
ATOM     27  C   UNL     1      -4.749  14.832  22.239  0.00  0.00    +0.000 A 
ATOM     28  C   UNL     1      -3.423  14.840  22.733  0.00  0.00    +0.000 A 
ATOM     29  N   UNL     1      -3.263  15.651  23.783  0.00  0.00    +0.000 NA
ENDBRANCH   1  27
TORSDOF 2
ENDMDL
