MODEL 1
REMARK VINA RESULT:      -6.3      0.000      0.000
REMARK  Name = 
REMARK  4 active torsions:
REMARK  status: ('A' for Active; 'I' for Inactive)
REMARK    1  A    between atoms: C_1  and  O_2
REMARK    2  A    between atoms: O_2  and  C_3
REMARK    3  A    between atoms: C_6  and  N_7
REMARK    4  A    between atoms: C_9  and  C_10
REMARK                            x       y       z     vdW  Elec       q    Type
REMARK                         _______ _______ _______ _____ _____    ______ ____
ROOT
ATOM      1  N   UNL     1       4.034   6.686  18.711  0.00  0.00    +0.000 N 
ATOM      2  C   UNL     1       2.681   6.951  18.310  0.00  0.00    +0.000 C 
ATOM      3  C   UNL     1       3.014   5.886  19.362  0.00  0.00    +0.000 C 
ENDROOT
BRANCH   1   7
ATOM      4  C   UNL     1       6.742   5.207  15.828  0.00  0.00    +0.000 A 
ATOM      5  C   UNL     1       5.551   5.831  15.481  0.00  0.00    +0.000 A 
ATOM      6  C   UNL     1       4.734   6.374  16.472  0.00  0.00    +0.000 A 
ATOM      7  C   UNL     1       5.062   6.290  17.842  0.00  0.00    +0.000 A 
ATOM      8  C   UNL     1       6.260   5.665  18.176  0.00  0.00    +0.000 A 
ATOM      9  C   UNL     1       7.099   5.125  17.177  0.00  0.00    +0.000 A 
BRANCH   4  11
ATOM     10  C   UNL     1       6.629   4.130  13.732  0.00  0.00    +0.000 C 
ATOM     11  O   UNL     1       7.429   4.655  14.784  0.00  0.00    +0.000 OA
ENDBRANCH   4  11
ENDBRANCH   1   7
BRANCH   3  12
ATOM     12  C   UNL     1       2.360   4.559  19.101  0.00  0.00    +0.000 A 
ATOM     13  C   UNL     1       2.698   3.644  18.106  0.00  0.00    +0.000 A 
ATOM     14  C   UNL     1       2.014   2.433  18.031  0.00  0.00    +0.000 A 
ATOM     15  N   UNL     1       1.033   2.056  18.883  0.00  0.00    +0.000 NA
ATOM     16  C   UNL     1       0.719   2.931  19.851  0.00  0.00    +0.000 A 
ATOM     17  C   UNL     1       1.338   4.162  19.989  0.00  0.00    +0.000 A 
ENDBRANCH   3  12
TORSDOF 3
ENDMDL
MODEL 2
REMARK VINA RESULT:      -6.3      2.861      6.021
REMARK  Name = 
REMARK  4 active torsions:
REMARK  status: ('A' for Active; 'I' for Inactive)
REMARK    1  A    between atoms: C_1  and  O_2
REMARK    2  A    between atoms: O_2  and  C_3
REMARK    3  A    between atoms: C_6  and  N_7
REMARK    4  A    between atoms: C_9  and  C_10
REMARK                            x       y       z     vdW  Elec       q    Type
REMARK                         _______ _______ _______ _____ _____    ______ ____
ROOT
ATOM      1  N   UNL     1       6.219   5.508  17.379  0.00  0.00    +0.000 N 
ATOM      2  C   UNL     1       7.294   4.569  17.218  0.00  0.00    +0.000 C 
ATOM      3  C   UNL     1       6.901   5.543  16.100  0.00  0.00    +0.000 C 
ENDROOT
BRANCH   1   7
ATOM      4  C   UNL     1       2.265   4.104  17.859  0.00  0.00    +0.000 A 
ATOM      5  C   UNL     1       3.358   3.249  17.804  0.00  0.00    +0.000 A 
ATOM      6  C   UNL     1       4.649   3.772  17.728  0.00  0.00    +0.000 A 
ATOM      7  C   UNL     1       4.892   5.160  17.676  0.00  0.00    +0.000 A 
ATOM      8  C   UNL     1       3.788   6.007  17.735  0.00  0.00    +0.000 A 
ATOM      9  C   UNL     1       2.480   5.484  17.826  0.00  0.00    +0.000 A 
BRANCH   4  11
ATOM     10  C   UNL     1       0.932   2.369  18.741  0.00  0.00    +0.000 C 
ATOM     11  O   UNL     1       1.048   3.483  17.865  0.00  0.00    +0.000 OA
ENDBRANCH   4  11
ENDBRANCH   1   7
BRANCH   3  12
ATOM     12  C   UNL     1       6.716   4.880  14.764  0.00  0.00    +0.000 A 
ATOM     13  C   UNL     1       5.679   4.026  14.394  0.00  0.00    +0.000 A 
ATOM     14  C   UNL     1       5.633   3.531  13.093  0.00  0.00    +0.000 A 
ATOM     15  N   UNL     1       6.530   3.837  12.127  0.00  0.00    +0.000 NA
ATOM     16  C   UNL     1       7.519   4.672  12.480  0.00  0.00    +0.000 A 
ATOM     17  C   UNL     1       7.648   5.199  13.755  0.00  0.00    +0.000 A 
ENDBRANCH   3  12
TORSDOF 3
ENDMDL
MODEL 3
REMARK VINA RESULT:      -6.2      2.199      3.269
REMARK  Name = 
REMARK  4 active torsions:
REMARK  status: ('A' for Active; 'I' for Inactive)
REMARK    1  A    between atoms: C_1  and  O_2
REMARK    2  A    between atoms: O_2  and  C_3
REMARK    3  A    between atoms: C_6  and  N_7
REMARK    4  A    between atoms: C_9  and  C_10
REMARK                            x       y       z     vdW  Elec       q    Type
REMARK                         _______ _______ _______ _____ _____    ______ ____
ROOT
ATOM      1  N   UNL     1       4.546   4.012  16.532  0.00  0.00    +0.000 N 
ATOM      2  C   UNL     1       4.398   2.809  17.303  0.00  0.00    +0.000 C 
ATOM      3  C   UNL     1       3.236   3.792  17.113  0.00  0.00    +0.000 C 
ENDROOT
BRANCH   1   7
ATOM      4  C   UNL     1       7.379   6.853  17.848  0.00  0.00    +0.000 A 
ATOM      5  C   UNL     1       7.541   5.490  18.055  0.00  0.00    +0.000 A 
ATOM      6  C   UNL     1       6.614   4.590  17.526  0.00  0.00    +0.000 A 
ATOM      7  C   UNL     1       5.485   5.020  16.799  0.00  0.00    +0.000 A 
ATOM      8  C   UNL     1       5.337   6.390  16.596  0.00  0.00    +0.000 A 
ATOM      9  C   UNL     1       6.278   7.305  17.116  0.00  0.00    +0.000 A 
BRANCH   4  11
ATOM     10  C   UNL     1       8.327   9.004  18.058  0.00  0.00    +0.000 C 
ATOM     11  O   UNL     1       8.308   7.643  18.466  0.00  0.00    +0.000 OA
ENDBRANCH   4  11
ENDBRANCH   1   7
BRANCH   3  12
ATOM     12  C   UNL     1       2.551   4.169  18.397  0.00  0.00    +0.000 A 
ATOM     13  C   UNL     1       2.771   5.319  19.152  0.00  0.00    +0.000 A 
ATOM     14  C   UNL     1       2.014   5.536  20.301  0.00  0.00    +0.000 A 
ATOM     15  N   UNL     1       1.043   4.705  20.744  0.00  0.00    +0.000 NA
ATOM     16  C   UNL     1       0.821   3.606  20.007  0.00  0.00    +0.000 A 
ATOM     17  C   UNL     1       1.537   3.305  18.860  0.00  0.00    +0.000 A 
ENDBRANCH   3  12
TORSDOF 3
ENDMDL
MODEL 4
REMARK VINA RESULT:      -6.2      3.109      6.077
REMARK  Name = 
REMARK  4 active torsions:
REMARK  status: ('A' for Active; 'I' for Inactive)
REMARK    1  A    between atoms: C_1  and  O_2
REMARK    2  A    between atoms: O_2  and  C_3
REMARK    3  A    between atoms: C_6  and  N_7
REMARK    4  A    between atoms: C_9  and  C_10
REMARK                            x       y       z     vdW  Elec       q    Type
REMARK                         _______ _______ _______ _____ _____    ______ ____
ROOT
ATOM      1  N   UNL     1       3.144   4.262  18.561  0.00  0.00    +0.000 N 
ATOM      2  C   UNL     1       2.971   3.724  17.240  0.00  0.00    +0.000 C 
ATOM      3  C   UNL     1       4.341   3.743  17.929  0.00  0.00    +0.000 C 
ENDROOT
BRANCH   1   7
ATOM      4  C   UNL     1       1.707   8.015  19.858  0.00  0.00    +0.000 A 
ATOM      5  C   UNL     1       1.693   6.890  20.672  0.00  0.00    +0.000 A 
ATOM      6  C   UNL     1       2.256   5.696  20.221  0.00  0.00    +0.000 A 
ATOM      7  C   UNL     1       2.827   5.576  18.936  0.00  0.00    +0.000 A 
ATOM      8  C   UNL     1       2.837   6.712  18.131  0.00  0.00    +0.000 A 
ATOM      9  C   UNL     1       2.282   7.927  18.587  0.00  0.00    +0.000 A 
BRANCH   4  11
ATOM     10  C   UNL     1       0.204   8.851  21.473  0.00  0.00    +0.000 C 
ATOM     11  O   UNL     1       1.070   9.107  20.375  0.00  0.00    +0.000 OA
ENDBRANCH   4  11
ENDBRANCH   1   7
BRANCH   3  12
ATOM     12  C   UNL     1       5.437   4.312  17.071  0.00  0.00    +0.000 A 
ATOM     13  C   UNL     1       5.752   3.940  15.766  0.00  0.00    +0.000 A 
ATOM     14  C   UNL     1       6.776   4.604  15.095  0.00  0.00    +0.000 A 
ATOM     15  N   UNL     1       7.496   5.624  15.618  0.00  0.00    +0.000 NA
ATOM     16  C   UNL     1       7.180   5.993  16.868  0.00  0.00    +0.000 A 
ATOM     17  C   UNL     1       6.187   5.377  17.612  0.00  0.00    +0.000 A 
ENDBRANCH   3  12
TORSDOF 3
ENDMDL
MODEL 5
REMARK VINA RESULT:      -6.2      0.599      1.157
REMARK  Name = 
REMARK  4 active torsions:
REMARK  status: ('A' for Active; 'I' for Inactive)
REMARK    1  A    between atoms: C_1  and  O_2
REMARK    2  A    between atoms: O_2  and  C_3
REMARK    3  A    between atoms: C_6  and  N_7
REMARK    4  A    between atoms: C_9  and  C_10
REMARK                            x       y       z     vdW  Elec       q    Type
REMARK                         _______ _______ _______ _____ _____    ______ ____
ROOT
ATOM      1  N   UNL     1       4.240   6.393  18.998  0.00  0.00    +0.000 N 
ATOM      2  C   UNL     1       2.859   6.647  18.693  0.00  0.00    +0.000 C 
ATOM      3  C   UNL     1       3.277   5.546  19.676  0.00  0.00    +0.000 C 
ENDROOT
BRANCH   1   7
ATOM      4  C   UNL     1       6.791   5.077  15.901  0.00  0.00    +0.000 A 
ATOM      5  C   UNL     1       5.555   5.658  15.651  0.00  0.00    +0.000 A 
ATOM      6  C   UNL     1       4.790   6.150  16.709  0.00  0.00    +0.000 A 
ATOM      7  C   UNL     1       5.217   6.055  18.050  0.00  0.00    +0.000 A 
ATOM      8  C   UNL     1       6.460   5.473  18.286  0.00  0.00    +0.000 A 
ATOM      9  C   UNL     1       7.246   4.986  17.219  0.00  0.00    +0.000 A 
BRANCH   4  11
ATOM     10  C   UNL     1       6.573   4.201  13.721  0.00  0.00    +0.000 C 
ATOM     11  O   UNL     1       7.422   4.572  14.799  0.00  0.00    +0.000 OA
ENDBRANCH   4  11
ENDBRANCH   1   7
BRANCH   3  12
ATOM     12  C   UNL     1       2.632   4.217  19.401  0.00  0.00    +0.000 A 
ATOM     13  C   UNL     1       1.273   3.921  19.470  0.00  0.00    +0.000 A 
ATOM     14  C   UNL     1       0.835   2.640  19.137  0.00  0.00    +0.000 A 
ATOM     15  N   UNL     1       1.647   1.640  18.723  0.00  0.00    +0.000 NA
ATOM     16  C   UNL     1       2.954   1.931  18.642  0.00  0.00    +0.000 A 
ATOM     17  C   UNL     1       3.475   3.173  18.967  0.00  0.00    +0.000 A 
ENDBRANCH   3  12
TORSDOF 3
ENDMDL
MODEL 6
REMARK VINA RESULT:      -6.1      2.997      6.253
REMARK  Name = 
REMARK  4 active torsions:
REMARK  status: ('A' for Active; 'I' for Inactive)
REMARK    1  A    between atoms: C_1  and  O_2
REMARK    2  A    between atoms: O_2  and  C_3
REMARK    3  A    between atoms: C_6  and  N_7
REMARK    4  A    between atoms: C_9  and  C_10
REMARK                            x       y       z     vdW  Elec       q    Type
REMARK                         _______ _______ _______ _____ _____    ______ ____
ROOT
ATOM      1  N   UNL     1       4.825   3.702  16.452  0.00  0.00    +0.000 N 
ATOM      2  C   UNL     1       5.068   4.748  15.498  0.00  0.00    +0.000 C 
ATOM      3  C   UNL     1       6.171   4.242  16.436  0.00  0.00    +0.000 C 
ENDROOT
BRANCH   1   7
ATOM      4  C   UNL     1       1.868   3.307  19.441  0.00  0.00    +0.000 A 
ATOM      5  C   UNL     1       3.041   2.563  19.450  0.00  0.00    +0.000 A 
ATOM      6  C   UNL     1       4.020   2.794  18.483  0.00  0.00    +0.000 A 
ATOM      7  C   UNL     1       3.852   3.753  17.462  0.00  0.00    +0.000 A 
ATOM      8  C   UNL     1       2.673   4.494  17.466  0.00  0.00    +0.000 A 
ATOM      9  C   UNL     1       1.684   4.275  18.450  0.00  0.00    +0.000 A 
BRANCH   4  11
ATOM     10  C   UNL     1       1.487   2.660  21.678  0.00  0.00    +0.000 C 
ATOM     11  O   UNL     1       0.954   2.952  20.392  0.00  0.00    +0.000 OA
ENDBRANCH   4  11
ENDBRANCH   1   7
BRANCH   3  12
ATOM     12  C   UNL     1       6.897   5.341  17.158  0.00  0.00    +0.000 A 
ATOM     13  C   UNL     1       7.036   6.663  16.741  0.00  0.00    +0.000 A 
ATOM     14  C   UNL     1       7.707   7.571  17.558  0.00  0.00    +0.000 A 
ATOM     15  N   UNL     1       8.233   7.266  18.767  0.00  0.00    +0.000 NA
ATOM     16  C   UNL     1       8.084   5.997  19.175  0.00  0.00    +0.000 A 
ATOM     17  C   UNL     1       7.444   5.027  18.420  0.00  0.00    +0.000 A 
ENDBRANCH   3  12
TORSDOF 3
ENDMDL
MODEL 7
REMARK VINA RESULT:      -6.1      1.745      3.030
REMARK  Name = 
REMARK  4 active torsions:
REMARK  status: ('A' for Active; 'I' for Inactive)
REMARK    1  A    between atoms: C_1  and  O_2
REMARK    2  A    between atoms: O_2  and  C_3
REMARK    3  A    between atoms: C_6  and  N_7
REMARK    4  A    between atoms: C_9  and  C_10
REMARK                            x       y       z     vdW  Elec       q    Type
REMARK                         _______ _______ _______ _____ _____    ______ ____
ROOT
ATOM      1  N   UNL     1       4.044   3.291  17.540  0.00  0.00    +0.000 N 
ATOM      2  C   UNL     1       4.025   3.036  18.954  0.00  0.00    +0.000 C 
ATOM      3  C   UNL     1       2.876   3.772  18.253  0.00  0.00    +0.000 C 
ENDROOT
BRANCH   1   7
ATOM      4  C   UNL     1       7.050   5.056  15.157  0.00  0.00    +0.000 A 
ATOM      5  C   UNL     1       5.831   4.643  14.634  0.00  0.00    +0.000 A 
ATOM      6  C   UNL     1       4.843   4.142  15.482  0.00  0.00    +0.000 A 
ATOM      7  C   UNL     1       5.045   4.012  16.872  0.00  0.00    +0.000 A 
ATOM      8  C   UNL     1       6.270   4.433  17.383  0.00  0.00    +0.000 A 
ATOM      9  C   UNL     1       7.269   4.954  16.533  0.00  0.00    +0.000 A 
BRANCH   4  11
ATOM     10  C   UNL     1       7.705   5.062  12.890  0.00  0.00    +0.000 C 
ATOM     11  O   UNL     1       7.964   5.467  14.228  0.00  0.00    +0.000 OA
ENDBRANCH   4  11
ENDBRANCH   1   7
BRANCH   3  12
ATOM     12  C   UNL     1       2.484   5.055  18.930  0.00  0.00    +0.000 A 
ATOM     13  C   UNL     1       1.976   5.196  20.220  0.00  0.00    +0.000 A 
ATOM     14  C   UNL     1       1.704   6.470  20.712  0.00  0.00    +0.000 A 
ATOM     15  N   UNL     1       1.917   7.616  20.024  0.00  0.00    +0.000 NA
ATOM     16  C   UNL     1       2.420   7.480  18.788  0.00  0.00    +0.000 A 
ATOM     17  C   UNL     1       2.706   6.251  18.216  0.00  0.00    +0.000 A 
ENDBRANCH   3  12
TORSDOF 3
ENDMDL
MODEL 8
REMARK VINA RESULT:      -6.0      3.003      6.258
REMARK  Name = 
REMARK  4 active torsions:
REMARK  status: ('A' for Active; 'I' for Inactive)
REMARK    1  A    between atoms: C_1  and  O_2
REMARK    2  A    between atoms: O_2  and  C_3
REMARK    3  A    between atoms: C_6  and  N_7
REMARK    4  A    between atoms: C_9  and  C_10
REMARK                            x       y       z     vdW  Elec       q    Type
REMARK                         _______ _______ _______ _____ _____    ______ ____
ROOT
ATOM      1  N   UNL     1       5.703   5.284  17.133  0.00  0.00    +0.000 N 
ATOM      2  C   UNL     1       6.994   4.661  17.045  0.00  0.00    +0.000 C 
ATOM      3  C   UNL     1       6.439   5.526  15.907  0.00  0.00    +0.000 C 
ENDROOT
BRANCH   1   7
ATOM      4  C   UNL     1       2.044   3.475  18.214  0.00  0.00    +0.000 A 
ATOM      5  C   UNL     1       2.237   4.849  18.257  0.00  0.00    +0.000 A 
ATOM      6  C   UNL     1       3.438   5.399  17.809  0.00  0.00    +0.000 A 
ATOM      7  C   UNL     1       4.496   4.597  17.331  0.00  0.00    +0.000 A 
ATOM      8  C   UNL     1       4.288   3.220  17.291  0.00  0.00    +0.000 A 
ATOM      9  C   UNL     1       3.070   2.659  17.730  0.00  0.00    +0.000 A 
BRANCH   4  11
ATOM     10  C   UNL     1       0.685   3.264  20.132  0.00  0.00    +0.000 C 
ATOM     11  O   UNL     1       0.858   3.044  18.738  0.00  0.00    +0.000 OA
ENDBRANCH   4  11
ENDBRANCH   1   7
BRANCH   3  12
ATOM     12  C   UNL     1       6.524   4.871  14.557  0.00  0.00    +0.000 A 
ATOM     13  C   UNL     1       5.643   3.928  14.031  0.00  0.00    +0.000 A 
ATOM     14  C   UNL     1       5.845   3.452  12.737  0.00  0.00    +0.000 A 
ATOM     15  N   UNL     1       6.845   3.858  11.922  0.00  0.00    +0.000 NA
ATOM     16  C   UNL     1       7.683   4.778  12.423  0.00  0.00    +0.000 A 
ATOM     17  C   UNL     1       7.565   5.293  13.704  0.00  0.00    +0.000 A 
ENDBRANCH   3  12
TORSDOF 3
ENDMDL
MODEL 9
REMARK VINA RESULT:      -6.0      3.315      5.311
REMARK  Name = 
REMARK  4 active torsions:
REMARK  status: ('A' for Active; 'I' for Inactive)
REMARK    1  A    between atoms: C_1  and  O_2
REMARK    2  A    between atoms: O_2  and  C_3
REMARK    3  A    between atoms: C_6  and  N_7
REMARK    4  A    between atoms: C_9  and  C_10
REMARK                            x       y       z     vdW  Elec       q    Type
REMARK                         _______ _______ _______ _____ _____    ______ ____
ROOT
ATOM      1  N   UNL     1       3.642   6.721  17.712  0.00  0.00    +0.000 N 
ATOM      2  C   UNL     1       4.717   5.963  18.290  0.00  0.00    +0.000 C 
ATOM      3  C   UNL     1       3.696   5.319  17.343  0.00  0.00    +0.000 C 
ENDROOT
BRANCH   1   7
ATOM      4  C   UNL     1       0.987   9.272  19.779  0.00  0.00    +0.000 A 
ATOM      5  C   UNL     1       1.321   9.467  18.445  0.00  0.00    +0.000 A 
ATOM      6  C   UNL     1       2.139   8.546  17.789  0.00  0.00    +0.000 A 
ATOM      7  C   UNL     1       2.670   7.417  18.446  0.00  0.00    +0.000 A 
ATOM      8  C   UNL     1       2.324   7.231  19.782  0.00  0.00    +0.000 A 
ATOM      9  C   UNL     1       1.486   8.152  20.448  0.00  0.00    +0.000 A 
BRANCH   4  11
ATOM     10  C   UNL     1      -0.133  10.074  21.695  0.00  0.00    +0.000 C 
ATOM     11  O   UNL     1       0.237  10.269  20.336  0.00  0.00    +0.000 OA
ENDBRANCH   4  11
ENDBRANCH   1   7
BRANCH   3  12
ATOM     12  C   UNL     1       3.103   4.044  17.875  0.00  0.00    +0.000 A 
ATOM     13  C   UNL     1       3.798   2.899  18.259  0.00  0.00    +0.000 A 
ATOM     14  C   UNL     1       3.093   1.814  18.775  0.00  0.00    +0.000 A 
ATOM     15  N   UNL     1       1.752   1.791  18.956  0.00  0.00    +0.000 NA
ATOM     16  C   UNL     1       1.087   2.900  18.601  0.00  0.00    +0.000 A 
ATOM     17  C   UNL     1       1.706   4.018  18.066  0.00  0.00    +0.000 A 
ENDBRANCH   3  12
TORSDOF 3
ENDMDL
