MODEL 1
REMARK VINA RESULT:      -7.3      0.000      0.000
REMARK  Name = 
REMARK  2 active torsions:
REMARK  status: ('A' for Active; 'I' for Inactive)
REMARK    1  A    between atoms: C_1  and  C_2
REMARK    2  A    between atoms: C_2  and  C_3
REMARK                            x       y       z     vdW  Elec       q    Type
REMARK                         _______ _______ _______ _____ _____    ______ ____
ROOT
ATOM      1  C   UNL     1       0.054  10.402  19.750  0.00  0.00    +0.000 C 
ATOM      2  O   UNL     1      -0.218  10.597  20.933  0.00  0.00    +0.000 OA
ATOM      3  N   UNL     1       1.105   9.586  19.364  0.00  0.00    +0.000 N 
ATOM      4  C   UNL     1       1.831   8.812  20.374  0.00  0.00    +0.000 C 
ATOM      5  C   UNL     1       1.684   7.300  20.110  0.00  0.00    +0.000 C 
ATOM      6  N   UNL     1       2.036   6.955  18.718  0.00  0.00    +0.000 N 
ATOM      7  C   UNL     1       3.135   6.165  18.423  0.00  0.00    +0.000 C 
ATOM      8  N   UNL     1       4.084   6.556  17.627  0.00  0.00    +0.000 NA
ATOM      9  C   UNL     1       5.196   5.779  17.237  0.00  0.00    +0.000 A 
ATOM     10  C   UNL     1       5.649   6.007  15.930  0.00  0.00    +0.000 A 
ATOM     11  C   UNL     1       6.749   5.325  15.421  0.00  0.00    +0.000 A 
ATOM     12  F   UNL     1       7.129   5.534  14.155  0.00  0.00    +0.000 F 
ATOM     13  C   UNL     1       7.450   4.421  16.201  0.00  0.00    +0.000 A 
ATOM     14  C   UNL     1       7.044   4.200  17.514  0.00  0.00    +0.000 A 
ATOM     15  C   UNL     1       5.919   4.867  18.047  0.00  0.00    +0.000 A 
ATOM     16  N   UNL     1       5.473   4.448  19.332  0.00  0.00    +0.000 N 
ATOM     17  C   UNL     1       4.180   4.092  19.528  0.00  0.00    +0.000 A 
ATOM     18  C   UNL     1       3.815   2.931  20.171  0.00  0.00    +0.000 A 
ATOM     19  S   UNL     1       2.125   2.685  20.116  0.00  0.00    +0.000 S 
ATOM     20  C   UNL     1       1.891   4.157  19.285  0.00  0.00    +0.000 A 
ATOM     21  C   UNL     1       3.072   4.852  19.059  0.00  0.00    +0.000 A 
ATOM     22  C   UNL     1       1.412   7.791  17.681  0.00  0.00    +0.000 C 
ATOM     23  C   UNL     1       1.531   9.293  17.990  0.00  0.00    +0.000 C 
ATOM     24  H   UNL     1       6.189   3.907  19.806  0.00  0.00    +0.000 HD
ENDROOT
BRANCH   1  26
ATOM     25  C   UNL     1      -1.973  10.181  18.246  0.00  0.00    +0.000 C 
ATOM     26  C   UNL     1      -0.774  11.030  18.639  0.00  0.00    +0.000 C 
ENDBRANCH   1  26
TORSDOF 1
ENDMDL
MODEL 2
REMARK VINA RESULT:      -7.0      4.689      7.282
REMARK  Name = 
REMARK  2 active torsions:
REMARK  status: ('A' for Active; 'I' for Inactive)
REMARK    1  A    between atoms: C_1  and  C_2
REMARK    2  A    between atoms: C_2  and  C_3
REMARK                            x       y       z     vdW  Elec       q    Type
REMARK                         _______ _______ _______ _____ _____    ______ ____
ROOT
ATOM      1  C   UNL     1      -3.873  13.672  23.048  0.00  0.00    +0.000 C 
ATOM      2  O   UNL     1      -4.472  14.602  22.510  0.00  0.00    +0.000 OA
ATOM      3  N   UNL     1      -3.020  12.842  22.339  0.00  0.00    +0.000 N 
ATOM      4  C   UNL     1      -2.697  13.153  20.944  0.00  0.00    +0.000 C 
ATOM      5  C   UNL     1      -1.188  13.422  20.781  0.00  0.00    +0.000 C 
ATOM      6  N   UNL     1      -0.377  12.330  21.358  0.00  0.00    +0.000 N 
ATOM      7  C   UNL     1       0.417  11.519  20.563  0.00  0.00    +0.000 C 
ATOM      8  N   UNL     1       0.300  10.226  20.547  0.00  0.00    +0.000 NA
ATOM      9  C   UNL     1       1.115   9.341  19.810  0.00  0.00    +0.000 A 
ATOM     10  C   UNL     1       1.357   8.105  20.427  0.00  0.00    +0.000 A 
ATOM     11  C   UNL     1       2.129   7.130  19.805  0.00  0.00    +0.000 A 
ATOM     12  F   UNL     1       2.376   5.978  20.439  0.00  0.00    +0.000 F 
ATOM     13  C   UNL     1       2.657   7.337  18.541  0.00  0.00    +0.000 A 
ATOM     14  C   UNL     1       2.404   8.541  17.891  0.00  0.00    +0.000 A 
ATOM     15  C   UNL     1       1.639   9.554  18.510  0.00  0.00    +0.000 A 
ATOM     16  N   UNL     1       1.583  10.812  17.847  0.00  0.00    +0.000 N 
ATOM     17  C   UNL     1       1.900  11.952  18.508  0.00  0.00    +0.000 A 
ATOM     18  C   UNL     1       2.763  12.895  17.999  0.00  0.00    +0.000 A 
ATOM     19  S   UNL     1       3.087  14.132  19.133  0.00  0.00    +0.000 S 
ATOM     20  C   UNL     1       2.028  13.428  20.272  0.00  0.00    +0.000 A 
ATOM     21  C   UNL     1       1.412  12.273  19.805  0.00  0.00    +0.000 A 
ATOM     22  C   UNL     1      -0.752  11.913  22.718  0.00  0.00    +0.000 C 
ATOM     23  C   UNL     1      -2.267  11.697  22.867  0.00  0.00    +0.000 C 
ATOM     24  H   UNL     1       1.883  10.727  16.881  0.00  0.00    +0.000 HD
ENDROOT
BRANCH   1  26
ATOM     25  C   UNL     1      -4.995  12.273  24.837  0.00  0.00    +0.000 C 
ATOM     26  C   UNL     1      -4.019  13.400  24.538  0.00  0.00    +0.000 C 
ENDBRANCH   1  26
TORSDOF 1
ENDMDL
MODEL 3
REMARK VINA RESULT:      -7.0      3.069      4.527
REMARK  Name = 
REMARK  2 active torsions:
REMARK  status: ('A' for Active; 'I' for Inactive)
REMARK    1  A    between atoms: C_1  and  C_2
REMARK    2  A    between atoms: C_2  and  C_3
REMARK                            x       y       z     vdW  Elec       q    Type
REMARK                         _______ _______ _______ _____ _____    ______ ____
ROOT
ATOM      1  C   UNL     1      -0.036  11.641  19.261  0.00  0.00    +0.000 C 
ATOM      2  O   UNL     1      -0.200  12.273  18.220  0.00  0.00    +0.000 OA
ATOM      3  N   UNL     1       0.219  10.280  19.260  0.00  0.00    +0.000 N 
ATOM      4  C   UNL     1       0.448   9.585  17.991  0.00  0.00    +0.000 C 
ATOM      5  C   UNL     1       1.867   8.984  17.947  0.00  0.00    +0.000 C 
ATOM      6  N   UNL     1       2.146   8.163  19.142  0.00  0.00    +0.000 N 
ATOM      7  C   UNL     1       2.346   6.794  19.051  0.00  0.00    +0.000 C 
ATOM      8  N   UNL     1       1.636   5.937  19.720  0.00  0.00    +0.000 NA
ATOM      9  C   UNL     1       1.829   4.540  19.720  0.00  0.00    +0.000 A 
ATOM     10  C   UNL     1       1.549   3.902  20.938  0.00  0.00    +0.000 A 
ATOM     11  C   UNL     1       1.678   2.525  21.074  0.00  0.00    +0.000 A 
ATOM     12  F   UNL     1       1.446   1.953  22.262  0.00  0.00    +0.000 F 
ATOM     13  C   UNL     1       2.056   1.734  20.002  0.00  0.00    +0.000 A 
ATOM     14  C   UNL     1       2.305   2.335  18.772  0.00  0.00    +0.000 A 
ATOM     15  C   UNL     1       2.200   3.735  18.613  0.00  0.00    +0.000 A 
ATOM     16  N   UNL     1       2.646   4.276  17.375  0.00  0.00    +0.000 N 
ATOM     17  C   UNL     1       3.550   5.286  17.351  0.00  0.00    +0.000 A 
ATOM     18  C   UNL     1       4.671   5.265  16.555  0.00  0.00    +0.000 A 
ATOM     19  S   UNL     1       5.693   6.598  16.870  0.00  0.00    +0.000 S 
ATOM     20  C   UNL     1       4.602   7.220  18.026  0.00  0.00    +0.000 A 
ATOM     21  C   UNL     1       3.458   6.445  18.171  0.00  0.00    +0.000 A 
ATOM     22  C   UNL     1       1.817   8.788  20.432  0.00  0.00    +0.000 C 
ATOM     23  C   UNL     1       0.415   9.421  20.435  0.00  0.00    +0.000 C 
ATOM     24  H   UNL     1       2.730   3.550  16.671  0.00  0.00    +0.000 HD
ENDROOT
BRANCH   1  26
ATOM     25  C   UNL     1      -1.496  12.555  21.120  0.00  0.00    +0.000 C 
ATOM     26  C   UNL     1      -0.079  12.333  20.616  0.00  0.00    +0.000 C 
ENDBRANCH   1  26
TORSDOF 1
ENDMDL
MODEL 4
REMARK VINA RESULT:      -6.6      1.146      1.263
REMARK  Name = 
REMARK  2 active torsions:
REMARK  status: ('A' for Active; 'I' for Inactive)
REMARK    1  A    between atoms: C_1  and  C_2
REMARK    2  A    between atoms: C_2  and  C_3
REMARK                            x       y       z     vdW  Elec       q    Type
REMARK                         _______ _______ _______ _____ _____    ______ ____
ROOT
ATOM      1  C   UNL     1       0.157  10.987  20.942  0.00  0.00    +0.000 C 
ATOM      2  O   UNL     1       0.005  11.124  22.154  0.00  0.00    +0.000 OA
ATOM      3  N   UNL     1       1.072  10.090  20.415  0.00  0.00    +0.000 N 
ATOM      4  C   UNL     1       1.780   9.168  21.305  0.00  0.00    +0.000 C 
ATOM      5  C   UNL     1       1.438   7.705  20.960  0.00  0.00    +0.000 C 
ATOM      6  N   UNL     1       1.635   7.426  19.523  0.00  0.00    +0.000 N 
ATOM      7  C   UNL     1       2.608   6.543  19.083  0.00  0.00    +0.000 C 
ATOM      8  N   UNL     1       3.529   6.884  18.234  0.00  0.00    +0.000 NA
ATOM      9  C   UNL     1       4.508   6.019  17.700  0.00  0.00    +0.000 A 
ATOM     10  C   UNL     1       4.880   6.291  16.375  0.00  0.00    +0.000 A 
ATOM     11  C   UNL     1       5.848   5.529  15.729  0.00  0.00    +0.000 A 
ATOM     12  F   UNL     1       6.148   5.788  14.451  0.00  0.00    +0.000 F 
ATOM     13  C   UNL     1       6.499   4.499  16.386  0.00  0.00    +0.000 A 
ATOM     14  C   UNL     1       6.175   4.229  17.712  0.00  0.00    +0.000 A 
ATOM     15  C   UNL     1       5.182   4.976  18.383  0.00  0.00    +0.000 A 
ATOM     16  N   UNL     1       4.795   4.515  19.672  0.00  0.00    +0.000 N 
ATOM     17  C   UNL     1       3.488   4.291  19.959  0.00  0.00    +0.000 A 
ATOM     18  C   UNL     1       3.043   3.134  20.555  0.00  0.00    +0.000 A 
ATOM     19  S   UNL     1       1.336   3.081  20.633  0.00  0.00    +0.000 S 
ATOM     20  C   UNL     1       1.210   4.628  19.921  0.00  0.00    +0.000 A 
ATOM     21  C   UNL     1       2.443   5.201  19.637  0.00  0.00    +0.000 A 
ATOM     22  C   UNL     1       1.033   8.400  18.600  0.00  0.00    +0.000 C 
ATOM     23  C   UNL     1       1.350   9.853  18.992  0.00  0.00    +0.000 C 
ATOM     24  H   UNL     1       5.478   3.865  20.047  0.00  0.00    +0.000 HD
ENDROOT
BRANCH   1  26
ATOM     25  C   UNL     1      -1.228  13.070  20.543  0.00  0.00    +0.000 C 
ATOM     26  C   UNL     1      -0.678  11.783  19.950  0.00  0.00    +0.000 C 
ENDBRANCH   1  26
TORSDOF 1
ENDMDL
MODEL 5
REMARK VINA RESULT:      -6.4      6.908      9.478
REMARK  Name = 
REMARK  2 active torsions:
REMARK  status: ('A' for Active; 'I' for Inactive)
REMARK    1  A    between atoms: C_1  and  C_2
REMARK    2  A    between atoms: C_2  and  C_3
REMARK                            x       y       z     vdW  Elec       q    Type
REMARK                         _______ _______ _______ _____ _____    ______ ____
ROOT
ATOM      1  C   UNL     1      -3.065  16.753  24.685  0.00  0.00    +0.000 C 
ATOM      2  O   UNL     1      -2.125  17.263  25.292  0.00  0.00    +0.000 OA
ATOM      3  N   UNL     1      -2.869  15.906  23.607  0.00  0.00    +0.000 N 
ATOM      4  C   UNL     1      -1.513  15.479  23.257  0.00  0.00    +0.000 C 
ATOM      5  C   UNL     1      -1.371  13.949  23.389  0.00  0.00    +0.000 C 
ATOM      6  N   UNL     1      -2.436  13.240  22.651  0.00  0.00    +0.000 N 
ATOM      7  C   UNL     1      -2.150  12.445  21.552  0.00  0.00    +0.000 C 
ATOM      8  N   UNL     1      -2.698  12.635  20.390  0.00  0.00    +0.000 NA
ATOM      9  C   UNL     1      -2.499  11.826  19.252  0.00  0.00    +0.000 A 
ATOM     10  C   UNL     1      -3.616  11.695  18.414  0.00  0.00    +0.000 A 
ATOM     11  C   UNL     1      -3.555  10.942  17.247  0.00  0.00    +0.000 A 
ATOM     12  F   UNL     1      -4.652  10.801  16.493  0.00  0.00    +0.000 F 
ATOM     13  C   UNL     1      -2.379  10.325  16.857  0.00  0.00    +0.000 A 
ATOM     14  C   UNL     1      -1.244  10.467  17.650  0.00  0.00    +0.000 A 
ATOM     15  C   UNL     1      -1.286  11.211  18.850  0.00  0.00    +0.000 A 
ATOM     16  N   UNL     1      -0.133  11.153  19.681  0.00  0.00    +0.000 N 
ATOM     17  C   UNL     1      -0.244  10.814  20.990  0.00  0.00    +0.000 A 
ATOM     18  C   UNL     1       0.557   9.867  21.586  0.00  0.00    +0.000 A 
ATOM     19  S   UNL     1       0.066   9.546  23.191  0.00  0.00    +0.000 S 
ATOM     20  C   UNL     1      -1.177  10.713  23.093  0.00  0.00    +0.000 A 
ATOM     21  C   UNL     1      -1.221  11.363  21.866  0.00  0.00    +0.000 A 
ATOM     22  C   UNL     1      -3.804  13.723  22.892  0.00  0.00    +0.000 C 
ATOM     23  C   UNL     1      -3.909  15.254  22.800  0.00  0.00    +0.000 C 
ATOM     24  H   UNL     1       0.668  10.798  19.168  0.00  0.00    +0.000 HD
ENDROOT
BRANCH   1  26
ATOM     25  C   UNL     1      -4.964  18.426  24.810  0.00  0.00    +0.000 C 
ATOM     26  C   UNL     1      -4.504  17.007  25.109  0.00  0.00    +0.000 C 
ENDBRANCH   1  26
TORSDOF 1
ENDMDL
MODEL 6
REMARK VINA RESULT:      -6.3      5.072      7.828
REMARK  Name = 
REMARK  2 active torsions:
REMARK  status: ('A' for Active; 'I' for Inactive)
REMARK    1  A    between atoms: C_1  and  C_2
REMARK    2  A    between atoms: C_2  and  C_3
REMARK                            x       y       z     vdW  Elec       q    Type
REMARK                         _______ _______ _______ _____ _____    ______ ____
ROOT
ATOM      1  C   UNL     1      -3.721  14.932  22.769  0.00  0.00    +0.000 C 
ATOM      2  O   UNL     1      -4.214  15.867  22.142  0.00  0.00    +0.000 OA
ATOM      3  N   UNL     1      -2.941  13.967  22.153  0.00  0.00    +0.000 N 
ATOM      4  C   UNL     1      -2.562  14.128  20.748  0.00  0.00    +0.000 C 
ATOM      5  C   UNL     1      -1.031  14.234  20.604  0.00  0.00    +0.000 C 
ATOM      6  N   UNL     1      -0.343  13.121  21.290  0.00  0.00    +0.000 N 
ATOM      7  C   UNL     1       0.382  12.173  20.585  0.00  0.00    +0.000 C 
ATOM      8  N   UNL     1       0.137  10.900  20.671  0.00  0.00    +0.000 NA
ATOM      9  C   UNL     1       0.875   9.882  20.031  0.00  0.00    +0.000 A 
ATOM     10  C   UNL     1       0.981   8.684  20.752  0.00  0.00    +0.000 A 
ATOM     11  C   UNL     1       1.664   7.590  20.232  0.00  0.00    +0.000 A 
ATOM     12  F   UNL     1       1.784   6.476  20.965  0.00  0.00    +0.000 F 
ATOM     13  C   UNL     1       2.234   7.638  18.971  0.00  0.00    +0.000 A 
ATOM     14  C   UNL     1       2.114   8.802  18.218  0.00  0.00    +0.000 A 
ATOM     15  C   UNL     1       1.441   9.934  18.732  0.00  0.00    +0.000 A 
ATOM     16  N   UNL     1       1.523  11.131  17.968  0.00  0.00    +0.000 N 
ATOM     17  C   UNL     1       1.939  12.286  18.543  0.00  0.00    +0.000 A 
ATOM     18  C   UNL     1       2.901  13.095  17.982  0.00  0.00    +0.000 A 
ATOM     19  S   UNL     1       3.324  14.385  19.020  0.00  0.00    +0.000 S 
ATOM     20  C   UNL     1       2.179  13.884  20.184  0.00  0.00    +0.000 A 
ATOM     21  C   UNL     1       1.460  12.761  19.796  0.00  0.00    +0.000 A 
ATOM     22  C   UNL     1      -0.784  12.857  22.668  0.00  0.00    +0.000 C 
ATOM     23  C   UNL     1      -2.316  12.802  22.793  0.00  0.00    +0.000 C 
ATOM     24  H   UNL     1       1.832  10.937  17.020  0.00  0.00    +0.000 HD
ENDROOT
BRANCH   1  26
ATOM     25  C   UNL     1      -3.904  16.142  24.987  0.00  0.00    +0.000 C 
ATOM     26  C   UNL     1      -3.921  14.801  24.272  0.00  0.00    +0.000 C 
ENDBRANCH   1  26
TORSDOF 1
ENDMDL
MODEL 7
REMARK VINA RESULT:      -6.3      6.366      9.203
REMARK  Name = 
REMARK  2 active torsions:
REMARK  status: ('A' for Active; 'I' for Inactive)
REMARK    1  A    between atoms: C_1  and  C_2
REMARK    2  A    between atoms: C_2  and  C_3
REMARK                            x       y       z     vdW  Elec       q    Type
REMARK                         _______ _______ _______ _____ _____    ______ ____
ROOT
ATOM      1  C   UNL     1      -1.274  15.636  24.628  0.00  0.00    +0.000 C 
ATOM      2  O   UNL     1      -0.164  16.076  24.920  0.00  0.00    +0.000 OA
ATOM      3  N   UNL     1      -1.520  15.012  23.416  0.00  0.00    +0.000 N 
ATOM      4  C   UNL     1      -0.407  14.729  22.507  0.00  0.00    +0.000 C 
ATOM      5  C   UNL     1      -0.257  13.210  22.284  0.00  0.00    +0.000 C 
ATOM      6  N   UNL     1      -1.536  12.592  21.881  0.00  0.00    +0.000 N 
ATOM      7  C   UNL     1      -1.705  12.028  20.627  0.00  0.00    +0.000 C 
ATOM      8  N   UNL     1      -2.650  12.398  19.815  0.00  0.00    +0.000 NA
ATOM      9  C   UNL     1      -2.914  11.822  18.554  0.00  0.00    +0.000 A 
ATOM     10  C   UNL     1      -4.268  11.787  18.191  0.00  0.00    +0.000 A 
ATOM     11  C   UNL     1      -4.670  11.265  16.966  0.00  0.00    +0.000 A 
ATOM     12  F   UNL     1      -5.974  11.206  16.669  0.00  0.00    +0.000 F 
ATOM     13  C   UNL     1      -3.743  10.793  16.053  0.00  0.00    +0.000 A 
ATOM     14  C   UNL     1      -2.389  10.848  16.372  0.00  0.00    +0.000 A 
ATOM     15  C   UNL     1      -1.957  11.356  17.617  0.00  0.00    +0.000 A 
ATOM     16  N   UNL     1      -0.576  11.209  17.926  0.00  0.00    +0.000 N 
ATOM     17  C   UNL     1      -0.190  10.631  19.090  0.00  0.00    +0.000 A 
ATOM     18  C   UNL     1       0.759   9.636  19.150  0.00  0.00    +0.000 A 
ATOM     19  S   UNL     1       0.907   9.000  20.730  0.00  0.00    +0.000 S 
ATOM     20  C   UNL     1      -0.255  10.098  21.329  0.00  0.00    +0.000 A 
ATOM     21  C   UNL     1      -0.749  10.958  20.357  0.00  0.00    +0.000 A 
ATOM     22  C   UNL     1      -2.700  12.949  22.706  0.00  0.00    +0.000 C 
ATOM     23  C   UNL     1      -2.801  14.464  22.953  0.00  0.00    +0.000 C 
ATOM     24  H   UNL     1      -0.038  10.997  17.092  0.00  0.00    +0.000 HD
ENDROOT
BRANCH   1  26
ATOM     25  C   UNL     1      -3.269  16.990  25.406  0.00  0.00    +0.000 C 
ATOM     26  C   UNL     1      -2.439  15.731  25.602  0.00  0.00    +0.000 C 
ENDBRANCH   1  26
TORSDOF 1
ENDMDL
MODEL 8
REMARK VINA RESULT:      -6.2      3.936      8.333
REMARK  Name = 
REMARK  2 active torsions:
REMARK  status: ('A' for Active; 'I' for Inactive)
REMARK    1  A    between atoms: C_1  and  C_2
REMARK    2  A    between atoms: C_2  and  C_3
REMARK                            x       y       z     vdW  Elec       q    Type
REMARK                         _______ _______ _______ _____ _____    ______ ____
ROOT
ATOM      1  C   UNL     1       3.839   5.894  19.019  0.00  0.00    +0.000 C 
ATOM      2  O   UNL     1       4.169   5.515  20.141  0.00  0.00    +0.000 OA
ATOM      3  N   UNL     1       2.697   6.648  18.806  0.00  0.00    +0.000 N 
ATOM      4  C   UNL     1       1.928   7.140  19.952  0.00  0.00    +0.000 C 
ATOM      5  C   UNL     1       1.908   8.682  19.974  0.00  0.00    +0.000 C 
ATOM      6  N   UNL     1       1.477   9.237  18.675  0.00  0.00    +0.000 N 
ATOM      7  C   UNL     1       0.292   9.945  18.548  0.00  0.00    +0.000 C 
ATOM      8  N   UNL     1      -0.637   9.606  17.705  0.00  0.00    +0.000 NA
ATOM      9  C   UNL     1      -1.836  10.317  17.482  0.00  0.00    +0.000 A 
ATOM     10  C   UNL     1      -2.306  10.286  16.162  0.00  0.00    +0.000 A 
ATOM     11  C   UNL     1      -3.487  10.928  15.804  0.00  0.00    +0.000 A 
ATOM     12  F   UNL     1      -3.885  10.915  14.526  0.00  0.00    +0.000 F 
ATOM     13  C   UNL     1      -4.252  11.591  16.748  0.00  0.00    +0.000 A 
ATOM     14  C   UNL     1      -3.828  11.608  18.073  0.00  0.00    +0.000 A 
ATOM     15  C   UNL     1      -2.622  10.980  18.458  0.00  0.00    +0.000 A 
ATOM     16  N   UNL     1      -2.181  11.202  19.792  0.00  0.00    +0.000 N 
ATOM     17  C   UNL     1      -0.925  11.653  20.035  0.00  0.00    +0.000 A 
ATOM     18  C   UNL     1      -0.662  12.708  20.878  0.00  0.00    +0.000 A 
ATOM     19  S   UNL     1       0.991  13.142  20.848  0.00  0.00    +0.000 S 
ATOM     20  C   UNL     1       1.349  11.881  19.753  0.00  0.00    +0.000 A 
ATOM     21  C   UNL     1       0.239  11.117  19.417  0.00  0.00    +0.000 A 
ATOM     22  C   UNL     1       2.149   8.679  17.492  0.00  0.00    +0.000 C 
ATOM     23  C   UNL     1       2.197   7.142  17.517  0.00  0.00    +0.000 C 
ATOM     24  H   UNL     1      -2.933  11.565  20.368  0.00  0.00    +0.000 HD
ENDROOT
BRANCH   1  26
ATOM     25  C   UNL     1       4.458   4.168  17.271  0.00  0.00    +0.000 C 
ATOM     26  C   UNL     1       4.691   5.575  17.799  0.00  0.00    +0.000 C 
ENDBRANCH   1  26
TORSDOF 1
ENDMDL
MODEL 9
REMARK VINA RESULT:      -6.2      6.589     11.391
REMARK  Name = 
REMARK  2 active torsions:
REMARK  status: ('A' for Active; 'I' for Inactive)
REMARK    1  A    between atoms: C_1  and  C_2
REMARK    2  A    between atoms: C_2  and  C_3
REMARK                            x       y       z     vdW  Elec       q    Type
REMARK                         _______ _______ _______ _____ _____    ______ ____
ROOT
ATOM      1  C   UNL     1       1.063   9.184  19.781  0.00  0.00    +0.000 C 
ATOM      2  O   UNL     1       1.759   8.553  20.574  0.00  0.00    +0.000 OA
ATOM      3  N   UNL     1      -0.117   9.798  20.170  0.00  0.00    +0.000 N 
ATOM      4  C   UNL     1      -0.486   9.832  21.587  0.00  0.00    +0.000 C 
ATOM      5  C   UNL     1      -0.563  11.285  22.096  0.00  0.00    +0.000 C 
ATOM      6  N   UNL     1      -1.421  12.119  21.231  0.00  0.00    +0.000 N 
ATOM      7  C   UNL     1      -2.611  12.658  21.693  0.00  0.00    +0.000 C 
ATOM      8  N   UNL     1      -3.750  12.444  21.107  0.00  0.00    +0.000 NA
ATOM      9  C   UNL     1      -4.984  13.012  21.489  0.00  0.00    +0.000 A 
ATOM     10  C   UNL     1      -5.862  13.290  20.431  0.00  0.00    +0.000 A 
ATOM     11  C   UNL     1      -7.120  13.833  20.665  0.00  0.00    +0.000 A 
ATOM     12  F   UNL     1      -7.916  14.126  19.629  0.00  0.00    +0.000 F 
ATOM     13  C   UNL     1      -7.559  14.086  21.953  0.00  0.00    +0.000 A 
ATOM     14  C   UNL     1      -6.723  13.787  23.024  0.00  0.00    +0.000 A 
ATOM     15  C   UNL     1      -5.433  13.253  22.812  0.00  0.00    +0.000 A 
ATOM     16  N   UNL     1      -4.587  13.148  23.951  0.00  0.00    +0.000 N 
ATOM     17  C   UNL     1      -3.342  13.685  23.934  0.00  0.00    +0.000 A 
ATOM     18  C   UNL     1      -2.860  14.484  24.945  0.00  0.00    +0.000 A 
ATOM     19  S   UNL     1      -1.330  15.138  24.558  0.00  0.00    +0.000 S 
ATOM     20  C   UNL     1      -1.299  14.303  23.069  0.00  0.00    +0.000 A 
ATOM     21  C   UNL     1      -2.424  13.516  22.860  0.00  0.00    +0.000 A 
ATOM     22  C   UNL     1      -1.153  12.020  19.788  0.00  0.00    +0.000 C 
ATOM     23  C   UNL     1      -1.034  10.561  19.313  0.00  0.00    +0.000 C 
ATOM     24  H   UNL     1      -5.122  13.223  24.810  0.00  0.00    +0.000 HD
ENDROOT
BRANCH   1  26
ATOM     25  C   UNL     1       2.473   8.290  17.877  0.00  0.00    +0.000 C 
ATOM     26  C   UNL     1       1.478   9.348  18.327  0.00  0.00    +0.000 C 
ENDBRANCH   1  26
TORSDOF 1
ENDMDL
