MODEL 1
REMARK VINA RESULT:      -9.2      0.000      0.000
REMARK  Name = 
REMARK  6 active torsions:
REMARK  status: ('A' for Active; 'I' for Inactive)
REMARK    1  A    between atoms: C_2  and  C_13
REMARK    2  A    between atoms: N_3  and  C_4
REMARK    3  A    between atoms: C_4  and  C_5
REMARK    4  A    between atoms: C_16  and  C_17
REMARK    5  A    between atoms: C_17  and  O_18
REMARK    6  A    between atoms: O_18  and  C_19
REMARK                            x       y       z     vdW  Elec       q    Type
REMARK                         _______ _______ _______ _____ _____    ______ ____
ROOT
ATOM      1  C   UNL     1       7.059   6.007  17.362  0.00  0.00    +0.000 A 
ATOM      2  C   UNL     1       7.734   5.899  18.557  0.00  0.00    +0.000 A 
ATOM      3  O   UNL     1       8.258   7.117  18.865  0.00  0.00    +0.000 OA
ATOM      4  C   UNL     1       7.880   7.918  17.819  0.00  0.00    +0.000 A 
ATOM      5  N   UNL     1       7.161   7.307  16.896  0.00  0.00    +0.000 NA
ENDROOT
BRANCH   1   7
ATOM      6  O   UNL     1       6.812   4.232  15.831  0.00  0.00    +0.000 OA
ATOM      7  C   UNL     1       6.318   4.945  16.702  0.00  0.00    +0.000 C 
ATOM      8  N   UNL     1       5.032   4.801  17.148  0.00  0.00    +0.000 N 
ATOM      9  H   UNL     1       4.669   5.420  17.872  0.00  0.00    +0.000 HD
BRANCH   8  10
ATOM     10  C   UNL     1       4.156   3.780  16.629  0.00  0.00    +0.000 C 
BRANCH  10  11
ATOM     11  C   UNL     1       3.367   3.146  17.732  0.00  0.00    +0.000 A 
ATOM     12  N   UNL     1       3.301   1.801  17.883  0.00  0.00    +0.000 NA
ATOM     13  N   UNL     1       2.536   1.614  18.986  0.00  0.00    +0.000 N 
ATOM     14  C   UNL     1       2.121   2.785  19.505  0.00  0.00    +0.000 A 
ATOM     15  C   UNL     1       2.624   3.784  18.733  0.00  0.00    +0.000 A 
ATOM     16  C   UNL     1       2.232   5.113  19.229  0.00  0.00    +0.000 C 
ATOM     17  C   UNL     1       1.349   4.762  20.486  0.00  0.00    +0.000 C 
ATOM     18  C   UNL     1       1.318   3.202  20.657  0.00  0.00    +0.000 C 
ATOM     19  H   UNL     1       2.362   0.666  19.304  0.00  0.00    +0.000 HD
ENDBRANCH  10  11
ENDBRANCH   8  10
ENDBRANCH   1   7
BRANCH   4  20
ATOM     20  C   UNL     1       8.233   9.357  17.930  0.00  0.00    +0.000 C 
BRANCH  20  21
ATOM     21  O   UNL     1       9.043   9.525  19.093  0.00  0.00    +0.000 OA
BRANCH  21  22
ATOM     22  C   UNL     1       9.700  10.722  19.209  0.00  0.00    +0.000 A 
ATOM     23  C   UNL     1      10.416  11.352  18.183  0.00  0.00    +0.000 A 
ATOM     24  C   UNL     1      11.042  12.583  18.404  0.00  0.00    +0.000 A 
ATOM     25  C   UNL     1      10.957  13.194  19.653  0.00  0.00    +0.000 A 
ATOM     26  C   UNL     1      10.251  12.569  20.674  0.00  0.00    +0.000 A 
ATOM     27  F   UNL     1      10.170  13.166  21.872  0.00  0.00    +0.000 F 
ATOM     28  C   UNL     1       9.629  11.344  20.459  0.00  0.00    +0.000 A 
ATOM     29  F   UNL     1       8.951  10.765  21.464  0.00  0.00    +0.000 F 
ENDBRANCH  21  22
ENDBRANCH  20  21
ENDBRANCH   4  20
TORSDOF 6
ENDMDL
MODEL 2
REMARK VINA RESULT:      -8.8      1.011      1.149
REMARK  Name = 
REMARK  6 active torsions:
REMARK  status: ('A' for Active; 'I' for Inactive)
REMARK    1  A    between atoms: C_2  and  C_13
REMARK    2  A    between atoms: N_3  and  C_4
REMARK    3  A    between atoms: C_4  and  C_5
REMARK    4  A    between atoms: C_16  and  C_17
REMARK    5  A    between atoms: C_17  and  O_18
REMARK    6  A    between atoms: O_18  and  C_19
REMARK                            x       y       z     vdW  Elec       q    Type
REMARK                         _______ _______ _______ _____ _____    ______ ____
ROOT
ATOM      1  C   UNL     1       6.582   6.060  17.309  0.00  0.00    +0.000 A 
ATOM      2  C   UNL     1       7.469   5.838  18.338  0.00  0.00    +0.000 A 
ATOM      3  O   UNL     1       8.138   6.996  18.587  0.00  0.00    +0.000 OA
ATOM      4  C   UNL     1       7.625   7.882  17.674  0.00  0.00    +0.000 A 
ATOM      5  N   UNL     1       6.691   7.376  16.889  0.00  0.00    +0.000 NA
ENDROOT
BRANCH   1   7
ATOM      6  O   UNL     1       5.131   5.214  15.657  0.00  0.00    +0.000 OA
ATOM      7  C   UNL     1       5.644   5.092  16.766  0.00  0.00    +0.000 C 
ATOM      8  N   UNL     1       5.398   4.029  17.593  0.00  0.00    +0.000 N 
ATOM      9  H   UNL     1       5.848   3.976  18.506  0.00  0.00    +0.000 HD
BRANCH   8  10
ATOM     10  C   UNL     1       4.516   2.955  17.209  0.00  0.00    +0.000 C 
BRANCH  10  11
ATOM     11  C   UNL     1       3.202   3.068  17.914  0.00  0.00    +0.000 A 
ATOM     12  N   UNL     1       2.046   3.296  17.243  0.00  0.00    +0.000 NA
ATOM     13  N   UNL     1       1.086   3.302  18.200  0.00  0.00    +0.000 N 
ATOM     14  C   UNL     1       1.607   3.103  19.425  0.00  0.00    +0.000 A 
ATOM     15  C   UNL     1       2.951   2.954  19.288  0.00  0.00    +0.000 A 
ATOM     16  C   UNL     1       3.613   2.719  20.580  0.00  0.00    +0.000 C 
ATOM     17  C   UNL     1       2.408   2.761  21.595  0.00  0.00    +0.000 C 
ATOM     18  C   UNL     1       1.081   2.993  20.788  0.00  0.00    +0.000 C 
ATOM     19  H   UNL     1       0.121   3.443  17.920  0.00  0.00    +0.000 HD
ENDBRANCH  10  11
ENDBRANCH   8  10
ENDBRANCH   1   7
BRANCH   4  20
ATOM     20  C   UNL     1       8.105   9.284  17.774  0.00  0.00    +0.000 C 
BRANCH  20  21
ATOM     21  O   UNL     1       8.751   9.441  19.037  0.00  0.00    +0.000 OA
BRANCH  21  22
ATOM     22  C   UNL     1       9.601  10.509  19.156  0.00  0.00    +0.000 A 
ATOM     23  C   UNL     1      10.453  10.978  18.148  0.00  0.00    +0.000 A 
ATOM     24  C   UNL     1      11.275  12.088  18.371  0.00  0.00    +0.000 A 
ATOM     25  C   UNL     1      11.252  12.738  19.603  0.00  0.00    +0.000 A 
ATOM     26  C   UNL     1      10.410  12.272  20.606  0.00  0.00    +0.000 A 
ATOM     27  F   UNL     1      10.390  12.905  21.788  0.00  0.00    +0.000 F 
ATOM     28  C   UNL     1       9.593  11.167  20.390  0.00  0.00    +0.000 A 
ATOM     29  F   UNL     1       8.788  10.740  21.377  0.00  0.00    +0.000 F 
ENDBRANCH  21  22
ENDBRANCH  20  21
ENDBRANCH   4  20
TORSDOF 6
ENDMDL
MODEL 3
REMARK VINA RESULT:      -8.4      1.263      1.578
REMARK  Name = 
REMARK  6 active torsions:
REMARK  status: ('A' for Active; 'I' for Inactive)
REMARK    1  A    between atoms: C_2  and  C_13
REMARK    2  A    between atoms: N_3  and  C_4
REMARK    3  A    between atoms: C_4  and  C_5
REMARK    4  A    between atoms: C_16  and  C_17
REMARK    5  A    between atoms: C_17  and  O_18
REMARK    6  A    between atoms: O_18  and  C_19
REMARK                            x       y       z     vdW  Elec       q    Type
REMARK                         _______ _______ _______ _____ _____    ______ ____
ROOT
ATOM      1  C   UNL     1       7.371   6.502  17.428  0.00  0.00    +0.000 A 
ATOM      2  C   UNL     1       8.059   6.471  18.620  0.00  0.00    +0.000 A 
ATOM      3  O   UNL     1       8.498   7.730  18.895  0.00  0.00    +0.000 OA
ATOM      4  C   UNL     1       8.057   8.477  17.833  0.00  0.00    +0.000 A 
ATOM      5  N   UNL     1       7.378   7.794  16.930  0.00  0.00    +0.000 NA
ENDROOT
BRANCH   1   7
ATOM      6  O   UNL     1       7.298   4.552  16.106  0.00  0.00    +0.000 OA
ATOM      7  C   UNL     1       6.703   5.374  16.800  0.00  0.00    +0.000 C 
ATOM      8  N   UNL     1       5.362   5.302  17.061  0.00  0.00    +0.000 N 
ATOM      9  H   UNL     1       4.915   6.011  17.641  0.00  0.00    +0.000 HD
BRANCH   8  10
ATOM     10  C   UNL     1       4.542   4.235  16.546  0.00  0.00    +0.000 C 
BRANCH  10  11
ATOM     11  C   UNL     1       3.819   3.537  17.655  0.00  0.00    +0.000 A 
ATOM     12  N   UNL     1       3.914   2.198  17.841  0.00  0.00    +0.000 NA
ATOM     13  N   UNL     1       3.161   1.948  18.940  0.00  0.00    +0.000 N 
ATOM     14  C   UNL     1       2.599   3.072  19.422  0.00  0.00    +0.000 A 
ATOM     15  C   UNL     1       2.989   4.105  18.631  0.00  0.00    +0.000 A 
ATOM     16  C   UNL     1       2.432   5.388  19.086  0.00  0.00    +0.000 C 
ATOM     17  C   UNL     1       1.579   4.964  20.342  0.00  0.00    +0.000 C 
ATOM     18  C   UNL     1       1.734   3.416  20.553  0.00  0.00    +0.000 C 
ATOM     19  H   UNL     1       3.098   0.993  19.280  0.00  0.00    +0.000 HD
ENDBRANCH  10  11
ENDBRANCH   8  10
ENDBRANCH   1   7
BRANCH   4  20
ATOM     20  C   UNL     1       8.308   9.940  17.907  0.00  0.00    +0.000 C 
BRANCH  20  21
ATOM     21  O   UNL     1       9.613  10.137  18.451  0.00  0.00    +0.000 OA
BRANCH  21  22
ATOM     22  C   UNL     1       9.758  11.190  19.315  0.00  0.00    +0.000 A 
ATOM     23  C   UNL     1       9.416  11.173  20.674  0.00  0.00    +0.000 A 
ATOM     24  C   UNL     1       9.617  12.304  21.472  0.00  0.00    +0.000 A 
ATOM     25  C   UNL     1      10.160  13.461  20.919  0.00  0.00    +0.000 A 
ATOM     26  C   UNL     1      10.495  13.483  19.570  0.00  0.00    +0.000 A 
ATOM     27  F   UNL     1      11.022  14.599  19.047  0.00  0.00    +0.000 F 
ATOM     28  C   UNL     1      10.295  12.362  18.772  0.00  0.00    +0.000 A 
ATOM     29  F   UNL     1      10.632  12.411  17.473  0.00  0.00    +0.000 F 
ENDBRANCH  21  22
ENDBRANCH  20  21
ENDBRANCH   4  20
TORSDOF 6
ENDMDL
MODEL 4
REMARK VINA RESULT:      -8.4      6.284      8.986
REMARK  Name = 
REMARK  6 active torsions:
REMARK  status: ('A' for Active; 'I' for Inactive)
REMARK    1  A    between atoms: C_2  and  C_13
REMARK    2  A    between atoms: N_3  and  C_4
REMARK    3  A    between atoms: C_4  and  C_5
REMARK    4  A    between atoms: C_16  and  C_17
REMARK    5  A    between atoms: C_17  and  O_18
REMARK    6  A    between atoms: O_18  and  C_19
REMARK                            x       y       z     vdW  Elec       q    Type
REMARK                         _______ _______ _______ _____ _____    ______ ____
ROOT
ATOM      1  C   UNL     1       1.959   7.535  19.410  0.00  0.00    +0.000 A 
ATOM      2  C   UNL     1       1.649   7.969  20.679  0.00  0.00    +0.000 A 
ATOM      3  O   UNL     1       1.114   9.217  20.589  0.00  0.00    +0.000 OA
ATOM      4  C   UNL     1       1.135   9.493  19.246  0.00  0.00    +0.000 A 
ATOM      5  N   UNL     1       1.627   8.522  18.497  0.00  0.00    +0.000 NA
ENDROOT
BRANCH   1   7
ATOM      6  O   UNL     1       2.207   5.641  18.030  0.00  0.00    +0.000 OA
ATOM      7  C   UNL     1       2.509   6.236  19.063  0.00  0.00    +0.000 C 
ATOM      8  N   UNL     1       3.401   5.744  19.977  0.00  0.00    +0.000 N 
ATOM      9  H   UNL     1       3.616   6.276  20.819  0.00  0.00    +0.000 HD
BRANCH   8  10
ATOM     10  C   UNL     1       4.070   4.481  19.785  0.00  0.00    +0.000 C 
BRANCH  10  11
ATOM     11  C   UNL     1       5.334   4.663  19.004  0.00  0.00    +0.000 A 
ATOM     12  N   UNL     1       6.488   5.061  19.593  0.00  0.00    +0.000 NA
ATOM     13  N   UNL     1       7.399   5.080  18.590  0.00  0.00    +0.000 N 
ATOM     14  C   UNL     1       6.848   4.726  17.414  0.00  0.00    +0.000 A 
ATOM     15  C   UNL     1       5.534   4.457  17.633  0.00  0.00    +0.000 A 
ATOM     16  C   UNL     1       4.843   4.048  16.401  0.00  0.00    +0.000 C 
ATOM     17  C   UNL     1       5.991   4.122  15.323  0.00  0.00    +0.000 C 
ATOM     18  C   UNL     1       7.321   4.552  16.038  0.00  0.00    +0.000 C 
ATOM     19  H   UNL     1       8.357   5.338  18.806  0.00  0.00    +0.000 HD
ENDBRANCH  10  11
ENDBRANCH   8  10
ENDBRANCH   1   7
BRANCH   4  20
ATOM     20  C   UNL     1       0.511  10.774  18.826  0.00  0.00    +0.000 C 
BRANCH  20  21
ATOM     21  O   UNL     1      -0.857  10.752  19.233  0.00  0.00    +0.000 OA
BRANCH  21  22
ATOM     22  C   UNL     1      -1.789  10.703  18.229  0.00  0.00    +0.000 A 
ATOM     23  C   UNL     1      -1.695   9.908  17.079  0.00  0.00    +0.000 A 
ATOM     24  C   UNL     1      -2.711   9.924  16.119  0.00  0.00    +0.000 A 
ATOM     25  C   UNL     1      -3.830  10.734  16.299  0.00  0.00    +0.000 A 
ATOM     26  C   UNL     1      -3.924  11.527  17.437  0.00  0.00    +0.000 A 
ATOM     27  F   UNL     1      -5.005  12.301  17.606  0.00  0.00    +0.000 F 
ATOM     28  C   UNL     1      -2.914  11.517  18.394  0.00  0.00    +0.000 A 
ATOM     29  F   UNL     1      -3.033  12.291  19.485  0.00  0.00    +0.000 F 
ENDBRANCH  21  22
ENDBRANCH  20  21
ENDBRANCH   4  20
TORSDOF 6
ENDMDL
MODEL 5
REMARK VINA RESULT:      -8.3      1.918      2.070
REMARK  Name = 
REMARK  6 active torsions:
REMARK  status: ('A' for Active; 'I' for Inactive)
REMARK    1  A    between atoms: C_2  and  C_13
REMARK    2  A    between atoms: N_3  and  C_4
REMARK    3  A    between atoms: C_4  and  C_5
REMARK    4  A    between atoms: C_16  and  C_17
REMARK    5  A    between atoms: C_17  and  O_18
REMARK    6  A    between atoms: O_18  and  C_19
REMARK                            x       y       z     vdW  Elec       q    Type
REMARK                         _______ _______ _______ _____ _____    ______ ____
ROOT
ATOM      1  C   UNL     1       7.259   6.404  17.800  0.00  0.00    +0.000 A 
ATOM      2  C   UNL     1       6.838   7.389  16.936  0.00  0.00    +0.000 A 
ATOM      3  O   UNL     1       7.438   8.558  17.292  0.00  0.00    +0.000 OA
ATOM      4  C   UNL     1       8.200   8.224  18.383  0.00  0.00    +0.000 A 
ATOM      5  N   UNL     1       8.132   6.951  18.726  0.00  0.00    +0.000 NA
ENDROOT
BRANCH   1   7
ATOM      6  O   UNL     1       7.718   4.093  17.766  0.00  0.00    +0.000 OA
ATOM      7  C   UNL     1       6.889   5.000  17.738  0.00  0.00    +0.000 C 
ATOM      8  N   UNL     1       5.541   4.780  17.662  0.00  0.00    +0.000 N 
ATOM      9  H   UNL     1       4.894   5.568  17.640  0.00  0.00    +0.000 HD
BRANCH   8  10
ATOM     10  C   UNL     1       4.987   3.450  17.623  0.00  0.00    +0.000 C 
BRANCH  10  11
ATOM     11  C   UNL     1       4.318   3.114  18.919  0.00  0.00    +0.000 A 
ATOM     12  N   UNL     1       4.946   2.400  19.885  0.00  0.00    +0.000 NA
ATOM     13  N   UNL     1       4.051   2.328  20.899  0.00  0.00    +0.000 N 
ATOM     14  C   UNL     1       2.900   2.954  20.589  0.00  0.00    +0.000 A 
ATOM     15  C   UNL     1       3.027   3.463  19.336  0.00  0.00    +0.000 A 
ATOM     16  C   UNL     1       1.816   4.180  18.908  0.00  0.00    +0.000 C 
ATOM     17  C   UNL     1       0.862   4.015  20.152  0.00  0.00    +0.000 C 
ATOM     18  C   UNL     1       1.627   3.214  21.266  0.00  0.00    +0.000 C 
ATOM     19  H   UNL     1       4.316   1.843  21.751  0.00  0.00    +0.000 HD
ENDBRANCH  10  11
ENDBRANCH   8  10
ENDBRANCH   1   7
BRANCH   4  20
ATOM     20  C   UNL     1       9.061   9.299  18.939  0.00  0.00    +0.000 C 
BRANCH  20  21
ATOM     21  O   UNL     1       9.121  10.357  17.983  0.00  0.00    +0.000 OA
BRANCH  21  22
ATOM     22  C   UNL     1       9.825  11.472  18.354  0.00  0.00    +0.000 A 
ATOM     23  C   UNL     1      10.965  11.473  19.168  0.00  0.00    +0.000 A 
ATOM     24  C   UNL     1      11.618  12.671  19.476  0.00  0.00    +0.000 A 
ATOM     25  C   UNL     1      11.136  13.878  18.975  0.00  0.00    +0.000 A 
ATOM     26  C   UNL     1      10.002  13.881  18.170  0.00  0.00    +0.000 A 
ATOM     27  F   UNL     1       9.547  15.046  17.688  0.00  0.00    +0.000 F 
ATOM     28  C   UNL     1       9.348  12.692  17.863  0.00  0.00    +0.000 A 
ATOM     29  F   UNL     1       8.257  12.725  17.081  0.00  0.00    +0.000 F 
ENDBRANCH  21  22
ENDBRANCH  20  21
ENDBRANCH   4  20
TORSDOF 6
ENDMDL
MODEL 6
REMARK VINA RESULT:      -8.2      1.956      2.185
REMARK  Name = 
REMARK  6 active torsions:
REMARK  status: ('A' for Active; 'I' for Inactive)
REMARK    1  A    between atoms: C_2  and  C_13
REMARK    2  A    between atoms: N_3  and  C_4
REMARK    3  A    between atoms: C_4  and  C_5
REMARK    4  A    between atoms: C_16  and  C_17
REMARK    5  A    between atoms: C_17  and  O_18
REMARK    6  A    between atoms: O_18  and  C_19
REMARK                            x       y       z     vdW  Elec       q    Type
REMARK                         _______ _______ _______ _____ _____    ______ ____
ROOT
ATOM      1  C   UNL     1       6.627   6.156  17.813  0.00  0.00    +0.000 A 
ATOM      2  C   UNL     1       6.284   7.085  16.857  0.00  0.00    +0.000 A 
ATOM      3  O   UNL     1       7.061   8.188  17.032  0.00  0.00    +0.000 OA
ATOM      4  C   UNL     1       7.846   7.877  18.112  0.00  0.00    +0.000 A 
ATOM      5  N   UNL     1       7.630   6.675  18.615  0.00  0.00    +0.000 NA
ENDROOT
BRANCH   1   7
ATOM      6  O   UNL     1       6.475   4.009  18.773  0.00  0.00    +0.000 OA
ATOM      7  C   UNL     1       6.065   4.822  17.948  0.00  0.00    +0.000 C 
ATOM      8  N   UNL     1       5.033   4.562  17.088  0.00  0.00    +0.000 N 
ATOM      9  H   UNL     1       4.731   5.271  16.420  0.00  0.00    +0.000 HD
BRANCH   8  10
ATOM     10  C   UNL     1       4.334   3.301  17.098  0.00  0.00    +0.000 C 
BRANCH  10  11
ATOM     11  C   UNL     1       3.064   3.403  17.883  0.00  0.00    +0.000 A 
ATOM     12  N   UNL     1       1.895   3.777  17.307  0.00  0.00    +0.000 NA
ATOM     13  N   UNL     1       0.984   3.722  18.309  0.00  0.00    +0.000 N 
ATOM     14  C   UNL     1       1.548   3.347  19.472  0.00  0.00    +0.000 A 
ATOM     15  C   UNL     1       2.872   3.140  19.245  0.00  0.00    +0.000 A 
ATOM     16  C   UNL     1       3.579   2.713  20.462  0.00  0.00    +0.000 C 
ATOM     17  C   UNL     1       2.429   2.702  21.540  0.00  0.00    +0.000 C 
ATOM     18  C   UNL     1       1.082   3.105  20.840  0.00  0.00    +0.000 C 
ATOM     19  H   UNL     1       0.016   3.950  18.101  0.00  0.00    +0.000 HD
ENDBRANCH  10  11
ENDBRANCH   8  10
ENDBRANCH   1   7
BRANCH   4  20
ATOM     20  C   UNL     1       8.883   8.874  18.483  0.00  0.00    +0.000 C 
BRANCH  20  21
ATOM     21  O   UNL     1       8.502  10.134  17.932  0.00  0.00    +0.000 OA
BRANCH  21  22
ATOM     22  C   UNL     1       9.220  11.223  18.351  0.00  0.00    +0.000 A 
ATOM     23  C   UNL     1      10.292  11.185  19.251  0.00  0.00    +0.000 A 
ATOM     24  C   UNL     1      10.967  12.358  19.604  0.00  0.00    +0.000 A 
ATOM     25  C   UNL     1      10.576  13.579  19.060  0.00  0.00    +0.000 A 
ATOM     26  C   UNL     1       9.509  13.621  18.170  0.00  0.00    +0.000 A 
ATOM     27  F   UNL     1       9.141  14.799  17.647  0.00  0.00    +0.000 F 
ATOM     28  C   UNL     1       8.833  12.457  17.818  0.00  0.00    +0.000 A 
ATOM     29  F   UNL     1       7.808  12.527  16.953  0.00  0.00    +0.000 F 
ENDBRANCH  21  22
ENDBRANCH  20  21
ENDBRANCH   4  20
TORSDOF 6
ENDMDL
MODEL 7
REMARK VINA RESULT:      -8.2      2.067      2.283
REMARK  Name = 
REMARK  6 active torsions:
REMARK  status: ('A' for Active; 'I' for Inactive)
REMARK    1  A    between atoms: C_2  and  C_13
REMARK    2  A    between atoms: N_3  and  C_4
REMARK    3  A    between atoms: C_4  and  C_5
REMARK    4  A    between atoms: C_16  and  C_17
REMARK    5  A    between atoms: C_17  and  O_18
REMARK    6  A    between atoms: O_18  and  C_19
REMARK                            x       y       z     vdW  Elec       q    Type
REMARK                         _______ _______ _______ _____ _____    ______ ____
ROOT
ATOM      1  C   UNL     1       7.463   6.663  17.911  0.00  0.00    +0.000 A 
ATOM      2  C   UNL     1       7.067   7.612  16.997  0.00  0.00    +0.000 A 
ATOM      3  O   UNL     1       7.649   8.797  17.327  0.00  0.00    +0.000 OA
ATOM      4  C   UNL     1       8.376   8.510  18.454  0.00  0.00    +0.000 A 
ATOM      5  N   UNL     1       8.302   7.250  18.844  0.00  0.00    +0.000 NA
ENDROOT
BRANCH   1   7
ATOM      6  O   UNL     1       7.888   4.372  17.560  0.00  0.00    +0.000 OA
ATOM      7  C   UNL     1       7.101   5.255  17.892  0.00  0.00    +0.000 C 
ATOM      8  N   UNL     1       5.816   5.003  18.289  0.00  0.00    +0.000 N 
ATOM      9  H   UNL     1       5.202   5.773  18.553  0.00  0.00    +0.000 HD
BRANCH   8  10
ATOM     10  C   UNL     1       5.291   3.663  18.362  0.00  0.00    +0.000 C 
BRANCH  10  11
ATOM     11  C   UNL     1       3.796   3.680  18.417  0.00  0.00    +0.000 A 
ATOM     12  N   UNL     1       3.044   4.061  17.355  0.00  0.00    +0.000 NA
ATOM     13  N   UNL     1       1.762   3.917  17.770  0.00  0.00    +0.000 N 
ATOM     14  C   UNL     1       1.699   3.480  19.042  0.00  0.00    +0.000 A 
ATOM     15  C   UNL     1       2.971   3.322  19.492  0.00  0.00    +0.000 A 
ATOM     16  C   UNL     1       3.008   2.834  20.879  0.00  0.00    +0.000 C 
ATOM     17  C   UNL     1       1.478   2.721  21.243  0.00  0.00    +0.000 C 
ATOM     18  C   UNL     1       0.633   3.136  19.986  0.00  0.00    +0.000 C 
ATOM     19  H   UNL     1       1.012   4.134  17.121  0.00  0.00    +0.000 HD
ENDBRANCH  10  11
ENDBRANCH   8  10
ENDBRANCH   1   7
BRANCH   4  20
ATOM     20  C   UNL     1       9.213   9.610  18.997  0.00  0.00    +0.000 C 
BRANCH  20  21
ATOM     21  O   UNL     1       9.252  10.656  18.026  0.00  0.00    +0.000 OA
BRANCH  21  22
ATOM     22  C   UNL     1      10.145  11.668  18.259  0.00  0.00    +0.000 A 
ATOM     23  C   UNL     1      11.363  11.530  18.937  0.00  0.00    +0.000 A 
ATOM     24  C   UNL     1      12.210  12.630  19.110  0.00  0.00    +0.000 A 
ATOM     25  C   UNL     1      11.846  13.877  18.608  0.00  0.00    +0.000 A 
ATOM     26  C   UNL     1      10.636  14.018  17.939  0.00  0.00    +0.000 A 
ATOM     27  F   UNL     1      10.294  15.221  17.454  0.00  0.00    +0.000 F 
ATOM     28  C   UNL     1       9.789  12.928  17.766  0.00  0.00    +0.000 A 
ATOM     29  F   UNL     1       8.628  13.093  17.113  0.00  0.00    +0.000 F 
ENDBRANCH  21  22
ENDBRANCH  20  21
ENDBRANCH   4  20
TORSDOF 6
ENDMDL
MODEL 8
REMARK VINA RESULT:      -8.2      6.941      9.926
REMARK  Name = 
REMARK  6 active torsions:
REMARK  status: ('A' for Active; 'I' for Inactive)
REMARK    1  A    between atoms: C_2  and  C_13
REMARK    2  A    between atoms: N_3  and  C_4
REMARK    3  A    between atoms: C_4  and  C_5
REMARK    4  A    between atoms: C_16  and  C_17
REMARK    5  A    between atoms: C_17  and  O_18
REMARK    6  A    between atoms: O_18  and  C_19
REMARK                            x       y       z     vdW  Elec       q    Type
REMARK                         _______ _______ _______ _____ _____    ______ ____
ROOT
ATOM      1  C   UNL     1       1.346   9.197  19.095  0.00  0.00    +0.000 A 
ATOM      2  C   UNL     1       1.727   9.576  17.828  0.00  0.00    +0.000 A 
ATOM      3  O   UNL     1       2.581   8.636  17.336  0.00  0.00    +0.000 OA
ATOM      4  C   UNL     1       2.689   7.720  18.351  0.00  0.00    +0.000 A 
ATOM      5  N   UNL     1       1.971   8.005  19.422  0.00  0.00    +0.000 NA
ENDROOT
BRANCH   1   7
ATOM      6  O   UNL     1       0.108   9.508  21.075  0.00  0.00    +0.000 OA
ATOM      7  C   UNL     1       0.406   9.902  19.950  0.00  0.00    +0.000 C 
ATOM      8  N   UNL     1      -0.101  11.047  19.398  0.00  0.00    +0.000 N 
ATOM      9  H   UNL     1       0.177  11.329  18.459  0.00  0.00    +0.000 HD
BRANCH   8  10
ATOM     10  C   UNL     1      -1.025  11.892  20.113  0.00  0.00    +0.000 C 
BRANCH  10  11
ATOM     11  C   UNL     1      -2.351  11.935  19.420  0.00  0.00    +0.000 A 
ATOM     12  N   UNL     1      -3.411  12.596  19.945  0.00  0.00    +0.000 NA
ATOM     13  N   UNL     1      -4.402  12.438  19.034  0.00  0.00    +0.000 N 
ATOM     14  C   UNL     1      -3.997  11.697  17.985  0.00  0.00    +0.000 A 
ATOM     15  C   UNL     1      -2.700  11.353  18.195  0.00  0.00    +0.000 A 
ATOM     16  C   UNL     1      -2.160  10.545  17.090  0.00  0.00    +0.000 C 
ATOM     17  C   UNL     1      -3.395  10.424  16.119  0.00  0.00    +0.000 C 
ATOM     18  C   UNL     1      -4.597  11.226  16.734  0.00  0.00    +0.000 C 
ATOM     19  H   UNL     1      -5.303  12.871  19.213  0.00  0.00    +0.000 HD
ENDBRANCH  10  11
ENDBRANCH   8  10
ENDBRANCH   1   7
BRANCH   4  20
ATOM     20  C   UNL     1       3.496   6.507  18.060  0.00  0.00    +0.000 C 
BRANCH  20  21
ATOM     21  O   UNL     1       3.531   5.707  19.241  0.00  0.00    +0.000 OA
BRANCH  21  22
ATOM     22  C   UNL     1       2.802   4.547  19.211  0.00  0.00    +0.000 A 
ATOM     23  C   UNL     1       2.621   3.736  18.083  0.00  0.00    +0.000 A 
ATOM     24  C   UNL     1       1.866   2.562  18.165  0.00  0.00    +0.000 A 
ATOM     25  C   UNL     1       1.283   2.189  19.374  0.00  0.00    +0.000 A 
ATOM     26  C   UNL     1       1.456   2.994  20.494  0.00  0.00    +0.000 A 
ATOM     27  F   UNL     1       0.896   2.627  21.655  0.00  0.00    +0.000 F 
ATOM     28  C   UNL     1       2.205   4.164  20.417  0.00  0.00    +0.000 A 
ATOM     29  F   UNL     1       2.358   4.921  21.516  0.00  0.00    +0.000 F 
ENDBRANCH  21  22
ENDBRANCH  20  21
ENDBRANCH   4  20
TORSDOF 6
ENDMDL
MODEL 9
REMARK VINA RESULT:      -8.0      1.554      1.728
REMARK  Name = 
REMARK  6 active torsions:
REMARK  status: ('A' for Active; 'I' for Inactive)
REMARK    1  A    between atoms: C_2  and  C_13
REMARK    2  A    between atoms: N_3  and  C_4
REMARK    3  A    between atoms: C_4  and  C_5
REMARK    4  A    between atoms: C_16  and  C_17
REMARK    5  A    between atoms: C_17  and  O_18
REMARK    6  A    between atoms: O_18  and  C_19
REMARK                            x       y       z     vdW  Elec       q    Type
REMARK                         _______ _______ _______ _____ _____    ______ ____
ROOT
ATOM      1  C   UNL     1       6.299   6.525  17.649  0.00  0.00    +0.000 A 
ATOM      2  C   UNL     1       7.132   6.009  18.616  0.00  0.00    +0.000 A 
ATOM      3  O   UNL     1       8.179   6.863  18.782  0.00  0.00    +0.000 OA
ATOM      4  C   UNL     1       7.934   7.870  17.884  0.00  0.00    +0.000 A 
ATOM      5  N   UNL     1       6.825   7.720  17.184  0.00  0.00    +0.000 NA
ENDROOT
BRANCH   1   7
ATOM      6  O   UNL     1       4.041   6.618  16.982  0.00  0.00    +0.000 OA
ATOM      7  C   UNL     1       5.044   5.943  17.205  0.00  0.00    +0.000 C 
ATOM      8  N   UNL     1       5.084   4.585  17.043  0.00  0.00    +0.000 N 
ATOM      9  H   UNL     1       5.941   4.071  17.244  0.00  0.00    +0.000 HD
BRANCH   8  10
ATOM     10  C   UNL     1       3.940   3.839  16.580  0.00  0.00    +0.000 C 
BRANCH  10  11
ATOM     11  C   UNL     1       3.299   3.094  17.709  0.00  0.00    +0.000 A 
ATOM     12  N   UNL     1       3.430   1.752  17.846  0.00  0.00    +0.000 NA
ATOM     13  N   UNL     1       2.750   1.452  18.979  0.00  0.00    +0.000 N 
ATOM     14  C   UNL     1       2.198   2.550  19.530  0.00  0.00    +0.000 A 
ATOM     15  C   UNL     1       2.520   3.615  18.750  0.00  0.00    +0.000 A 
ATOM     16  C   UNL     1       1.967   4.871  19.278  0.00  0.00    +0.000 C 
ATOM     17  C   UNL     1       1.201   4.392  20.570  0.00  0.00    +0.000 C 
ATOM     18  C   UNL     1       1.397   2.841  20.722  0.00  0.00    +0.000 C 
ATOM     19  H   UNL     1       2.726   0.487  19.292  0.00  0.00    +0.000 HD
ENDBRANCH  10  11
ENDBRANCH   8  10
ENDBRANCH   1   7
BRANCH   4  20
ATOM     20  C   UNL     1       8.877   9.018  17.907  0.00  0.00    +0.000 C 
BRANCH  20  21
ATOM     21  O   UNL     1       8.250  10.090  18.611  0.00  0.00    +0.000 OA
BRANCH  21  22
ATOM     22  C   UNL     1       9.079  11.075  19.081  0.00  0.00    +0.000 A 
ATOM     23  C   UNL     1       9.852  10.991  20.246  0.00  0.00    +0.000 A 
ATOM     24  C   UNL     1      10.677  12.053  20.631  0.00  0.00    +0.000 A 
ATOM     25  C   UNL     1      10.735  13.208  19.855  0.00  0.00    +0.000 A 
ATOM     26  C   UNL     1       9.965  13.297  18.701  0.00  0.00    +0.000 A 
ATOM     27  F   UNL     1      10.029  14.410  17.957  0.00  0.00    +0.000 F 
ATOM     28  C   UNL     1       9.141  12.244  18.315  0.00  0.00    +0.000 A 
ATOM     29  F   UNL     1       8.411  12.356  17.194  0.00  0.00    +0.000 F 
ENDBRANCH  21  22
ENDBRANCH  20  21
ENDBRANCH   4  20
TORSDOF 6
ENDMDL
