MODEL 1
REMARK VINA RESULT:      -8.0      0.000      0.000
REMARK  Name = 
REMARK  7 active torsions:
REMARK  status: ('A' for Active; 'I' for Inactive)
REMARK    1  A    between atoms: C_1  and  C_2
REMARK    2  A    between atoms: C_5  and  C_6
REMARK    3  A    between atoms: C_7  and  C_8
REMARK    4  A    between atoms: N_13  and  C_14
REMARK    5  A    between atoms: C_17  and  C_18
REMARK    6  A    between atoms: N_20  and  C_21
REMARK    7  A    between atoms: C_26  and  N_27
REMARK                            x       y       z     vdW  Elec       q    Type
REMARK                         _______ _______ _______ _____ _____    ______ ____
ROOT
ATOM      1  C   UNL     1       0.825   9.864  19.565  0.00  0.00    +0.000 A 
ATOM      2  C   UNL     1       1.133   8.762  20.384  0.00  0.00    +0.000 A 
ATOM      3  C   UNL     1       1.945   7.699  19.945  0.00  0.00    +0.000 A 
ATOM      4  C   UNL     1       2.474   7.726  18.658  0.00  0.00    +0.000 A 
ATOM      5  C   UNL     1       2.174   8.812  17.826  0.00  0.00    +0.000 A 
ATOM      6  C   UNL     1       1.367   9.859  18.276  0.00  0.00    +0.000 A 
ENDROOT
BRANCH   1  12
ATOM      7  C   UNL     1      -2.997  13.493  21.384  0.00  0.00    +0.000 C 
ATOM      8  O   UNL     1      -3.936  13.806  20.656  0.00  0.00    +0.000 OA
ATOM      9  N   UNL     1      -2.044  12.559  21.023  0.00  0.00    +0.000 N 
ATOM     10  C   UNL     1      -2.116  11.996  19.670  0.00  0.00    +0.000 C 
ATOM     11  C   UNL     1      -0.713  11.765  19.082  0.00  0.00    +0.000 C 
ATOM     12  N   UNL     1       0.067  10.928  20.005  0.00  0.00    +0.000 N 
ATOM     13  C   UNL     1       0.182  11.466  21.376  0.00  0.00    +0.000 C 
ATOM     14  C   UNL     1      -1.216  11.771  21.954  0.00  0.00    +0.000 C 
BRANCH   7  16
ATOM     15  C   UNL     1      -1.992  15.276  22.723  0.00  0.00    +0.000 C 
ATOM     16  C   UNL     1      -2.786  14.195  22.675  0.00  0.00    +0.000 C 
BRANCH  15  21
ATOM     17  C   UNL     1      -0.432  17.888  27.656  0.00  0.00    +0.000 C 
ATOM     18  C   UNL     1      -0.844  17.215  26.382  0.00  0.00    +0.000 A 
ATOM     19  C   UNL     1      -1.052  15.833  26.327  0.00  0.00    +0.000 A 
ATOM     20  C   UNL     1      -1.428  15.220  25.126  0.00  0.00    +0.000 A 
ATOM     21  C   UNL     1      -1.611  15.975  23.961  0.00  0.00    +0.000 A 
ATOM     22  C   UNL     1      -1.388  17.355  24.018  0.00  0.00    +0.000 A 
ATOM     23  C   UNL     1      -1.015  17.970  25.218  0.00  0.00    +0.000 A 
ENDBRANCH  15  21
ENDBRANCH   7  16
ENDBRANCH   1  12
BRANCH   4  24
ATOM     24  C   UNL     1       3.308   6.649  18.069  0.00  0.00    +0.000 C 
ATOM     25  O   UNL     1       2.813   5.523  18.064  0.00  0.00    +0.000 OA
ATOM     26  N   UNL     1       4.554   6.987  17.562  0.00  0.00    +0.000 N 
ATOM     27  H   UNL     1       4.940   7.887  17.780  0.00  0.00    +0.000 HD
BRANCH  26  28
ATOM     28  C   UNL     1       5.397   6.116  16.822  0.00  0.00    +0.000 A 
ATOM     29  C   UNL     1       5.221   5.939  15.442  0.00  0.00    +0.000 A 
ATOM     30  C   UNL     1       6.001   5.042  14.716  0.00  0.00    +0.000 A 
ATOM     31  C   UNL     1       6.975   4.300  15.364  0.00  0.00    +0.000 A 
ATOM     32  C   UNL     1       7.187   4.483  16.733  0.00  0.00    +0.000 A 
ATOM     33  C   UNL     1       6.451   5.428  17.469  0.00  0.00    +0.000 A 
BRANCH  33  34
ATOM     34  N   UNL     1       6.648   5.481  18.867  0.00  0.00    +0.000 N 
ATOM     35  H   UNL     1       7.250   4.731  19.202  0.00  0.00    +0.000 HD
ATOM     36  H   UNL     1       6.962   6.376  19.207  0.00  0.00    +0.000 HD
ENDBRANCH  33  34
ENDBRANCH  26  28
ENDBRANCH   4  24
TORSDOF 6
ENDMDL
MODEL 2
REMARK VINA RESULT:      -7.8      0.305      1.218
REMARK  Name = 
REMARK  7 active torsions:
REMARK  status: ('A' for Active; 'I' for Inactive)
REMARK    1  A    between atoms: C_1  and  C_2
REMARK    2  A    between atoms: C_5  and  C_6
REMARK    3  A    between atoms: C_7  and  C_8
REMARK    4  A    between atoms: N_13  and  C_14
REMARK    5  A    between atoms: C_17  and  C_18
REMARK    6  A    between atoms: N_20  and  C_21
REMARK    7  A    between atoms: C_26  and  N_27
REMARK                            x       y       z     vdW  Elec       q    Type
REMARK                         _______ _______ _______ _____ _____    ______ ____
ROOT
ATOM      1  C   UNL     1       0.801  10.067  19.559  0.00  0.00    +0.000 A 
ATOM      2  C   UNL     1       1.241  10.076  18.223  0.00  0.00    +0.000 A 
ATOM      3  C   UNL     1       2.015   9.036  17.676  0.00  0.00    +0.000 A 
ATOM      4  C   UNL     1       2.364   7.949  18.471  0.00  0.00    +0.000 A 
ATOM      5  C   UNL     1       1.940   7.924  19.806  0.00  0.00    +0.000 A 
ATOM      6  C   UNL     1       1.172   8.963  20.335  0.00  0.00    +0.000 A 
ENDROOT
BRANCH   1  12
ATOM      7  C   UNL     1      -3.093  13.352  21.823  0.00  0.00    +0.000 C 
ATOM      8  O   UNL     1      -4.135  13.574  21.211  0.00  0.00    +0.000 OA
ATOM      9  N   UNL     1      -2.108  12.504  21.350  0.00  0.00    +0.000 N 
ATOM     10  C   UNL     1      -2.287  11.927  20.014  0.00  0.00    +0.000 C 
ATOM     11  C   UNL     1      -0.947  11.818  19.265  0.00  0.00    +0.000 C 
ATOM     12  N   UNL     1       0.007  11.061  20.087  0.00  0.00    +0.000 N 
ATOM     13  C   UNL     1       0.233  11.619  21.437  0.00  0.00    +0.000 C 
ATOM     14  C   UNL     1      -1.110  11.801  22.176  0.00  0.00    +0.000 C 
BRANCH   7  16
ATOM     15  C   UNL     1      -2.080  15.216  23.043  0.00  0.00    +0.000 C 
ATOM     16  C   UNL     1      -2.796  14.081  23.083  0.00  0.00    +0.000 C 
BRANCH  15  21
ATOM     17  C   UNL     1      -0.329  18.250  27.659  0.00  0.00    +0.000 C 
ATOM     18  C   UNL     1      -0.773  17.463  26.464  0.00  0.00    +0.000 A 
ATOM     19  C   UNL     1      -0.997  18.083  25.231  0.00  0.00    +0.000 A 
ATOM     20  C   UNL     1      -1.420  17.333  24.127  0.00  0.00    +0.000 A 
ATOM     21  C   UNL     1      -1.621  15.951  24.231  0.00  0.00    +0.000 A 
ATOM     22  C   UNL     1      -1.409  15.338  25.471  0.00  0.00    +0.000 A 
ATOM     23  C   UNL     1      -0.983  16.085  26.574  0.00  0.00    +0.000 A 
ENDBRANCH  15  21
ENDBRANCH   7  16
ENDBRANCH   1  12
BRANCH   4  24
ATOM     24  C   UNL     1       3.208   6.813  18.022  0.00  0.00    +0.000 C 
ATOM     25  O   UNL     1       2.696   5.698  18.093  0.00  0.00    +0.000 OA
ATOM     26  N   UNL     1       4.482   7.090  17.548  0.00  0.00    +0.000 N 
ATOM     27  H   UNL     1       4.872   8.002  17.703  0.00  0.00    +0.000 HD
BRANCH  26  28
ATOM     28  C   UNL     1       5.345   6.146  16.930  0.00  0.00    +0.000 A 
ATOM     29  C   UNL     1       5.276   5.897  15.552  0.00  0.00    +0.000 A 
ATOM     30  C   UNL     1       6.074   4.930  14.944  0.00  0.00    +0.000 A 
ATOM     31  C   UNL     1       6.959   4.190  15.712  0.00  0.00    +0.000 A 
ATOM     32  C   UNL     1       7.064   4.443  17.082  0.00  0.00    +0.000 A 
ATOM     33  C   UNL     1       6.312   5.456  17.700  0.00  0.00    +0.000 A 
BRANCH  33  34
ATOM     34  N   UNL     1       6.395   5.583  19.105  0.00  0.00    +0.000 N 
ATOM     35  H   UNL     1       5.484   5.731  19.534  0.00  0.00    +0.000 HD
ATOM     36  H   UNL     1       6.892   4.833  19.559  0.00  0.00    +0.000 HD
ENDBRANCH  33  34
ENDBRANCH  26  28
ENDBRANCH   4  24
TORSDOF 6
ENDMDL
MODEL 3
REMARK VINA RESULT:      -7.7      2.852     12.564
REMARK  Name = 
REMARK  7 active torsions:
REMARK  status: ('A' for Active; 'I' for Inactive)
REMARK    1  A    between atoms: C_1  and  C_2
REMARK    2  A    between atoms: C_5  and  C_6
REMARK    3  A    between atoms: C_7  and  C_8
REMARK    4  A    between atoms: N_13  and  C_14
REMARK    5  A    between atoms: C_17  and  C_18
REMARK    6  A    between atoms: N_20  and  C_21
REMARK    7  A    between atoms: C_26  and  N_27
REMARK                            x       y       z     vdW  Elec       q    Type
REMARK                         _______ _______ _______ _____ _____    ______ ____
ROOT
ATOM      1  C   UNL     1       1.035   8.494  20.910  0.00  0.00    +0.000 A 
ATOM      2  C   UNL     1       0.747   8.582  22.285  0.00  0.00    +0.000 A 
ATOM      3  C   UNL     1       0.062   9.677  22.844  0.00  0.00    +0.000 A 
ATOM      4  C   UNL     1      -0.355  10.718  22.021  0.00  0.00    +0.000 A 
ATOM      5  C   UNL     1      -0.074  10.651  20.650  0.00  0.00    +0.000 A 
ATOM      6  C   UNL     1       0.606   9.558  20.110  0.00  0.00    +0.000 A 
ENDROOT
BRANCH   1  12
ATOM      7  C   UNL     1       2.652   3.727  18.513  0.00  0.00    +0.000 C 
ATOM      8  O   UNL     1       2.476   2.660  19.096  0.00  0.00    +0.000 OA
ATOM      9  N   UNL     1       2.226   4.941  19.019  0.00  0.00    +0.000 N 
ATOM     10  C   UNL     1       1.627   4.952  20.358  0.00  0.00    +0.000 C 
ATOM     11  C   UNL     1       2.021   6.217  21.141  0.00  0.00    +0.000 C 
ATOM     12  N   UNL     1       1.666   7.404  20.350  0.00  0.00    +0.000 N 
ATOM     13  C   UNL     1       2.264   7.445  18.999  0.00  0.00    +0.000 C 
ATOM     14  C   UNL     1       1.938   6.150  18.227  0.00  0.00    +0.000 C 
BRANCH   7  16
ATOM     15  C   UNL     1       4.687   4.253  17.261  0.00  0.00    +0.000 C 
ATOM     16  C   UNL     1       3.435   3.769  17.252  0.00  0.00    +0.000 C 
BRANCH  15  21
ATOM     17  C   UNL     1       8.051   5.089  12.617  0.00  0.00    +0.000 C 
ATOM     18  C   UNL     1       7.176   4.879  13.815  0.00  0.00    +0.000 A 
ATOM     19  C   UNL     1       7.526   5.396  15.066  0.00  0.00    +0.000 A 
ATOM     20  C   UNL     1       6.701   5.184  16.177  0.00  0.00    +0.000 A 
ATOM     21  C   UNL     1       5.508   4.459  16.058  0.00  0.00    +0.000 A 
ATOM     22  C   UNL     1       5.170   3.932  14.807  0.00  0.00    +0.000 A 
ATOM     23  C   UNL     1       5.991   4.146  13.695  0.00  0.00    +0.000 A 
ENDBRANCH  15  21
ENDBRANCH   7  16
ENDBRANCH   1  12
BRANCH   4  24
ATOM     24  C   UNL     1      -1.048  11.941  22.497  0.00  0.00    +0.000 C 
ATOM     25  O   UNL     1      -0.355  12.753  23.108  0.00  0.00    +0.000 OA
ATOM     26  N   UNL     1      -2.398  12.084  22.211  0.00  0.00    +0.000 N 
ATOM     27  H   UNL     1      -2.911  11.291  21.875  0.00  0.00    +0.000 HD
BRANCH  26  28
ATOM     28  C   UNL     1      -3.162  13.258  22.447  0.00  0.00    +0.000 A 
ATOM     29  C   UNL     1      -3.015  14.392  21.634  0.00  0.00    +0.000 A 
ATOM     30  C   UNL     1      -3.713  15.570  21.892  0.00  0.00    +0.000 A 
ATOM     31  C   UNL     1      -4.571  15.635  22.977  0.00  0.00    +0.000 A 
ATOM     32  C   UNL     1      -4.754  14.508  23.782  0.00  0.00    +0.000 A 
ATOM     33  C   UNL     1      -4.106  13.293  23.500  0.00  0.00    +0.000 A 
BRANCH  33  34
ATOM     34  N   UNL     1      -4.259  12.229  24.419  0.00  0.00    +0.000 N 
ATOM     35  H   UNL     1      -5.175  11.791  24.354  0.00  0.00    +0.000 HD
ATOM     36  H   UNL     1      -3.524  11.541  24.380  0.00  0.00    +0.000 HD
ENDBRANCH  33  34
ENDBRANCH  26  28
ENDBRANCH   4  24
TORSDOF 6
ENDMDL
MODEL 4
REMARK VINA RESULT:      -7.7      2.168     12.651
REMARK  Name = 
REMARK  7 active torsions:
REMARK  status: ('A' for Active; 'I' for Inactive)
REMARK    1  A    between atoms: C_1  and  C_2
REMARK    2  A    between atoms: C_5  and  C_6
REMARK    3  A    between atoms: C_7  and  C_8
REMARK    4  A    between atoms: N_13  and  C_14
REMARK    5  A    between atoms: C_17  and  C_18
REMARK    6  A    between atoms: N_20  and  C_21
REMARK    7  A    between atoms: C_26  and  N_27
REMARK                            x       y       z     vdW  Elec       q    Type
REMARK                         _______ _______ _______ _____ _____    ______ ____
ROOT
ATOM      1  C   UNL     1       1.280   8.704  20.541  0.00  0.00    +0.000 A 
ATOM      2  C   UNL     1       0.932   8.847  21.897  0.00  0.00    +0.000 A 
ATOM      3  C   UNL     1       0.294   9.999  22.394  0.00  0.00    +0.000 A 
ATOM      4  C   UNL     1      -0.013  11.043  21.526  0.00  0.00    +0.000 A 
ATOM      5  C   UNL     1       0.331  10.921  20.174  0.00  0.00    +0.000 A 
ATOM      6  C   UNL     1       0.963   9.772  19.695  0.00  0.00    +0.000 A 
ENDROOT
BRANCH   1  12
ATOM      7  C   UNL     1       2.696   3.734  18.448  0.00  0.00    +0.000 C 
ATOM      8  O   UNL     1       2.523   2.718  19.117  0.00  0.00    +0.000 OA
ATOM      9  N   UNL     1       2.318   4.993  18.878  0.00  0.00    +0.000 N 
ATOM     10  C   UNL     1       1.775   5.117  20.235  0.00  0.00    +0.000 C 
ATOM     11  C   UNL     1       2.228   6.427  20.903  0.00  0.00    +0.000 C 
ATOM     12  N   UNL     1       1.865   7.560  20.041  0.00  0.00    +0.000 N 
ATOM     13  C   UNL     1       2.406   7.486  18.667  0.00  0.00    +0.000 C 
ATOM     14  C   UNL     1       2.021   6.145  18.009  0.00  0.00    +0.000 C 
BRANCH   7  16
ATOM     15  C   UNL     1       4.630   4.246  17.040  0.00  0.00    +0.000 C 
ATOM     16  C   UNL     1       3.426   3.663  17.157  0.00  0.00    +0.000 C 
BRANCH  15  21
ATOM     17  C   UNL     1       7.740   4.682  12.169  0.00  0.00    +0.000 C 
ATOM     18  C   UNL     1       6.931   4.575  13.426  0.00  0.00    +0.000 A 
ATOM     19  C   UNL     1       7.342   5.201  14.606  0.00  0.00    +0.000 A 
ATOM     20  C   UNL     1       6.577   5.084  15.773  0.00  0.00    +0.000 A 
ATOM     21  C   UNL     1       5.386   4.348  15.782  0.00  0.00    +0.000 A 
ATOM     22  C   UNL     1       4.987   3.712  14.601  0.00  0.00    +0.000 A 
ATOM     23  C   UNL     1       5.747   3.831  13.433  0.00  0.00    +0.000 A 
ENDBRANCH  15  21
ENDBRANCH   7  16
ENDBRANCH   1  12
BRANCH   4  24
ATOM     24  C   UNL     1      -0.645  12.321  21.938  0.00  0.00    +0.000 C 
ATOM     25  O   UNL     1      -0.527  13.260  21.153  0.00  0.00    +0.000 OA
ATOM     26  N   UNL     1      -1.325  12.357  23.146  0.00  0.00    +0.000 N 
ATOM     27  H   UNL     1      -1.206  11.600  23.795  0.00  0.00    +0.000 HD
BRANCH  26  28
ATOM     28  C   UNL     1      -2.119  13.443  23.603  0.00  0.00    +0.000 A 
ATOM     29  C   UNL     1      -1.536  14.544  24.247  0.00  0.00    +0.000 A 
ATOM     30  C   UNL     1      -2.309  15.586  24.755  0.00  0.00    +0.000 A 
ATOM     31  C   UNL     1      -3.688  15.541  24.628  0.00  0.00    +0.000 A 
ATOM     32  C   UNL     1      -4.286  14.467  23.964  0.00  0.00    +0.000 A 
ATOM     33  C   UNL     1      -3.518  13.439  23.393  0.00  0.00    +0.000 A 
BRANCH  33  34
ATOM     34  N   UNL     1      -4.198  12.335  22.830  0.00  0.00    +0.000 N 
ATOM     35  H   UNL     1      -3.756  12.003  21.976  0.00  0.00    +0.000 HD
ATOM     36  H   UNL     1      -4.359  11.577  23.473  0.00  0.00    +0.000 HD
ENDBRANCH  33  34
ENDBRANCH  26  28
ENDBRANCH   4  24
TORSDOF 6
ENDMDL
MODEL 5
REMARK VINA RESULT:      -7.6      2.839     12.622
REMARK  Name = 
REMARK  7 active torsions:
REMARK  status: ('A' for Active; 'I' for Inactive)
REMARK    1  A    between atoms: C_1  and  C_2
REMARK    2  A    between atoms: C_5  and  C_6
REMARK    3  A    between atoms: C_7  and  C_8
REMARK    4  A    between atoms: N_13  and  C_14
REMARK    5  A    between atoms: C_17  and  C_18
REMARK    6  A    between atoms: N_20  and  C_21
REMARK    7  A    between atoms: C_26  and  N_27
REMARK                            x       y       z     vdW  Elec       q    Type
REMARK                         _______ _______ _______ _____ _____    ______ ____
ROOT
ATOM      1  C   UNL     1       1.176   8.308  20.465  0.00  0.00    +0.000 A 
ATOM      2  C   UNL     1       1.021   9.474  19.693  0.00  0.00    +0.000 A 
ATOM      3  C   UNL     1       0.343  10.611  20.171  0.00  0.00    +0.000 A 
ATOM      4  C   UNL     1      -0.197  10.599  21.453  0.00  0.00    +0.000 A 
ATOM      5  C   UNL     1      -0.058   9.446  22.235  0.00  0.00    +0.000 A 
ATOM      6  C   UNL     1       0.618   8.325  21.747  0.00  0.00    +0.000 A 
ENDROOT
BRANCH   1  12
ATOM      7  C   UNL     1       3.101   3.416  18.606  0.00  0.00    +0.000 C 
ATOM      8  O   UNL     1       3.031   2.421  19.323  0.00  0.00    +0.000 OA
ATOM      9  N   UNL     1       2.594   4.648  18.977  0.00  0.00    +0.000 N 
ATOM     10  C   UNL     1       2.037   4.781  20.328  0.00  0.00    +0.000 C 
ATOM     11  C   UNL     1       2.351   6.160  20.933  0.00  0.00    +0.000 C 
ATOM     12  N   UNL     1       1.876   7.208  20.018  0.00  0.00    +0.000 N 
ATOM     13  C   UNL     1       2.427   7.125  18.649  0.00  0.00    +0.000 C 
ATOM     14  C   UNL     1       2.183   5.722  18.055  0.00  0.00    +0.000 C 
BRANCH   7  16
ATOM     15  C   UNL     1       4.869   4.193  17.105  0.00  0.00    +0.000 C 
ATOM     16  C   UNL     1       3.839   3.360  17.319  0.00  0.00    +0.000 C 
BRANCH  15  21
ATOM     17  C   UNL     1       7.570   4.646  11.997  0.00  0.00    +0.000 C 
ATOM     18  C   UNL     1       6.877   4.522  13.320  0.00  0.00    +0.000 A 
ATOM     19  C   UNL     1       5.645   3.872  13.433  0.00  0.00    +0.000 A 
ATOM     20  C   UNL     1       5.007   3.773  14.676  0.00  0.00    +0.000 A 
ATOM     21  C   UNL     1       5.590   4.313  15.828  0.00  0.00    +0.000 A 
ATOM     22  C   UNL     1       6.817   4.975  15.707  0.00  0.00    +0.000 A 
ATOM     23  C   UNL     1       7.458   5.072  14.467  0.00  0.00    +0.000 A 
ENDBRANCH  15  21
ENDBRANCH   7  16
ENDBRANCH   1  12
BRANCH   4  24
ATOM     24  C   UNL     1      -0.966  11.718  22.052  0.00  0.00    +0.000 C 
ATOM     25  O   UNL     1      -0.503  12.202  23.083  0.00  0.00    +0.000 OA
ATOM     26  N   UNL     1      -2.121  12.138  21.409  0.00  0.00    +0.000 N 
ATOM     27  H   UNL     1      -2.513  11.564  20.686  0.00  0.00    +0.000 HD
BRANCH  26  28
ATOM     28  C   UNL     1      -2.874  13.292  21.756  0.00  0.00    +0.000 A 
ATOM     29  C   UNL     1      -2.803  14.460  20.983  0.00  0.00    +0.000 A 
ATOM     30  C   UNL     1      -3.488  15.618  21.347  0.00  0.00    +0.000 A 
ATOM     31  C   UNL     1      -4.258  15.626  22.498  0.00  0.00    +0.000 A 
ATOM     32  C   UNL     1      -4.366  14.464  23.266  0.00  0.00    +0.000 A 
ATOM     33  C   UNL     1      -3.731  13.270  22.882  0.00  0.00    +0.000 A 
BRANCH  33  34
ATOM     34  N   UNL     1      -3.800  12.167  23.763  0.00  0.00    +0.000 N 
ATOM     35  H   UNL     1      -2.915  11.669  23.827  0.00  0.00    +0.000 HD
ATOM     36  H   UNL     1      -4.159  12.391  24.677  0.00  0.00    +0.000 HD
ENDBRANCH  33  34
ENDBRANCH  26  28
ENDBRANCH   4  24
TORSDOF 6
ENDMDL
MODEL 6
REMARK VINA RESULT:      -7.6      2.548     12.595
REMARK  Name = 
REMARK  7 active torsions:
REMARK  status: ('A' for Active; 'I' for Inactive)
REMARK    1  A    between atoms: C_1  and  C_2
REMARK    2  A    between atoms: C_5  and  C_6
REMARK    3  A    between atoms: C_7  and  C_8
REMARK    4  A    between atoms: N_13  and  C_14
REMARK    5  A    between atoms: C_17  and  C_18
REMARK    6  A    between atoms: N_20  and  C_21
REMARK    7  A    between atoms: C_26  and  N_27
REMARK                            x       y       z     vdW  Elec       q    Type
REMARK                         _______ _______ _______ _____ _____    ______ ____
ROOT
ATOM      1  C   UNL     1       1.179   8.413  20.707  0.00  0.00    +0.000 A 
ATOM      2  C   UNL     1       0.635   8.469  22.004  0.00  0.00    +0.000 A 
ATOM      3  C   UNL     1      -0.039   9.604  22.491  0.00  0.00    +0.000 A 
ATOM      4  C   UNL     1      -0.184  10.720  21.673  0.00  0.00    +0.000 A 
ATOM      5  C   UNL     1       0.355  10.686  20.381  0.00  0.00    +0.000 A 
ATOM      6  C   UNL     1       1.021   9.552  19.911  0.00  0.00    +0.000 A 
ENDROOT
BRANCH   1  12
ATOM      7  C   UNL     1       2.755   3.527  18.532  0.00  0.00    +0.000 C 
ATOM      8  O   UNL     1       2.526   2.486  19.142  0.00  0.00    +0.000 OA
ATOM      9  N   UNL     1       2.344   4.769  18.982  0.00  0.00    +0.000 N 
ATOM     10  C   UNL     1       1.692   4.840  20.294  0.00  0.00    +0.000 C 
ATOM     11  C   UNL     1       2.090   6.119  21.051  0.00  0.00    +0.000 C 
ATOM     12  N   UNL     1       1.801   7.289  20.209  0.00  0.00    +0.000 N 
ATOM     13  C   UNL     1       2.453   7.269  18.883  0.00  0.00    +0.000 C 
ATOM     14  C   UNL     1       2.122   5.958  18.140  0.00  0.00    +0.000 C 
BRANCH   7  16
ATOM     15  C   UNL     1       4.692   4.268  17.235  0.00  0.00    +0.000 C 
ATOM     16  C   UNL     1       3.589   3.506  17.304  0.00  0.00    +0.000 C 
BRANCH  15  21
ATOM     17  C   UNL     1       7.828   4.860  12.397  0.00  0.00    +0.000 C 
ATOM     18  C   UNL     1       7.022   4.700  13.651  0.00  0.00    +0.000 A 
ATOM     19  C   UNL     1       5.785   4.050  13.637  0.00  0.00    +0.000 A 
ATOM     20  C   UNL     1       5.042   3.917  14.816  0.00  0.00    +0.000 A 
ATOM     21  C   UNL     1       5.522   4.423  16.030  0.00  0.00    +0.000 A 
ATOM     22  C   UNL     1       6.755   5.085  16.035  0.00  0.00    +0.000 A 
ATOM     23  C   UNL     1       7.501   5.216  14.859  0.00  0.00    +0.000 A 
ENDBRANCH  15  21
ENDBRANCH   7  16
ENDBRANCH   1  12
BRANCH   4  24
ATOM     24  C   UNL     1      -0.837  11.987  22.087  0.00  0.00    +0.000 C 
ATOM     25  O   UNL     1      -0.198  13.018  21.879  0.00  0.00    +0.000 OA
ATOM     26  N   UNL     1      -2.101  11.919  22.653  0.00  0.00    +0.000 N 
ATOM     27  H   UNL     1      -2.455  11.029  22.949  0.00  0.00    +0.000 HD
BRANCH  26  28
ATOM     28  C   UNL     1      -2.925  13.039  22.946  0.00  0.00    +0.000 A 
ATOM     29  C   UNL     1      -2.778  13.749  24.147  0.00  0.00    +0.000 A 
ATOM     30  C   UNL     1      -3.619  14.810  24.475  0.00  0.00    +0.000 A 
ATOM     31  C   UNL     1      -4.630  15.179  23.602  0.00  0.00    +0.000 A 
ATOM     32  C   UNL     1      -4.773  14.505  22.387  0.00  0.00    +0.000 A 
ATOM     33  C   UNL     1      -3.896  13.473  22.013  0.00  0.00    +0.000 A 
BRANCH  33  34
ATOM     34  N   UNL     1      -4.168  12.768  20.818  0.00  0.00    +0.000 N 
ATOM     35  H   UNL     1      -4.836  13.257  20.225  0.00  0.00    +0.000 HD
ATOM     36  H   UNL     1      -3.347  12.504  20.298  0.00  0.00    +0.000 HD
ENDBRANCH  33  34
ENDBRANCH  26  28
ENDBRANCH   4  24
TORSDOF 6
ENDMDL
MODEL 7
REMARK VINA RESULT:      -7.5      2.353     12.589
REMARK  Name = 
REMARK  7 active torsions:
REMARK  status: ('A' for Active; 'I' for Inactive)
REMARK    1  A    between atoms: C_1  and  C_2
REMARK    2  A    between atoms: C_5  and  C_6
REMARK    3  A    between atoms: C_7  and  C_8
REMARK    4  A    between atoms: N_13  and  C_14
REMARK    5  A    between atoms: C_17  and  C_18
REMARK    6  A    between atoms: N_20  and  C_21
REMARK    7  A    between atoms: C_26  and  N_27
REMARK                            x       y       z     vdW  Elec       q    Type
REMARK                         _______ _______ _______ _____ _____    ______ ____
ROOT
ATOM      1  C   UNL     1       0.996   8.575  20.556  0.00  0.00    +0.000 A 
ATOM      2  C   UNL     1       0.696   8.805  21.912  0.00  0.00    +0.000 A 
ATOM      3  C   UNL     1      -0.066   9.908  22.340  0.00  0.00    +0.000 A 
ATOM      4  C   UNL     1      -0.551  10.813  21.401  0.00  0.00    +0.000 A 
ATOM      5  C   UNL     1      -0.259  10.604  20.047  0.00  0.00    +0.000 A 
ATOM      6  C   UNL     1       0.498   9.505  19.637  0.00  0.00    +0.000 A 
ENDROOT
BRANCH   1  12
ATOM      7  C   UNL     1       2.952   3.686  18.725  0.00  0.00    +0.000 C 
ATOM      8  O   UNL     1       2.838   2.683  19.425  0.00  0.00    +0.000 OA
ATOM      9  N   UNL     1       2.441   4.919  19.088  0.00  0.00    +0.000 N 
ATOM     10  C   UNL     1       1.825   5.041  20.414  0.00  0.00    +0.000 C 
ATOM     11  C   UNL     1       2.125   6.409  21.050  0.00  0.00    +0.000 C 
ATOM     12  N   UNL     1       1.704   7.474  20.128  0.00  0.00    +0.000 N 
ATOM     13  C   UNL     1       2.316   7.402  18.785  0.00  0.00    +0.000 C 
ATOM     14  C   UNL     1       2.085   6.009  18.162  0.00  0.00    +0.000 C 
BRANCH   7  16
ATOM     15  C   UNL     1       4.840   4.406  17.347  0.00  0.00    +0.000 C 
ATOM     16  C   UNL     1       3.747   3.637  17.472  0.00  0.00    +0.000 C 
BRANCH  15  21
ATOM     17  C   UNL     1       7.818   4.890  12.398  0.00  0.00    +0.000 C 
ATOM     18  C   UNL     1       7.053   4.758  13.680  0.00  0.00    +0.000 A 
ATOM     19  C   UNL     1       5.819   4.102  13.723  0.00  0.00    +0.000 A 
ATOM     20  C   UNL     1       5.114   3.995  14.928  0.00  0.00    +0.000 A 
ATOM     21  C   UNL     1       5.631   4.534  16.113  0.00  0.00    +0.000 A 
ATOM     22  C   UNL     1       6.859   5.202  16.062  0.00  0.00    +0.000 A 
ATOM     23  C   UNL     1       7.566   5.307  14.859  0.00  0.00    +0.000 A 
ENDBRANCH  15  21
ENDBRANCH   7  16
ENDBRANCH   1  12
BRANCH   4  24
ATOM     24  C   UNL     1      -1.330  12.033  21.731  0.00  0.00    +0.000 C 
ATOM     25  O   UNL     1      -1.351  12.910  20.871  0.00  0.00    +0.000 OA
ATOM     26  N   UNL     1      -1.976  12.086  22.957  0.00  0.00    +0.000 N 
ATOM     27  H   UNL     1      -1.747  11.406  23.659  0.00  0.00    +0.000 HD
BRANCH  26  28
ATOM     28  C   UNL     1      -2.889  13.099  23.355  0.00  0.00    +0.000 A 
ATOM     29  C   UNL     1      -4.273  12.925  23.203  0.00  0.00    +0.000 A 
ATOM     30  C   UNL     1      -5.175  13.935  23.531  0.00  0.00    +0.000 A 
ATOM     31  C   UNL     1      -4.705  15.143  24.017  0.00  0.00    +0.000 A 
ATOM     32  C   UNL     1      -3.332  15.326  24.204  0.00  0.00    +0.000 A 
ATOM     33  C   UNL     1      -2.413  14.297  23.937  0.00  0.00    +0.000 A 
BRANCH  33  34
ATOM     34  N   UNL     1      -1.035  14.591  24.050  0.00  0.00    +0.000 N 
ATOM     35  H   UNL     1      -0.472  13.755  24.191  0.00  0.00    +0.000 HD
ATOM     36  H   UNL     1      -0.669  15.153  23.298  0.00  0.00    +0.000 HD
ENDBRANCH  33  34
ENDBRANCH  26  28
ENDBRANCH   4  24
TORSDOF 6
ENDMDL
MODEL 8
REMARK VINA RESULT:      -7.4      2.941     12.584
REMARK  Name = 
REMARK  7 active torsions:
REMARK  status: ('A' for Active; 'I' for Inactive)
REMARK    1  A    between atoms: C_1  and  C_2
REMARK    2  A    between atoms: C_5  and  C_6
REMARK    3  A    between atoms: C_7  and  C_8
REMARK    4  A    between atoms: N_13  and  C_14
REMARK    5  A    between atoms: C_17  and  C_18
REMARK    6  A    between atoms: N_20  and  C_21
REMARK    7  A    between atoms: C_26  and  N_27
REMARK                            x       y       z     vdW  Elec       q    Type
REMARK                         _______ _______ _______ _____ _____    ______ ____
ROOT
ATOM      1  C   UNL     1       1.088   8.300  20.544  0.00  0.00    +0.000 A 
ATOM      2  C   UNL     1       1.115   9.543  19.883  0.00  0.00    +0.000 A 
ATOM      3  C   UNL     1       0.442  10.676  20.378  0.00  0.00    +0.000 A 
ATOM      4  C   UNL     1      -0.278  10.582  21.565  0.00  0.00    +0.000 A 
ATOM      5  C   UNL     1      -0.321   9.353  22.235  0.00  0.00    +0.000 A 
ATOM      6  C   UNL     1       0.351   8.237  21.732  0.00  0.00    +0.000 A 
ENDROOT
BRANCH   1  12
ATOM      7  C   UNL     1       2.972   3.432  18.587  0.00  0.00    +0.000 C 
ATOM      8  O   UNL     1       2.845   2.413  19.261  0.00  0.00    +0.000 OA
ATOM      9  N   UNL     1       2.479   4.662  18.982  0.00  0.00    +0.000 N 
ATOM     10  C   UNL     1       1.866   4.759  20.311  0.00  0.00    +0.000 C 
ATOM     11  C   UNL     1       2.187   6.107  20.981  0.00  0.00    +0.000 C 
ATOM     12  N   UNL     1       1.780   7.200  20.087  0.00  0.00    +0.000 N 
ATOM     13  C   UNL     1       2.389   7.153  18.741  0.00  0.00    +0.000 C 
ATOM     14  C   UNL     1       2.138   5.780  18.084  0.00  0.00    +0.000 C 
BRANCH   7  16
ATOM     15  C   UNL     1       4.813   4.230  17.188  0.00  0.00    +0.000 C 
ATOM     16  C   UNL     1       3.765   3.403  17.332  0.00  0.00    +0.000 C 
BRANCH  15  21
ATOM     17  C   UNL     1       7.742   4.794  12.219  0.00  0.00    +0.000 C 
ATOM     18  C   UNL     1       6.990   4.641  13.506  0.00  0.00    +0.000 A 
ATOM     19  C   UNL     1       5.757   3.983  13.550  0.00  0.00    +0.000 A 
ATOM     20  C   UNL     1       5.064   3.857  14.760  0.00  0.00    +0.000 A 
ATOM     21  C   UNL     1       5.591   4.378  15.948  0.00  0.00    +0.000 A 
ATOM     22  C   UNL     1       6.818   5.048  15.896  0.00  0.00    +0.000 A 
ATOM     23  C   UNL     1       7.514   5.172  14.688  0.00  0.00    +0.000 A 
ENDBRANCH  15  21
ENDBRANCH   7  16
ENDBRANCH   1  12
BRANCH   4  24
ATOM     24  C   UNL     1      -1.059  11.693  22.165  0.00  0.00    +0.000 C 
ATOM     25  O   UNL     1      -0.616  12.162  23.211  0.00  0.00    +0.000 OA
ATOM     26  N   UNL     1      -2.201  12.122  21.505  0.00  0.00    +0.000 N 
ATOM     27  H   UNL     1      -2.578  11.558  20.766  0.00  0.00    +0.000 HD
BRANCH  26  28
ATOM     28  C   UNL     1      -2.961  13.271  21.853  0.00  0.00    +0.000 A 
ATOM     29  C   UNL     1      -3.850  13.248  22.937  0.00  0.00    +0.000 A 
ATOM     30  C   UNL     1      -4.647  14.347  23.252  0.00  0.00    +0.000 A 
ATOM     31  C   UNL     1      -4.567  15.494  22.479  0.00  0.00    +0.000 A 
ATOM     32  C   UNL     1      -3.666  15.548  21.413  0.00  0.00    +0.000 A 
ATOM     33  C   UNL     1      -2.812  14.472  21.120  0.00  0.00    +0.000 A 
BRANCH  33  34
ATOM     34  N   UNL     1      -2.003  14.560  19.963  0.00  0.00    +0.000 N 
ATOM     35  H   UNL     1      -1.918  15.516  19.624  0.00  0.00    +0.000 HD
ATOM     36  H   UNL     1      -1.099  14.126  20.057  0.00  0.00    +0.000 HD
ENDBRANCH  33  34
ENDBRANCH  26  28
ENDBRANCH   4  24
TORSDOF 6
ENDMDL
MODEL 9
REMARK VINA RESULT:      -7.4      2.238     12.674
REMARK  Name = 
REMARK  7 active torsions:
REMARK  status: ('A' for Active; 'I' for Inactive)
REMARK    1  A    between atoms: C_1  and  C_2
REMARK    2  A    between atoms: C_5  and  C_6
REMARK    3  A    between atoms: C_7  and  C_8
REMARK    4  A    between atoms: N_13  and  C_14
REMARK    5  A    between atoms: C_17  and  C_18
REMARK    6  A    between atoms: N_20  and  C_21
REMARK    7  A    between atoms: C_26  and  N_27
REMARK                            x       y       z     vdW  Elec       q    Type
REMARK                         _______ _______ _______ _____ _____    ______ ____
ROOT
ATOM      1  C   UNL     1       1.269   8.352  20.063  0.00  0.00    +0.000 A 
ATOM      2  C   UNL     1       0.901   9.347  19.139  0.00  0.00    +0.000 A 
ATOM      3  C   UNL     1       0.172  10.492  19.512  0.00  0.00    +0.000 A 
ATOM      4  C   UNL     1      -0.204  10.662  20.841  0.00  0.00    +0.000 A 
ATOM      5  C   UNL     1       0.148   9.680  21.775  0.00  0.00    +0.000 A 
ATOM      6  C   UNL     1       0.872   8.550  21.390  0.00  0.00    +0.000 A 
ENDROOT
BRANCH   1  12
ATOM      7  C   UNL     1       3.419   3.413  18.624  0.00  0.00    +0.000 C 
ATOM      8  O   UNL     1       3.391   2.479  19.422  0.00  0.00    +0.000 OA
ATOM      9  N   UNL     1       2.856   4.648  18.890  0.00  0.00    +0.000 N 
ATOM     10  C   UNL     1       2.288   4.868  20.224  0.00  0.00    +0.000 C 
ATOM     11  C   UNL     1       2.537   6.306  20.711  0.00  0.00    +0.000 C 
ATOM     12  N   UNL     1       2.020   7.251  19.711  0.00  0.00    +0.000 N 
ATOM     13  C   UNL     1       2.580   7.079  18.355  0.00  0.00    +0.000 C 
ATOM     14  C   UNL     1       2.403   5.621  17.880  0.00  0.00    +0.000 C 
BRANCH   7  16
ATOM     15  C   UNL     1       4.965   4.280  16.938  0.00  0.00    +0.000 C 
ATOM     16  C   UNL     1       4.166   3.283  17.347  0.00  0.00    +0.000 C 
BRANCH  15  21
ATOM     17  C   UNL     1       7.529   4.390  11.741  0.00  0.00    +0.000 C 
ATOM     18  C   UNL     1       6.871   4.355  13.087  0.00  0.00    +0.000 A 
ATOM     19  C   UNL     1       5.649   3.704  13.279  0.00  0.00    +0.000 A 
ATOM     20  C   UNL     1       5.045   3.688  14.542  0.00  0.00    +0.000 A 
ATOM     21  C   UNL     1       5.652   4.315  15.637  0.00  0.00    +0.000 A 
ATOM     22  C   UNL     1       6.868   4.977  15.436  0.00  0.00    +0.000 A 
ATOM     23  C   UNL     1       7.475   4.991  14.176  0.00  0.00    +0.000 A 
ENDBRANCH  15  21
ENDBRANCH   7  16
ENDBRANCH   1  12
BRANCH   4  24
ATOM     24  C   UNL     1      -1.007  11.803  21.348  0.00  0.00    +0.000 C 
ATOM     25  O   UNL     1      -1.460  12.567  20.498  0.00  0.00    +0.000 OA
ATOM     26  N   UNL     1      -1.196  11.914  22.718  0.00  0.00    +0.000 N 
ATOM     27  H   UNL     1      -0.636  11.355  23.334  0.00  0.00    +0.000 HD
BRANCH  26  28
ATOM     28  C   UNL     1      -2.068  12.842  23.348  0.00  0.00    +0.000 A 
ATOM     29  C   UNL     1      -3.357  12.465  23.751  0.00  0.00    +0.000 A 
ATOM     30  C   UNL     1      -4.243  13.380  24.313  0.00  0.00    +0.000 A 
ATOM     31  C   UNL     1      -3.852  14.699  24.481  0.00  0.00    +0.000 A 
ATOM     32  C   UNL     1      -2.562  15.089  24.115  0.00  0.00    +0.000 A 
ATOM     33  C   UNL     1      -1.635  14.165  23.603  0.00  0.00    +0.000 A 
BRANCH  33  34
ATOM     34  N   UNL     1      -0.386  14.655  23.157  0.00  0.00    +0.000 N 
ATOM     35  H   UNL     1       0.072  14.014  22.512  0.00  0.00    +0.000 HD
ATOM     36  H   UNL     1      -0.418  15.588  22.779  0.00  0.00    +0.000 HD
ENDBRANCH  33  34
ENDBRANCH  26  28
ENDBRANCH   4  24
TORSDOF 6
ENDMDL
