MODEL 1
REMARK VINA RESULT:      -8.3      0.000      0.000
REMARK  Name = 
REMARK  5 active torsions:
REMARK  status: ('A' for Active; 'I' for Inactive)
REMARK    1  A    between atoms: C_1  and  O_2
REMARK    2  A    between atoms: O_2  and  C_3
REMARK    3  A    between atoms: C_7  and  N_8
REMARK    4  A    between atoms: N_8  and  C_9
REMARK    5  A    between atoms: C_11  and  C_12
REMARK                            x       y       z     vdW  Elec       q    Type
REMARK                         _______ _______ _______ _____ _____    ______ ____
ROOT
ATOM      1  C   UNL     1       3.171   5.868  18.740  0.00  0.00    +0.000 A 
ATOM      2  N   UNL     1       4.502   6.030  18.836  0.00  0.00    +0.000 NA
ATOM      3  C   UNL     1       5.231   4.931  18.695  0.00  0.00    +0.000 A 
ATOM      4  N   UNL     1       4.852   3.767  19.199  0.00  0.00    +0.000 NA
ATOM      5  C   UNL     1       3.554   3.545  19.140  0.00  0.00    +0.000 A 
ATOM      6  C   UNL     1       3.267   2.188  19.159  0.00  0.00    +0.000 A 
ATOM      7  C   UNL     1       1.982   1.713  19.007  0.00  0.00    +0.000 A 
ATOM      8  C   UNL     1       0.950   2.642  18.921  0.00  0.00    +0.000 A 
ATOM      9  C   UNL     1       1.225   4.037  18.878  0.00  0.00    +0.000 A 
ATOM     10  C   UNL     1       2.578   4.552  18.907  0.00  0.00    +0.000 A 
ENDROOT
BRANCH   3  11
ATOM     11  C   UNL     1       5.677   4.791  17.283  0.00  0.00    +0.000 A 
ATOM     12  C   UNL     1       5.186   3.904  16.337  0.00  0.00    +0.000 A 
ATOM     13  C   UNL     1       5.961   3.870  15.153  0.00  0.00    +0.000 A 
ATOM     14  C   UNL     1       7.029   4.731  15.223  0.00  0.00    +0.000 A 
ATOM     15  S   UNL     1       7.085   5.585  16.698  0.00  0.00    +0.000 S 
ENDBRANCH   3  11
BRANCH   1  16
ATOM     16  N   UNL     1       2.532   7.023  18.165  0.00  0.00    +0.000 N 
ATOM     17  H   UNL     1       1.817   6.685  17.533  0.00  0.00    +0.000 HD
BRANCH  16  22
ATOM     18  C   UNL     1       1.124   8.937  21.193  0.00  0.00    +0.000 A 
ATOM     19  C   UNL     1       0.713  10.109  20.571  0.00  0.00    +0.000 A 
ATOM     20  C   UNL     1       0.912  10.297  19.200  0.00  0.00    +0.000 A 
ATOM     21  C   UNL     1       1.501   9.277  18.445  0.00  0.00    +0.000 A 
ATOM     22  C   UNL     1       1.932   8.065  19.022  0.00  0.00    +0.000 A 
ATOM     23  C   UNL     1       1.740   7.911  20.425  0.00  0.00    +0.000 A 
BRANCH  18  25
ATOM     24  C   UNL     1      -0.234   9.717  23.045  0.00  0.00    +0.000 C 
ATOM     25  O   UNL     1       0.849   8.962  22.534  0.00  0.00    +0.000 OA
ENDBRANCH  18  25
ENDBRANCH  16  22
ENDBRANCH   1  16
TORSDOF 4
ENDMDL
MODEL 2
REMARK VINA RESULT:      -8.2      0.985      1.549
REMARK  Name = 
REMARK  5 active torsions:
REMARK  status: ('A' for Active; 'I' for Inactive)
REMARK    1  A    between atoms: C_1  and  O_2
REMARK    2  A    between atoms: O_2  and  C_3
REMARK    3  A    between atoms: C_7  and  N_8
REMARK    4  A    between atoms: N_8  and  C_9
REMARK    5  A    between atoms: C_11  and  C_12
REMARK                            x       y       z     vdW  Elec       q    Type
REMARK                         _______ _______ _______ _____ _____    ______ ____
ROOT
ATOM      1  C   UNL     1       3.391   5.848  18.752  0.00  0.00    +0.000 A 
ATOM      2  N   UNL     1       4.730   5.946  18.812  0.00  0.00    +0.000 NA
ATOM      3  C   UNL     1       5.403   4.822  18.608  0.00  0.00    +0.000 A 
ATOM      4  N   UNL     1       4.985   3.657  19.079  0.00  0.00    +0.000 NA
ATOM      5  C   UNL     1       3.678   3.496  19.053  0.00  0.00    +0.000 A 
ATOM      6  C   UNL     1       3.329   2.154  19.031  0.00  0.00    +0.000 A 
ATOM      7  C   UNL     1       2.020   1.744  18.902  0.00  0.00    +0.000 A 
ATOM      8  C   UNL     1       1.030   2.720  18.883  0.00  0.00    +0.000 A 
ATOM      9  C   UNL     1       1.367   4.102  18.882  0.00  0.00    +0.000 A 
ATOM     10  C   UNL     1       2.743   4.555  18.888  0.00  0.00    +0.000 A 
ENDROOT
BRANCH   3  11
ATOM     11  C   UNL     1       5.800   4.716  17.178  0.00  0.00    +0.000 A 
ATOM     12  C   UNL     1       5.343   3.792  16.251  0.00  0.00    +0.000 A 
ATOM     13  C   UNL     1       6.069   3.818  15.036  0.00  0.00    +0.000 A 
ATOM     14  C   UNL     1       7.066   4.763  15.063  0.00  0.00    +0.000 A 
ATOM     15  S   UNL     1       7.114   5.620  16.537  0.00  0.00    +0.000 S 
ENDBRANCH   3  11
BRANCH   1  16
ATOM     16  N   UNL     1       2.788   7.052  18.240  0.00  0.00    +0.000 N 
ATOM     17  H   UNL     1       2.194   6.783  17.466  0.00  0.00    +0.000 HD
BRANCH  16  22
ATOM     18  C   UNL     1       0.753  10.026  19.591  0.00  0.00    +0.000 A 
ATOM     19  C   UNL     1       0.596   9.633  20.914  0.00  0.00    +0.000 A 
ATOM     20  C   UNL     1       1.111   8.414  21.362  0.00  0.00    +0.000 A 
ATOM     21  C   UNL     1       1.821   7.600  20.473  0.00  0.00    +0.000 A 
ATOM     22  C   UNL     1       2.016   7.950  19.122  0.00  0.00    +0.000 A 
ATOM     23  C   UNL     1       1.458   9.186  18.686  0.00  0.00    +0.000 A 
BRANCH  18  25
ATOM     24  C   UNL     1      -1.241  11.396  19.413  0.00  0.00    +0.000 C 
ATOM     25  O   UNL     1       0.165  11.241  19.359  0.00  0.00    +0.000 OA
ENDBRANCH  18  25
ENDBRANCH  16  22
ENDBRANCH   1  16
TORSDOF 4
ENDMDL
MODEL 3
REMARK VINA RESULT:      -7.6      0.990      1.015
REMARK  Name = 
REMARK  5 active torsions:
REMARK  status: ('A' for Active; 'I' for Inactive)
REMARK    1  A    between atoms: C_1  and  O_2
REMARK    2  A    between atoms: O_2  and  C_3
REMARK    3  A    between atoms: C_7  and  N_8
REMARK    4  A    between atoms: N_8  and  C_9
REMARK    5  A    between atoms: C_11  and  C_12
REMARK                            x       y       z     vdW  Elec       q    Type
REMARK                         _______ _______ _______ _____ _____    ______ ____
ROOT
ATOM      1  C   UNL     1       2.851   6.409  18.948  0.00  0.00    +0.000 A 
ATOM      2  N   UNL     1       4.157   6.645  18.728  0.00  0.00    +0.000 NA
ATOM      3  C   UNL     1       4.936   5.574  18.668  0.00  0.00    +0.000 A 
ATOM      4  N   UNL     1       4.763   4.533  19.468  0.00  0.00    +0.000 NA
ATOM      5  C   UNL     1       3.503   4.249  19.728  0.00  0.00    +0.000 A 
ATOM      6  C   UNL     1       3.343   2.918  20.086  0.00  0.00    +0.000 A 
ATOM      7  C   UNL     1       2.099   2.368  20.307  0.00  0.00    +0.000 A 
ATOM      8  C   UNL     1       0.994   3.211  20.248  0.00  0.00    +0.000 A 
ATOM      9  C   UNL     1       1.134   4.573  19.862  0.00  0.00    +0.000 A 
ATOM     10  C   UNL     1       2.418   5.139  19.502  0.00  0.00    +0.000 A 
ENDROOT
BRANCH   3  11
ATOM     11  C   UNL     1       5.109   5.146  17.253  0.00  0.00    +0.000 A 
ATOM     12  C   UNL     1       5.385   3.867  16.796  0.00  0.00    +0.000 A 
ATOM     13  C   UNL     1       5.702   3.826  15.417  0.00  0.00    +0.000 A 
ATOM     14  C   UNL     1       5.661   5.078  14.852  0.00  0.00    +0.000 A 
ATOM     15  S   UNL     1       5.228   6.288  15.973  0.00  0.00    +0.000 S 
ENDBRANCH   3  11
BRANCH   1  16
ATOM     16  N   UNL     1       2.015   7.383  18.293  0.00  0.00    +0.000 N 
ATOM     17  H   UNL     1       1.168   6.907  18.011  0.00  0.00    +0.000 HD
BRANCH  16  22
ATOM     18  C   UNL     1       0.974   9.951  20.964  0.00  0.00    +0.000 A 
ATOM     19  C   UNL     1       0.847  11.086  20.175  0.00  0.00    +0.000 A 
ATOM     20  C   UNL     1       1.121  11.037  18.805  0.00  0.00    +0.000 A 
ATOM     21  C   UNL     1       1.494   9.821  18.222  0.00  0.00    +0.000 A 
ATOM     22  C   UNL     1       1.633   8.637  18.973  0.00  0.00    +0.000 A 
ATOM     23  C   UNL     1       1.372   8.722  20.372  0.00  0.00    +0.000 A 
BRANCH  18  25
ATOM     24  C   UNL     1      -0.278   9.443  22.979  0.00  0.00    +0.000 C 
ATOM     25  O   UNL     1       0.672  10.219  22.273  0.00  0.00    +0.000 OA
ENDBRANCH  18  25
ENDBRANCH  16  22
ENDBRANCH   1  16
TORSDOF 4
ENDMDL
MODEL 4
REMARK VINA RESULT:      -7.6      1.845      3.916
REMARK  Name = 
REMARK  5 active torsions:
REMARK  status: ('A' for Active; 'I' for Inactive)
REMARK    1  A    between atoms: C_1  and  O_2
REMARK    2  A    between atoms: O_2  and  C_3
REMARK    3  A    between atoms: C_7  and  N_8
REMARK    4  A    between atoms: N_8  and  C_9
REMARK    5  A    between atoms: C_11  and  C_12
REMARK                            x       y       z     vdW  Elec       q    Type
REMARK                         _______ _______ _______ _____ _____    ______ ____
ROOT
ATOM      1  C   UNL     1       2.872   6.276  18.557  0.00  0.00    +0.000 A 
ATOM      2  N   UNL     1       1.745   5.543  18.567  0.00  0.00    +0.000 NA
ATOM      3  C   UNL     1       1.884   4.266  18.241  0.00  0.00    +0.000 A 
ATOM      4  N   UNL     1       2.706   3.869  17.281  0.00  0.00    +0.000 NA
ATOM      5  C   UNL     1       3.831   4.551  17.213  0.00  0.00    +0.000 A 
ATOM      6  C   UNL     1       4.840   3.812  16.612  0.00  0.00    +0.000 A 
ATOM      7  C   UNL     1       6.131   4.283  16.520  0.00  0.00    +0.000 A 
ATOM      8  C   UNL     1       6.388   5.573  16.972  0.00  0.00    +0.000 A 
ATOM      9  C   UNL     1       5.374   6.339  17.612  0.00  0.00    +0.000 A 
ATOM     10  C   UNL     1       4.043   5.813  17.833  0.00  0.00    +0.000 A 
ENDROOT
BRANCH   3  11
ATOM     11  C   UNL     1       2.046   3.439  19.468  0.00  0.00    +0.000 A 
ATOM     12  C   UNL     1       1.154   3.329  20.523  0.00  0.00    +0.000 A 
ATOM     13  C   UNL     1       1.691   2.635  21.634  0.00  0.00    +0.000 A 
ATOM     14  C   UNL     1       2.984   2.231  21.401  0.00  0.00    +0.000 A 
ATOM     15  S   UNL     1       3.537   2.673  19.849  0.00  0.00    +0.000 S 
ENDBRANCH   3  11
BRANCH   1  16
ATOM     16  N   UNL     1       2.844   7.313  19.556  0.00  0.00    +0.000 N 
ATOM     17  H   UNL     1       3.750   7.765  19.543  0.00  0.00    +0.000 HD
BRANCH  16  22
ATOM     18  C   UNL     1       0.068   9.767  20.597  0.00  0.00    +0.000 A 
ATOM     19  C   UNL     1      -0.212  10.354  19.370  0.00  0.00    +0.000 A 
ATOM     20  C   UNL     1       0.502   9.989  18.225  0.00  0.00    +0.000 A 
ATOM     21  C   UNL     1       1.485   8.997  18.316  0.00  0.00    +0.000 A 
ATOM     22  C   UNL     1       1.807   8.364  19.533  0.00  0.00    +0.000 A 
ATOM     23  C   UNL     1       1.080   8.774  20.688  0.00  0.00    +0.000 A 
BRANCH  18  25
ATOM     24  C   UNL     1      -0.503   9.964  22.946  0.00  0.00    +0.000 C 
ATOM     25  O   UNL     1      -0.733  10.274  21.585  0.00  0.00    +0.000 OA
ENDBRANCH  18  25
ENDBRANCH  16  22
ENDBRANCH   1  16
TORSDOF 4
ENDMDL
MODEL 5
REMARK VINA RESULT:      -7.4      2.129      4.247
REMARK  Name = 
REMARK  5 active torsions:
REMARK  status: ('A' for Active; 'I' for Inactive)
REMARK    1  A    between atoms: C_1  and  O_2
REMARK    2  A    between atoms: O_2  and  C_3
REMARK    3  A    between atoms: C_7  and  N_8
REMARK    4  A    between atoms: N_8  and  C_9
REMARK    5  A    between atoms: C_11  and  C_12
REMARK                            x       y       z     vdW  Elec       q    Type
REMARK                         _______ _______ _______ _____ _____    ______ ____
ROOT
ATOM      1  C   UNL     1       2.899   6.328  18.623  0.00  0.00    +0.000 A 
ATOM      2  N   UNL     1       1.751   5.630  18.652  0.00  0.00    +0.000 NA
ATOM      3  C   UNL     1       1.840   4.354  18.302  0.00  0.00    +0.000 A 
ATOM      4  N   UNL     1       2.624   3.948  17.315  0.00  0.00    +0.000 NA
ATOM      5  C   UNL     1       3.768   4.596  17.227  0.00  0.00    +0.000 A 
ATOM      6  C   UNL     1       4.737   3.837  16.587  0.00  0.00    +0.000 A 
ATOM      7  C   UNL     1       6.040   4.270  16.468  0.00  0.00    +0.000 A 
ATOM      8  C   UNL     1       6.349   5.544  16.933  0.00  0.00    +0.000 A 
ATOM      9  C   UNL     1       5.376   6.329  17.612  0.00  0.00    +0.000 A 
ATOM     10  C   UNL     1       4.035   5.841  17.860  0.00  0.00    +0.000 A 
ENDROOT
BRANCH   3  11
ATOM     11  C   UNL     1       2.009   3.503  19.511  0.00  0.00    +0.000 A 
ATOM     12  C   UNL     1       1.107   3.341  20.550  0.00  0.00    +0.000 A 
ATOM     13  C   UNL     1       1.648   2.635  21.652  0.00  0.00    +0.000 A 
ATOM     14  C   UNL     1       2.955   2.275  21.428  0.00  0.00    +0.000 A 
ATOM     15  S   UNL     1       3.517   2.771  19.896  0.00  0.00    +0.000 S 
ENDBRANCH   3  11
BRANCH   1  16
ATOM     16  N   UNL     1       2.929   7.349  19.639  0.00  0.00    +0.000 N 
ATOM     17  H   UNL     1       3.739   7.928  19.456  0.00  0.00    +0.000 HD
BRANCH  16  22
ATOM     18  C   UNL     1       0.226  10.051  19.190  0.00  0.00    +0.000 A 
ATOM     19  C   UNL     1      -0.436   9.939  20.406  0.00  0.00    +0.000 A 
ATOM     20  C   UNL     1      -0.038   8.986  21.349  0.00  0.00    +0.000 A 
ATOM     21  C   UNL     1       1.059   8.163  21.074  0.00  0.00    +0.000 A 
ATOM     22  C   UNL     1       1.771   8.236  19.859  0.00  0.00    +0.000 A 
ATOM     23  C   UNL     1       1.328   9.199  18.906  0.00  0.00    +0.000 A 
BRANCH  18  25
ATOM     24  C   UNL     1      -1.718  11.296  18.444  0.00  0.00    +0.000 C 
ATOM     25  O   UNL     1      -0.328  11.031  18.411  0.00  0.00    +0.000 OA
ENDBRANCH  18  25
ENDBRANCH  16  22
ENDBRANCH   1  16
TORSDOF 4
ENDMDL
MODEL 6
REMARK VINA RESULT:      -7.3      1.979      3.944
REMARK  Name = 
REMARK  5 active torsions:
REMARK  status: ('A' for Active; 'I' for Inactive)
REMARK    1  A    between atoms: C_1  and  O_2
REMARK    2  A    between atoms: O_2  and  C_3
REMARK    3  A    between atoms: C_7  and  N_8
REMARK    4  A    between atoms: N_8  and  C_9
REMARK    5  A    between atoms: C_11  and  C_12
REMARK                            x       y       z     vdW  Elec       q    Type
REMARK                         _______ _______ _______ _____ _____    ______ ____
ROOT
ATOM      1  C   UNL     1       3.234   6.647  17.863  0.00  0.00    +0.000 A 
ATOM      2  N   UNL     1       2.109   5.934  18.048  0.00  0.00    +0.000 NA
ATOM      3  C   UNL     1       2.242   4.616  17.982  0.00  0.00    +0.000 A 
ATOM      4  N   UNL     1       3.041   4.033  17.102  0.00  0.00    +0.000 NA
ATOM      5  C   UNL     1       4.164   4.684  16.871  0.00  0.00    +0.000 A 
ATOM      6  C   UNL     1       5.159   3.836  16.407  0.00  0.00    +0.000 A 
ATOM      7  C   UNL     1       6.447   4.276  16.191  0.00  0.00    +0.000 A 
ATOM      8  C   UNL     1       6.712   5.629  16.368  0.00  0.00    +0.000 A 
ATOM      9  C   UNL     1       5.712   6.511  16.865  0.00  0.00    +0.000 A 
ATOM     10  C   UNL     1       4.388   6.044  17.219  0.00  0.00    +0.000 A 
ENDROOT
BRANCH   3  11
ATOM     11  C   UNL     1       2.435   4.053  19.346  0.00  0.00    +0.000 A 
ATOM     12  C   UNL     1       2.923   2.797  19.668  0.00  0.00    +0.000 A 
ATOM     13  C   UNL     1       2.786   2.482  21.041  0.00  0.00    +0.000 A 
ATOM     14  C   UNL     1       2.193   3.508  21.738  0.00  0.00    +0.000 A 
ATOM     15  S   UNL     1       1.822   4.844  20.744  0.00  0.00    +0.000 S 
ENDBRANCH   3  11
BRANCH   1  16
ATOM     16  N   UNL     1       3.227   7.864  18.634  0.00  0.00    +0.000 N 
ATOM     17  H   UNL     1       3.888   8.496  18.199  0.00  0.00    +0.000 HD
BRANCH  16  22
ATOM     18  C   UNL     1       0.163   9.458  20.331  0.00  0.00    +0.000 A 
ATOM     19  C   UNL     1      -0.476   9.999  19.223  0.00  0.00    +0.000 A 
ATOM     20  C   UNL     1       0.085   9.881  17.948  0.00  0.00    +0.000 A 
ATOM     21  C   UNL     1       1.285   9.179  17.787  0.00  0.00    +0.000 A 
ATOM     22  C   UNL     1       1.973   8.605  18.874  0.00  0.00    +0.000 A 
ATOM     23  C   UNL     1       1.392   8.763  20.166  0.00  0.00    +0.000 A 
BRANCH  18  25
ATOM     24  C   UNL     1      -0.021   9.351  22.747  0.00  0.00    +0.000 C 
ATOM     25  O   UNL     1      -0.545   9.696  21.479  0.00  0.00    +0.000 OA
ENDBRANCH  18  25
ENDBRANCH  16  22
ENDBRANCH   1  16
TORSDOF 4
ENDMDL
MODEL 7
REMARK VINA RESULT:      -7.3      2.378      4.363
REMARK  Name = 
REMARK  5 active torsions:
REMARK  status: ('A' for Active; 'I' for Inactive)
REMARK    1  A    between atoms: C_1  and  O_2
REMARK    2  A    between atoms: O_2  and  C_3
REMARK    3  A    between atoms: C_7  and  N_8
REMARK    4  A    between atoms: N_8  and  C_9
REMARK    5  A    between atoms: C_11  and  C_12
REMARK                            x       y       z     vdW  Elec       q    Type
REMARK                         _______ _______ _______ _____ _____    ______ ____
ROOT
ATOM      1  C   UNL     1       3.207   6.672  17.842  0.00  0.00    +0.000 A 
ATOM      2  N   UNL     1       2.091   5.947  18.033  0.00  0.00    +0.000 NA
ATOM      3  C   UNL     1       2.240   4.631  17.984  0.00  0.00    +0.000 A 
ATOM      4  N   UNL     1       3.049   4.046  17.113  0.00  0.00    +0.000 NA
ATOM      5  C   UNL     1       4.164   4.708  16.877  0.00  0.00    +0.000 A 
ATOM      6  C   UNL     1       5.170   3.867  16.425  0.00  0.00    +0.000 A 
ATOM      7  C   UNL     1       6.453   4.319  16.207  0.00  0.00    +0.000 A 
ATOM      8  C   UNL     1       6.701   5.678  16.367  0.00  0.00    +0.000 A 
ATOM      9  C   UNL     1       5.690   6.553  16.851  0.00  0.00    +0.000 A 
ATOM     10  C   UNL     1       4.370   6.075  17.208  0.00  0.00    +0.000 A 
ENDROOT
BRANCH   3  11
ATOM     11  C   UNL     1       2.437   4.087  19.355  0.00  0.00    +0.000 A 
ATOM     12  C   UNL     1       3.017   2.876  19.697  0.00  0.00    +0.000 A 
ATOM     13  C   UNL     1       2.864   2.553  21.067  0.00  0.00    +0.000 A 
ATOM     14  C   UNL     1       2.167   3.528  21.741  0.00  0.00    +0.000 A 
ATOM     15  S   UNL     1       1.718   4.826  20.731  0.00  0.00    +0.000 S 
ENDBRANCH   3  11
BRANCH   1  16
ATOM     16  N   UNL     1       3.184   7.898  18.597  0.00  0.00    +0.000 N 
ATOM     17  H   UNL     1       3.770   8.562  18.106  0.00  0.00    +0.000 HD
BRANCH  16  22
ATOM     18  C   UNL     1      -0.104   9.881  18.339  0.00  0.00    +0.000 A 
ATOM     19  C   UNL     1      -0.501   9.870  19.670  0.00  0.00    +0.000 A 
ATOM     20  C   UNL     1       0.262   9.209  20.636  0.00  0.00    +0.000 A 
ATOM     21  C   UNL     1       1.455   8.581  20.259  0.00  0.00    +0.000 A 
ATOM     22  C   UNL     1       1.909   8.565  18.925  0.00  0.00    +0.000 A 
ATOM     23  C   UNL     1       1.098   9.226  17.957  0.00  0.00    +0.000 A 
BRANCH  18  25
ATOM     24  C   UNL     1      -2.342  10.151  17.442  0.00  0.00    +0.000 C 
ATOM     25  O   UNL     1      -0.995  10.570  17.560  0.00  0.00    +0.000 OA
ENDBRANCH  18  25
ENDBRANCH  16  22
ENDBRANCH   1  16
TORSDOF 4
ENDMDL
MODEL 8
REMARK VINA RESULT:      -7.3      3.051      5.955
REMARK  Name = 
REMARK  5 active torsions:
REMARK  status: ('A' for Active; 'I' for Inactive)
REMARK    1  A    between atoms: C_1  and  O_2
REMARK    2  A    between atoms: O_2  and  C_3
REMARK    3  A    between atoms: C_7  and  N_8
REMARK    4  A    between atoms: N_8  and  C_9
REMARK    5  A    between atoms: C_11  and  C_12
REMARK                            x       y       z     vdW  Elec       q    Type
REMARK                         _______ _______ _______ _____ _____    ______ ____
ROOT
ATOM      1  C   UNL     1       4.083   3.350  18.703  0.00  0.00    +0.000 A 
ATOM      2  N   UNL     1       3.613   3.942  17.591  0.00  0.00    +0.000 NA
ATOM      3  C   UNL     1       2.426   4.523  17.703  0.00  0.00    +0.000 A 
ATOM      4  N   UNL     1       1.445   3.989  18.414  0.00  0.00    +0.000 NA
ATOM      5  C   UNL     1       1.839   3.387  19.519  0.00  0.00    +0.000 A 
ATOM      6  C   UNL     1       0.821   3.328  20.459  0.00  0.00    +0.000 A 
ATOM      7  C   UNL     1       1.029   2.832  21.727  0.00  0.00    +0.000 A 
ATOM      8  C   UNL     1       2.280   2.301  22.022  0.00  0.00    +0.000 A 
ATOM      9  C   UNL     1       3.344   2.371  21.080  0.00  0.00    +0.000 A 
ATOM     10  C   UNL     1       3.181   3.004  19.788  0.00  0.00    +0.000 A 
ENDROOT
BRANCH   3  11
ATOM     11  C   UNL     1       2.592   5.969  18.011  0.00  0.00    +0.000 A 
ATOM     12  C   UNL     1       1.831   6.729  18.886  0.00  0.00    +0.000 A 
ATOM     13  C   UNL     1       2.101   8.115  18.797  0.00  0.00    +0.000 A 
ATOM     14  C   UNL     1       3.064   8.384  17.854  0.00  0.00    +0.000 A 
ATOM     15  S   UNL     1       3.647   6.972  17.095  0.00  0.00    +0.000 S 
ENDBRANCH   3  11
BRANCH   1  16
ATOM     16  N   UNL     1       5.520   3.421  18.779  0.00  0.00    +0.000 N 
ATOM     17  H   UNL     1       5.880   2.533  18.453  0.00  0.00    +0.000 HD
BRANCH  16  22
ATOM     18  C   UNL     1       7.346   5.516  16.116  0.00  0.00    +0.000 A 
ATOM     19  C   UNL     1       7.755   6.593  16.891  0.00  0.00    +0.000 A 
ATOM     20  C   UNL     1       7.423   6.663  18.248  0.00  0.00    +0.000 A 
ATOM     21  C   UNL     1       6.701   5.617  18.833  0.00  0.00    +0.000 A 
ATOM     22  C   UNL     1       6.265   4.497  18.096  0.00  0.00    +0.000 A 
ATOM     23  C   UNL     1       6.596   4.465  16.710  0.00  0.00    +0.000 A 
BRANCH  18  25
ATOM     24  C   UNL     1       7.117   4.958  13.766  0.00  0.00    +0.000 C 
ATOM     25  O   UNL     1       7.763   5.650  14.819  0.00  0.00    +0.000 OA
ENDBRANCH  18  25
ENDBRANCH  16  22
ENDBRANCH   1  16
TORSDOF 4
ENDMDL
MODEL 9
REMARK VINA RESULT:      -7.2      1.633      1.990
REMARK  Name = 
REMARK  5 active torsions:
REMARK  status: ('A' for Active; 'I' for Inactive)
REMARK    1  A    between atoms: C_1  and  O_2
REMARK    2  A    between atoms: O_2  and  C_3
REMARK    3  A    between atoms: C_7  and  N_8
REMARK    4  A    between atoms: N_8  and  C_9
REMARK    5  A    between atoms: C_11  and  C_12
REMARK                            x       y       z     vdW  Elec       q    Type
REMARK                         _______ _______ _______ _____ _____    ______ ____
ROOT
ATOM      1  C   UNL     1       3.175   5.019  20.273  0.00  0.00    +0.000 A 
ATOM      2  N   UNL     1       4.509   5.025  20.103  0.00  0.00    +0.000 NA
ATOM      3  C   UNL     1       4.972   4.246  19.136  0.00  0.00    +0.000 A 
ATOM      4  N   UNL     1       4.463   3.048  18.892  0.00  0.00    +0.000 NA
ATOM      5  C   UNL     1       3.156   2.971  19.045  0.00  0.00    +0.000 A 
ATOM      6  C   UNL     1       2.616   1.934  18.298  0.00  0.00    +0.000 A 
ATOM      7  C   UNL     1       1.256   1.724  18.223  0.00  0.00    +0.000 A 
ATOM      8  C   UNL     1       0.428   2.531  18.994  0.00  0.00    +0.000 A 
ATOM      9  C   UNL     1       0.960   3.613  19.749  0.00  0.00    +0.000 A 
ATOM     10  C   UNL     1       2.373   3.931  19.741  0.00  0.00    +0.000 A 
ENDROOT
BRANCH   3  11
ATOM     11  C   UNL     1       5.136   5.029  17.882  0.00  0.00    +0.000 A 
ATOM     12  C   UNL     1       4.639   4.710  16.628  0.00  0.00    +0.000 A 
ATOM     13  C   UNL     1       5.145   5.543  15.601  0.00  0.00    +0.000 A 
ATOM     14  C   UNL     1       6.019   6.481  16.096  0.00  0.00    +0.000 A 
ATOM     15  S   UNL     1       6.213   6.366  17.786  0.00  0.00    +0.000 S 
ENDBRANCH   3  11
BRANCH   1  16
ATOM     16  N   UNL     1       2.687   6.298  20.719  0.00  0.00    +0.000 N 
ATOM     17  H   UNL     1       3.395   6.693  21.325  0.00  0.00    +0.000 HD
BRANCH  16  22
ATOM     18  C   UNL     1       1.094   9.413  19.115  0.00  0.00    +0.000 A 
ATOM     19  C   UNL     1       1.505   9.248  17.799  0.00  0.00    +0.000 A 
ATOM     20  C   UNL     1       2.310   8.164  17.434  0.00  0.00    +0.000 A 
ATOM     21  C   UNL     1       2.674   7.222  18.402  0.00  0.00    +0.000 A 
ATOM     22  C   UNL     1       2.281   7.337  19.751  0.00  0.00    +0.000 A 
ATOM     23  C   UNL     1       1.482   8.464  20.099  0.00  0.00    +0.000 A 
BRANCH  18  25
ATOM     24  C   UNL     1      -1.035  10.552  18.874  0.00  0.00    +0.000 C 
ATOM     25  O   UNL     1       0.328  10.539  19.259  0.00  0.00    +0.000 OA
ENDBRANCH  18  25
ENDBRANCH  16  22
ENDBRANCH   1  16
TORSDOF 4
ENDMDL
