MODEL 1
REMARK VINA RESULT:      -8.6      0.000      0.000
REMARK  Name = 
REMARK  9 active torsions:
REMARK  status: ('A' for Active; 'I' for Inactive)
REMARK    1  A    between atoms: C_1  and  C_2
REMARK    2  A    between atoms: N_4  and  C_5
REMARK    3  A    between atoms: C_8  and  C_9
REMARK    4  A    between atoms: C_10  and  S_11
REMARK    5  A    between atoms: S_11  and  N_14
REMARK    6  A    between atoms: N_14  and  C_15
REMARK    7  A    between atoms: N_14  and  N_16
REMARK    8  A    between atoms: C_17  and  C_18
REMARK    9  A    between atoms: C_24  and  C_25
REMARK                            x       y       z     vdW  Elec       q    Type
REMARK                         _______ _______ _______ _____ _____    ______ ____
ROOT
ATOM      1  S   UNL     1       4.116   2.941  18.714  0.00  0.00    +0.000 S 
ATOM      2  O   UNL     1       3.645   1.834  17.902  0.00  0.00    +0.000 OA
ATOM      3  O   UNL     1       4.815   2.686  19.957  0.00  0.00    +0.000 OA
ENDROOT
BRANCH   1   9
ATOM      4  C   UNL     1       6.119   4.144  15.398  0.00  0.00    +0.000 A 
ATOM      5  C   UNL     1       6.887   5.211  15.858  0.00  0.00    +0.000 A 
ATOM      6  C   UNL     1       6.834   5.608  17.188  0.00  0.00    +0.000 A 
ATOM      7  C   UNL     1       5.995   4.965  18.109  0.00  0.00    +0.000 A 
ATOM      8  C   UNL     1       6.156   5.389  19.542  0.00  0.00    +0.000 C 
ATOM      9  C   UNL     1       5.140   3.946  17.631  0.00  0.00    +0.000 A 
ATOM     10  C   UNL     1       5.200   3.548  16.274  0.00  0.00    +0.000 A 
BRANCH   4  14
ATOM     11  C   UNL     1       6.903   3.588  11.743  0.00  0.00    +0.000 C 
ATOM     12  C   UNL     1       6.979   4.289  13.071  0.00  0.00    +0.000 C 
ATOM     13  O   UNL     1       7.628   5.326  13.176  0.00  0.00    +0.000 OA
ATOM     14  N   UNL     1       6.274   3.643  14.083  0.00  0.00    +0.000 N 
ATOM     15  H   UNL     1       5.999   2.682  13.917  0.00  0.00    +0.000 HD
ENDBRANCH   4  14
ENDBRANCH   1   9
BRANCH   1  16
ATOM     16  N   UNL     1       2.736   3.924  19.118  0.00  0.00    +0.000 N 
ATOM     17  C   UNL     1       1.477   3.191  19.399  0.00  0.00    +0.000 C 
BRANCH  16  18
ATOM     18  N   UNL     1       2.483   5.261  18.458  0.00  0.00    +0.000 NA
ATOM     19  C   UNL     1       2.544   6.308  19.216  0.00  0.00    +0.000 C 
BRANCH  19  20
ATOM     20  C   UNL     1       2.285   7.640  18.711  0.00  0.00    +0.000 A 
ATOM     21  C   UNL     1       2.567   8.239  17.468  0.00  0.00    +0.000 A 
ATOM     22  N   UNL     1       2.169   9.513  17.389  0.00  0.00    +0.000 NA
ATOM     23  N   UNL     1       1.607   9.777  18.592  0.00  0.00    +0.000 N 
ATOM     24  C   UNL     1       1.050  10.986  19.021  0.00  0.00    +0.000 A 
ATOM     25  C   UNL     1       0.530  11.091  20.256  0.00  0.00    +0.000 A 
ATOM     26  C   UNL     1       0.561   9.926  21.135  0.00  0.00    +0.000 A 
ATOM     27  C   UNL     1       1.093   8.755  20.729  0.00  0.00    +0.000 A 
ATOM     28  C   UNL     1       1.650   8.646  19.421  0.00  0.00    +0.000 A 
BRANCH  26  29
ATOM     29  C   UNL     1      -0.005  10.077  22.537  0.00  0.00    +0.000 C 
ATOM     30  N   UNL     1      -0.474  10.201  23.700  0.00  0.00    +0.000 NA
ENDBRANCH  26  29
ENDBRANCH  19  20
ENDBRANCH  16  18
ENDBRANCH   1  16
TORSDOF 6
ENDMDL
MODEL 2
REMARK VINA RESULT:      -8.1      1.931      2.744
REMARK  Name = 
REMARK  9 active torsions:
REMARK  status: ('A' for Active; 'I' for Inactive)
REMARK    1  A    between atoms: C_1  and  C_2
REMARK    2  A    between atoms: N_4  and  C_5
REMARK    3  A    between atoms: C_8  and  C_9
REMARK    4  A    between atoms: C_10  and  S_11
REMARK    5  A    between atoms: S_11  and  N_14
REMARK    6  A    between atoms: N_14  and  C_15
REMARK    7  A    between atoms: N_14  and  N_16
REMARK    8  A    between atoms: C_17  and  C_18
REMARK    9  A    between atoms: C_24  and  C_25
REMARK                            x       y       z     vdW  Elec       q    Type
REMARK                         _______ _______ _______ _____ _____    ______ ____
ROOT
ATOM      1  S   UNL     1       3.588   2.745  19.855  0.00  0.00    +0.000 S 
ATOM      2  O   UNL     1       2.846   1.663  19.234  0.00  0.00    +0.000 OA
ATOM      3  O   UNL     1       4.450   2.478  20.989  0.00  0.00    +0.000 OA
ENDROOT
BRANCH   1   9
ATOM      4  C   UNL     1       6.259   5.162  17.988  0.00  0.00    +0.000 A 
ATOM      5  C   UNL     1       5.940   5.010  16.641  0.00  0.00    +0.000 A 
ATOM      6  C   UNL     1       4.906   4.174  16.242  0.00  0.00    +0.000 A 
ATOM      7  C   UNL     1       4.158   3.441  17.175  0.00  0.00    +0.000 A 
ATOM      8  C   UNL     1       2.969   2.705  16.622  0.00  0.00    +0.000 C 
ATOM      9  C   UNL     1       4.535   3.513  18.535  0.00  0.00    +0.000 A 
ATOM     10  C   UNL     1       5.592   4.367  18.933  0.00  0.00    +0.000 A 
BRANCH   4  14
ATOM     11  C   UNL     1       8.544   8.143  18.402  0.00  0.00    +0.000 C 
ATOM     12  C   UNL     1       7.397   7.365  17.821  0.00  0.00    +0.000 C 
ATOM     13  O   UNL     1       6.727   7.853  16.915  0.00  0.00    +0.000 OA
ATOM     14  N   UNL     1       7.213   6.118  18.413  0.00  0.00    +0.000 N 
ATOM     15  H   UNL     1       7.672   5.953  19.300  0.00  0.00    +0.000 HD
ENDBRANCH   4  14
ENDBRANCH   1   9
BRANCH   1  16
ATOM     16  N   UNL     1       2.438   3.942  20.380  0.00  0.00    +0.000 N 
ATOM     17  C   UNL     1       1.287   3.435  21.167  0.00  0.00    +0.000 C 
BRANCH  16  18
ATOM     18  N   UNL     1       2.063   5.126  19.518  0.00  0.00    +0.000 NA
ATOM     19  C   UNL     1       2.604   6.262  19.818  0.00  0.00    +0.000 C 
BRANCH  19  20
ATOM     20  C   UNL     1       2.297   7.477  19.092  0.00  0.00    +0.000 A 
ATOM     21  C   UNL     1       2.619   7.891  17.785  0.00  0.00    +0.000 A 
ATOM     22  N   UNL     1       2.151   9.106  17.481  0.00  0.00    +0.000 NA
ATOM     23  N   UNL     1       1.501   9.517  18.595  0.00  0.00    +0.000 N 
ATOM     24  C   UNL     1       0.847  10.737  18.794  0.00  0.00    +0.000 A 
ATOM     25  C   UNL     1       0.247  11.000  19.968  0.00  0.00    +0.000 A 
ATOM     26  C   UNL     1       0.293   9.992  21.023  0.00  0.00    +0.000 A 
ATOM     27  C   UNL     1       0.918   8.812  20.839  0.00  0.00    +0.000 A 
ATOM     28  C   UNL     1       1.561   8.537  19.597  0.00  0.00    +0.000 A 
BRANCH  26  29
ATOM     29  C   UNL     1      -0.366  10.323  22.351  0.00  0.00    +0.000 C 
ATOM     30  N   UNL     1      -0.912  10.598  23.454  0.00  0.00    +0.000 NA
ENDBRANCH  26  29
ENDBRANCH  19  20
ENDBRANCH  16  18
ENDBRANCH   1  16
TORSDOF 6
ENDMDL
MODEL 3
REMARK VINA RESULT:      -7.9      4.721      9.976
REMARK  Name = 
REMARK  9 active torsions:
REMARK  status: ('A' for Active; 'I' for Inactive)
REMARK    1  A    between atoms: C_1  and  C_2
REMARK    2  A    between atoms: N_4  and  C_5
REMARK    3  A    between atoms: C_8  and  C_9
REMARK    4  A    between atoms: C_10  and  S_11
REMARK    5  A    between atoms: S_11  and  N_14
REMARK    6  A    between atoms: N_14  and  C_15
REMARK    7  A    between atoms: N_14  and  N_16
REMARK    8  A    between atoms: C_17  and  C_18
REMARK    9  A    between atoms: C_24  and  C_25
REMARK                            x       y       z     vdW  Elec       q    Type
REMARK                         _______ _______ _______ _____ _____    ______ ____
ROOT
ATOM      1  S   UNL     1       0.722  11.118  20.109  0.00  0.00    +0.000 S 
ATOM      2  O   UNL     1       1.440  11.326  18.865  0.00  0.00    +0.000 OA
ATOM      3  O   UNL     1       1.232  11.675  21.345  0.00  0.00    +0.000 OA
ENDROOT
BRANCH   1   9
ATOM      4  C   UNL     1      -2.855  12.918  20.765  0.00  0.00    +0.000 A 
ATOM      5  C   UNL     1      -3.623  12.507  19.678  0.00  0.00    +0.000 A 
ATOM      6  C   UNL     1      -3.094  11.669  18.705  0.00  0.00    +0.000 A 
ATOM      7  C   UNL     1      -1.767  11.221  18.771  0.00  0.00    +0.000 A 
ATOM      8  C   UNL     1      -1.375  10.194  17.745  0.00  0.00    +0.000 C 
ATOM      9  C   UNL     1      -0.950  11.709  19.816  0.00  0.00    +0.000 A 
ATOM     10  C   UNL     1      -1.498  12.565  20.803  0.00  0.00    +0.000 A 
BRANCH   4  14
ATOM     11  C   UNL     1      -4.449  14.087  23.985  0.00  0.00    +0.000 C 
ATOM     12  C   UNL     1      -3.765  13.111  23.069  0.00  0.00    +0.000 C 
ATOM     13  O   UNL     1      -3.554  11.963  23.450  0.00  0.00    +0.000 OA
ATOM     14  N   UNL     1      -3.427  13.652  21.832  0.00  0.00    +0.000 N 
ATOM     15  H   UNL     1      -3.434  14.661  21.748  0.00  0.00    +0.000 HD
ENDBRANCH   4  14
ENDBRANCH   1   9
BRANCH   1  16
ATOM     16  N   UNL     1       0.586   9.400  20.361  0.00  0.00    +0.000 N 
ATOM     17  C   UNL     1      -0.196   8.980  21.549  0.00  0.00    +0.000 C 
BRANCH  16  18
ATOM     18  N   UNL     1       1.727   8.454  20.063  0.00  0.00    +0.000 NA
ATOM     19  C   UNL     1       1.863   8.072  18.834  0.00  0.00    +0.000 C 
BRANCH  19  20
ATOM     20  C   UNL     1       2.892   7.138  18.428  0.00  0.00    +0.000 A 
ATOM     21  C   UNL     1       3.905   7.229  17.453  0.00  0.00    +0.000 A 
ATOM     22  N   UNL     1       4.666   6.133  17.372  0.00  0.00    +0.000 NA
ATOM     23  N   UNL     1       4.166   5.292  18.306  0.00  0.00    +0.000 N 
ATOM     24  C   UNL     1       4.607   4.000  18.608  0.00  0.00    +0.000 A 
ATOM     25  C   UNL     1       3.998   3.284  19.569  0.00  0.00    +0.000 A 
ATOM     26  C   UNL     1       2.875   3.880  20.286  0.00  0.00    +0.000 A 
ATOM     27  C   UNL     1       2.445   5.126  20.006  0.00  0.00    +0.000 A 
ATOM     28  C   UNL     1       3.086   5.882  18.981  0.00  0.00    +0.000 A 
BRANCH  26  29
ATOM     29  C   UNL     1       2.184   3.041  21.348  0.00  0.00    +0.000 C 
ATOM     30  N   UNL     1       1.609   2.345  22.229  0.00  0.00    +0.000 NA
ENDBRANCH  26  29
ENDBRANCH  19  20
ENDBRANCH  16  18
ENDBRANCH   1  16
TORSDOF 6
ENDMDL
MODEL 4
REMARK VINA RESULT:      -7.9      2.463      3.472
REMARK  Name = 
REMARK  9 active torsions:
REMARK  status: ('A' for Active; 'I' for Inactive)
REMARK    1  A    between atoms: C_1  and  C_2
REMARK    2  A    between atoms: N_4  and  C_5
REMARK    3  A    between atoms: C_8  and  C_9
REMARK    4  A    between atoms: C_10  and  S_11
REMARK    5  A    between atoms: S_11  and  N_14
REMARK    6  A    between atoms: N_14  and  C_15
REMARK    7  A    between atoms: N_14  and  N_16
REMARK    8  A    between atoms: C_17  and  C_18
REMARK    9  A    between atoms: C_24  and  C_25
REMARK                            x       y       z     vdW  Elec       q    Type
REMARK                         _______ _______ _______ _____ _____    ______ ____
ROOT
ATOM      1  S   UNL     1       3.498   5.264  18.423  0.00  0.00    +0.000 S 
ATOM      2  O   UNL     1       2.549   4.286  17.923  0.00  0.00    +0.000 OA
ATOM      3  O   UNL     1       3.766   5.358  19.843  0.00  0.00    +0.000 OA
ENDROOT
BRANCH   1   9
ATOM      4  C   UNL     1       6.034   3.978  15.529  0.00  0.00    +0.000 A 
ATOM      5  C   UNL     1       7.291   4.177  16.094  0.00  0.00    +0.000 A 
ATOM      6  C   UNL     1       7.424   4.706  17.372  0.00  0.00    +0.000 A 
ATOM      7  C   UNL     1       6.304   5.072  18.130  0.00  0.00    +0.000 A 
ATOM      8  C   UNL     1       6.583   5.476  19.551  0.00  0.00    +0.000 C 
ATOM      9  C   UNL     1       5.029   4.965  17.529  0.00  0.00    +0.000 A 
ATOM     10  C   UNL     1       4.903   4.427  16.226  0.00  0.00    +0.000 A 
BRANCH   4  14
ATOM     11  C   UNL     1       6.008   2.924  11.900  0.00  0.00    +0.000 C 
ATOM     12  C   UNL     1       6.396   3.772  13.079  0.00  0.00    +0.000 C 
ATOM     13  O   UNL     1       7.103   4.762  12.911  0.00  0.00    +0.000 OA
ATOM     14  N   UNL     1       5.886   3.310  14.289  0.00  0.00    +0.000 N 
ATOM     15  H   UNL     1       5.535   2.360  14.313  0.00  0.00    +0.000 HD
ENDBRANCH   4  14
ENDBRANCH   1   9
BRANCH   1  16
ATOM     16  N   UNL     1       2.948   6.838  17.920  0.00  0.00    +0.000 N 
ATOM     17  C   UNL     1       3.979   7.725  17.326  0.00  0.00    +0.000 C 
BRANCH  16  18
ATOM     18  N   UNL     1       1.909   7.611  18.700  0.00  0.00    +0.000 NA
ATOM     19  C   UNL     1       1.801   8.874  18.436  0.00  0.00    +0.000 C 
BRANCH  19  20
ATOM     20  C   UNL     1       0.871   9.730  19.142  0.00  0.00    +0.000 A 
ATOM     21  C   UNL     1       0.912  10.292  20.432  0.00  0.00    +0.000 A 
ATOM     22  N   UNL     1      -0.161  11.034  20.725  0.00  0.00    +0.000 NA
ATOM     23  N   UNL     1      -0.936  10.976  19.617  0.00  0.00    +0.000 N 
ATOM     24  C   UNL     1      -2.183  11.578  19.422  0.00  0.00    +0.000 A 
ATOM     25  C   UNL     1      -2.835  11.422  18.256  0.00  0.00    +0.000 A 
ATOM     26  C   UNL     1      -2.218  10.617  17.207  0.00  0.00    +0.000 A 
ATOM     27  C   UNL     1      -1.014  10.037  17.384  0.00  0.00    +0.000 A 
ATOM     28  C   UNL     1      -0.327  10.196  18.623  0.00  0.00    +0.000 A 
BRANCH  26  29
ATOM     29  C   UNL     1      -2.986  10.431  15.909  0.00  0.00    +0.000 C 
ATOM     30  N   UNL     1      -3.623  10.276  14.832  0.00  0.00    +0.000 NA
ENDBRANCH  26  29
ENDBRANCH  19  20
ENDBRANCH  16  18
ENDBRANCH   1  16
TORSDOF 6
ENDMDL
MODEL 5
REMARK VINA RESULT:      -7.8      5.150      7.588
REMARK  Name = 
REMARK  9 active torsions:
REMARK  status: ('A' for Active; 'I' for Inactive)
REMARK    1  A    between atoms: C_1  and  C_2
REMARK    2  A    between atoms: N_4  and  C_5
REMARK    3  A    between atoms: C_8  and  C_9
REMARK    4  A    between atoms: C_10  and  S_11
REMARK    5  A    between atoms: S_11  and  N_14
REMARK    6  A    between atoms: N_14  and  C_15
REMARK    7  A    between atoms: N_14  and  N_16
REMARK    8  A    between atoms: C_17  and  C_18
REMARK    9  A    between atoms: C_24  and  C_25
REMARK                            x       y       z     vdW  Elec       q    Type
REMARK                         _______ _______ _______ _____ _____    ______ ____
ROOT
ATOM      1  S   UNL     1       0.499   9.648  21.199  0.00  0.00    +0.000 S 
ATOM      2  O   UNL     1      -0.589   8.924  21.829  0.00  0.00    +0.000 OA
ATOM      3  O   UNL     1       1.488  10.327  22.011  0.00  0.00    +0.000 OA
ENDROOT
BRANCH   1   9
ATOM      4  C   UNL     1       2.341   6.257  19.944  0.00  0.00    +0.000 A 
ATOM      5  C   UNL     1       2.794   6.592  18.671  0.00  0.00    +0.000 A 
ATOM      6  C   UNL     1       2.564   7.855  18.140  0.00  0.00    +0.000 A 
ATOM      7  C   UNL     1       1.856   8.830  18.857  0.00  0.00    +0.000 A 
ATOM      8  C   UNL     1       1.821  10.198  18.234  0.00  0.00    +0.000 C 
ATOM      9  C   UNL     1       1.308   8.469  20.108  0.00  0.00    +0.000 A 
ATOM     10  C   UNL     1       1.545   7.179  20.641  0.00  0.00    +0.000 A 
BRANCH   4  14
ATOM     11  C   UNL     1       2.418   2.812  21.495  0.00  0.00    +0.000 C 
ATOM     12  C   UNL     1       1.813   3.964  20.742  0.00  0.00    +0.000 C 
ATOM     13  O   UNL     1       0.647   3.897  20.362  0.00  0.00    +0.000 OA
ATOM     14  N   UNL     1       2.693   5.025  20.547  0.00  0.00    +0.000 N 
ATOM     15  H   UNL     1       3.678   4.844  20.691  0.00  0.00    +0.000 HD
ENDBRANCH   4  14
ENDBRANCH   1   9
BRANCH   1  16
ATOM     16  N   UNL     1      -0.202  10.858  20.161  0.00  0.00    +0.000 N 
ATOM     17  C   UNL     1      -0.061  12.263  20.617  0.00  0.00    +0.000 C 
BRANCH  16  18
ATOM     18  N   UNL     1      -1.499  10.625  19.420  0.00  0.00    +0.000 NA
ATOM     19  C   UNL     1      -2.064  11.662  18.891  0.00  0.00    +0.000 C 
BRANCH  19  20
ATOM     20  C   UNL     1      -3.327  11.576  18.189  0.00  0.00    +0.000 A 
ATOM     21  C   UNL     1      -3.632  11.274  16.847  0.00  0.00    +0.000 A 
ATOM     22  N   UNL     1      -4.941  11.304  16.579  0.00  0.00    +0.000 NA
ATOM     23  N   UNL     1      -5.530  11.626  17.754  0.00  0.00    +0.000 N 
ATOM     24  C   UNL     1      -6.896  11.799  18.000  0.00  0.00    +0.000 A 
ATOM     25  C   UNL     1      -7.326  12.125  19.231  0.00  0.00    +0.000 A 
ATOM     26  C   UNL     1      -6.344  12.295  20.298  0.00  0.00    +0.000 A 
ATOM     27  C   UNL     1      -5.026  12.126  20.072  0.00  0.00    +0.000 A 
ATOM     28  C   UNL     1      -4.570  11.788  18.764  0.00  0.00    +0.000 A 
BRANCH  26  29
ATOM     29  C   UNL     1      -6.852  12.692  21.674  0.00  0.00    +0.000 C 
ATOM     30  N   UNL     1      -7.272  13.021  22.816  0.00  0.00    +0.000 NA
ENDBRANCH  26  29
ENDBRANCH  19  20
ENDBRANCH  16  18
ENDBRANCH   1  16
TORSDOF 6
ENDMDL
MODEL 6
REMARK VINA RESULT:      -7.7      4.303      8.821
REMARK  Name = 
REMARK  9 active torsions:
REMARK  status: ('A' for Active; 'I' for Inactive)
REMARK    1  A    between atoms: C_1  and  C_2
REMARK    2  A    between atoms: N_4  and  C_5
REMARK    3  A    between atoms: C_8  and  C_9
REMARK    4  A    between atoms: C_10  and  S_11
REMARK    5  A    between atoms: S_11  and  N_14
REMARK    6  A    between atoms: N_14  and  C_15
REMARK    7  A    between atoms: N_14  and  N_16
REMARK    8  A    between atoms: C_17  and  C_18
REMARK    9  A    between atoms: C_24  and  C_25
REMARK                            x       y       z     vdW  Elec       q    Type
REMARK                         _______ _______ _______ _____ _____    ______ ____
ROOT
ATOM      1  S   UNL     1       0.947  10.400  20.172  0.00  0.00    +0.000 S 
ATOM      2  O   UNL     1       1.727  10.278  18.955  0.00  0.00    +0.000 OA
ATOM      3  O   UNL     1       1.448  11.186  21.282  0.00  0.00    +0.000 OA
ENDROOT
BRANCH   1   9
ATOM      4  C   UNL     1      -2.166  11.409  17.773  0.00  0.00    +0.000 A 
ATOM      5  C   UNL     1      -2.998  12.138  18.619  0.00  0.00    +0.000 A 
ATOM      6  C   UNL     1      -2.653  12.357  19.946  0.00  0.00    +0.000 A 
ATOM      7  C   UNL     1      -1.467  11.839  20.487  0.00  0.00    +0.000 A 
ATOM      8  C   UNL     1      -1.139  12.287  21.884  0.00  0.00    +0.000 C 
ATOM      9  C   UNL     1      -0.664  11.017  19.664  0.00  0.00    +0.000 A 
ATOM     10  C   UNL     1      -1.025  10.798  18.313  0.00  0.00    +0.000 A 
BRANCH   4  14
ATOM     11  C   UNL     1      -3.072  10.289  14.280  0.00  0.00    +0.000 C 
ATOM     12  C   UNL     1      -2.975  10.173  15.775  0.00  0.00    +0.000 C 
ATOM     13  O   UNL     1      -3.358   9.148  16.332  0.00  0.00    +0.000 OA
ATOM     14  N   UNL     1      -2.440  11.303  16.388  0.00  0.00    +0.000 N 
ATOM     15  H   UNL     1      -2.402  12.154  15.841  0.00  0.00    +0.000 HD
ENDBRANCH   4  14
ENDBRANCH   1   9
BRANCH   1  16
ATOM     16  N   UNL     1       0.673   8.794  20.789  0.00  0.00    +0.000 N 
ATOM     17  C   UNL     1       0.051   8.714  22.133  0.00  0.00    +0.000 C 
BRANCH  16  18
ATOM     18  N   UNL     1       1.645   7.664  20.540  0.00  0.00    +0.000 NA
ATOM     19  C   UNL     1       1.217   6.464  20.768  0.00  0.00    +0.000 C 
BRANCH  19  20
ATOM     20  C   UNL     1       2.063   5.301  20.604  0.00  0.00    +0.000 A 
ATOM     21  C   UNL     1       2.185   4.120  21.362  0.00  0.00    +0.000 A 
ATOM     22  N   UNL     1       3.100   3.272  20.883  0.00  0.00    +0.000 NA
ATOM     23  N   UNL     1       3.600   3.884  19.784  0.00  0.00    +0.000 N 
ATOM     24  C   UNL     1       4.603   3.411  18.932  0.00  0.00    +0.000 A 
ATOM     25  C   UNL     1       4.995   4.144  17.876  0.00  0.00    +0.000 A 
ATOM     26  C   UNL     1       4.357   5.436  17.640  0.00  0.00    +0.000 A 
ATOM     27  C   UNL     1       3.387   5.899  18.453  0.00  0.00    +0.000 A 
ATOM     28  C   UNL     1       2.977   5.124  19.578  0.00  0.00    +0.000 A 
BRANCH  26  29
ATOM     29  C   UNL     1       4.838   6.261  16.458  0.00  0.00    +0.000 C 
ATOM     30  N   UNL     1       5.237   6.945  15.477  0.00  0.00    +0.000 NA
ENDBRANCH  26  29
ENDBRANCH  19  20
ENDBRANCH  16  18
ENDBRANCH   1  16
TORSDOF 6
ENDMDL
MODEL 7
REMARK VINA RESULT:      -7.7      2.787      4.187
REMARK  Name = 
REMARK  9 active torsions:
REMARK  status: ('A' for Active; 'I' for Inactive)
REMARK    1  A    between atoms: C_1  and  C_2
REMARK    2  A    between atoms: N_4  and  C_5
REMARK    3  A    between atoms: C_8  and  C_9
REMARK    4  A    between atoms: C_10  and  S_11
REMARK    5  A    between atoms: S_11  and  N_14
REMARK    6  A    between atoms: N_14  and  C_15
REMARK    7  A    between atoms: N_14  and  N_16
REMARK    8  A    between atoms: C_17  and  C_18
REMARK    9  A    between atoms: C_24  and  C_25
REMARK                            x       y       z     vdW  Elec       q    Type
REMARK                         _______ _______ _______ _____ _____    ______ ____
ROOT
ATOM      1  S   UNL     1       2.069   5.404  18.370  0.00  0.00    +0.000 S 
ATOM      2  O   UNL     1       1.609   6.658  17.803  0.00  0.00    +0.000 OA
ATOM      3  O   UNL     1       1.301   4.191  18.173  0.00  0.00    +0.000 OA
ENDROOT
BRANCH   1   9
ATOM      4  C   UNL     1       5.849   6.279  17.186  0.00  0.00    +0.000 A 
ATOM      5  C   UNL     1       6.287   5.090  16.610  0.00  0.00    +0.000 A 
ATOM      6  C   UNL     1       5.459   3.976  16.554  0.00  0.00    +0.000 A 
ATOM      7  C   UNL     1       4.163   4.003  17.088  0.00  0.00    +0.000 A 
ATOM      8  C   UNL     1       3.322   2.787  16.815  0.00  0.00    +0.000 C 
ATOM      9  C   UNL     1       3.744   5.173  17.760  0.00  0.00    +0.000 A 
ATOM     10  C   UNL     1       4.595   6.303  17.814  0.00  0.00    +0.000 A 
BRANCH   4  14
ATOM     11  C   UNL     1       8.327   9.082  17.720  0.00  0.00    +0.000 C 
ATOM     12  C   UNL     1       7.738   7.715  17.926  0.00  0.00    +0.000 C 
ATOM     13  O   UNL     1       8.245   6.950  18.743  0.00  0.00    +0.000 OA
ATOM     14  N   UNL     1       6.632   7.458  17.120  0.00  0.00    +0.000 N 
ATOM     15  H   UNL     1       6.481   8.072  16.330  0.00  0.00    +0.000 HD
ENDBRANCH   4  14
ENDBRANCH   1   9
BRANCH   1  16
ATOM     16  N   UNL     1       2.211   5.623  20.092  0.00  0.00    +0.000 N 
ATOM     17  C   UNL     1       2.457   4.393  20.884  0.00  0.00    +0.000 C 
BRANCH  16  18
ATOM     18  N   UNL     1       1.369   6.628  20.844  0.00  0.00    +0.000 NA
ATOM     19  C   UNL     1       1.651   7.878  20.663  0.00  0.00    +0.000 C 
BRANCH  19  20
ATOM     20  C   UNL     1       0.943   8.935  21.354  0.00  0.00    +0.000 A 
ATOM     21  C   UNL     1       0.941   9.330  22.707  0.00  0.00    +0.000 A 
ATOM     22  N   UNL     1       0.134  10.365  22.958  0.00  0.00    +0.000 NA
ATOM     23  N   UNL     1      -0.414  10.678  21.761  0.00  0.00    +0.000 N 
ATOM     24  C   UNL     1      -1.344  11.687  21.491  0.00  0.00    +0.000 A 
ATOM     25  C   UNL     1      -1.800  11.871  20.239  0.00  0.00    +0.000 A 
ATOM     26  C   UNL     1      -1.306  11.001  19.176  0.00  0.00    +0.000 A 
ATOM     27  C   UNL     1      -0.407  10.028  19.425  0.00  0.00    +0.000 A 
ATOM     28  C   UNL     1       0.070   9.829  20.754  0.00  0.00    +0.000 A 
BRANCH  26  29
ATOM     29  C   UNL     1      -1.857  11.208  17.775  0.00  0.00    +0.000 C 
ATOM     30  N   UNL     1      -2.314  11.379  16.613  0.00  0.00    +0.000 NA
ENDBRANCH  26  29
ENDBRANCH  19  20
ENDBRANCH  16  18
ENDBRANCH   1  16
TORSDOF 6
ENDMDL
MODEL 8
REMARK VINA RESULT:      -7.5      4.434      9.442
REMARK  Name = 
REMARK  9 active torsions:
REMARK  status: ('A' for Active; 'I' for Inactive)
REMARK    1  A    between atoms: C_1  and  C_2
REMARK    2  A    between atoms: N_4  and  C_5
REMARK    3  A    between atoms: C_8  and  C_9
REMARK    4  A    between atoms: C_10  and  S_11
REMARK    5  A    between atoms: S_11  and  N_14
REMARK    6  A    between atoms: N_14  and  C_15
REMARK    7  A    between atoms: N_14  and  N_16
REMARK    8  A    between atoms: C_17  and  C_18
REMARK    9  A    between atoms: C_24  and  C_25
REMARK                            x       y       z     vdW  Elec       q    Type
REMARK                         _______ _______ _______ _____ _____    ______ ____
ROOT
ATOM      1  S   UNL     1       0.578  11.126  21.263  0.00  0.00    +0.000 S 
ATOM      2  O   UNL     1       1.369  12.341  21.196  0.00  0.00    +0.000 OA
ATOM      3  O   UNL     1       0.526  10.359  22.491  0.00  0.00    +0.000 OA
ENDROOT
BRANCH   1   9
ATOM      4  C   UNL     1      -2.604  11.903  18.870  0.00  0.00    +0.000 A 
ATOM      5  C   UNL     1      -3.515  12.505  19.734  0.00  0.00    +0.000 A 
ATOM      6  C   UNL     1      -3.204  12.704  21.073  0.00  0.00    +0.000 A 
ATOM      7  C   UNL     1      -1.975  12.291  21.607  0.00  0.00    +0.000 A 
ATOM      8  C   UNL     1      -1.707  12.712  23.025  0.00  0.00    +0.000 C 
ATOM      9  C   UNL     1      -1.084  11.592  20.761  0.00  0.00    +0.000 A 
ATOM     10  C   UNL     1      -1.410  11.392  19.398  0.00  0.00    +0.000 A 
BRANCH   4  14
ATOM     11  C   UNL     1      -3.257  10.834  15.305  0.00  0.00    +0.000 C 
ATOM     12  C   UNL     1      -3.130  10.647  16.791  0.00  0.00    +0.000 C 
ATOM     13  O   UNL     1      -3.274   9.530  17.279  0.00  0.00    +0.000 OA
ATOM     14  N   UNL     1      -2.855  11.826  17.478  0.00  0.00    +0.000 N 
ATOM     15  H   UNL     1      -3.009  12.698  16.986  0.00  0.00    +0.000 HD
ENDBRANCH   4  14
ENDBRANCH   1   9
BRANCH   1  16
ATOM     16  N   UNL     1       1.166  10.044  20.031  0.00  0.00    +0.000 N 
ATOM     17  C   UNL     1       0.775  10.374  18.639  0.00  0.00    +0.000 C 
BRANCH  16  18
ATOM     18  N   UNL     1       1.270   8.553  20.257  0.00  0.00    +0.000 NA
ATOM     19  C   UNL     1       2.143   7.914  19.546  0.00  0.00    +0.000 C 
BRANCH  19  20
ATOM     20  C   UNL     1       2.312   6.479  19.643  0.00  0.00    +0.000 A 
ATOM     21  C   UNL     1       1.797   5.536  20.553  0.00  0.00    +0.000 A 
ATOM     22  N   UNL     1       2.198   4.285  20.308  0.00  0.00    +0.000 NA
ATOM     23  N   UNL     1       2.992   4.382  19.216  0.00  0.00    +0.000 N 
ATOM     24  C   UNL     1       3.674   3.347  18.569  0.00  0.00    +0.000 A 
ATOM     25  C   UNL     1       4.432   3.607  17.489  0.00  0.00    +0.000 A 
ATOM     26  C   UNL     1       4.527   4.983  17.011  0.00  0.00    +0.000 A 
ATOM     27  C   UNL     1       3.870   5.987  17.626  0.00  0.00    +0.000 A 
ATOM     28  C   UNL     1       3.073   5.711  18.776  0.00  0.00    +0.000 A 
BRANCH  26  29
ATOM     29  C   UNL     1       5.412   5.258  15.807  0.00  0.00    +0.000 C 
ATOM     30  N   UNL     1       6.147   5.484  14.808  0.00  0.00    +0.000 NA
ENDBRANCH  26  29
ENDBRANCH  19  20
ENDBRANCH  16  18
ENDBRANCH   1  16
TORSDOF 6
ENDMDL
MODEL 9
REMARK VINA RESULT:      -7.4      5.320      9.511
REMARK  Name = 
REMARK  9 active torsions:
REMARK  status: ('A' for Active; 'I' for Inactive)
REMARK    1  A    between atoms: C_1  and  C_2
REMARK    2  A    between atoms: N_4  and  C_5
REMARK    3  A    between atoms: C_8  and  C_9
REMARK    4  A    between atoms: C_10  and  S_11
REMARK    5  A    between atoms: S_11  and  N_14
REMARK    6  A    between atoms: N_14  and  C_15
REMARK    7  A    between atoms: N_14  and  N_16
REMARK    8  A    between atoms: C_17  and  C_18
REMARK    9  A    between atoms: C_24  and  C_25
REMARK                            x       y       z     vdW  Elec       q    Type
REMARK                         _______ _______ _______ _____ _____    ______ ____
ROOT
ATOM      1  S   UNL     1      -0.664  12.141  22.057  0.00  0.00    +0.000 S 
ATOM      2  O   UNL     1       0.355  12.860  21.315  0.00  0.00    +0.000 OA
ATOM      3  O   UNL     1      -0.979  12.524  23.418  0.00  0.00    +0.000 OA
ENDROOT
BRANCH   1   9
ATOM      4  C   UNL     1      -3.046  12.064  18.773  0.00  0.00    +0.000 A 
ATOM      5  C   UNL     1      -4.272  12.513  19.257  0.00  0.00    +0.000 A 
ATOM      6  C   UNL     1      -4.429  12.859  20.593  0.00  0.00    +0.000 A 
ATOM      7  C   UNL     1      -3.369  12.754  21.504  0.00  0.00    +0.000 A 
ATOM      8  C   UNL     1      -3.630  13.313  22.875  0.00  0.00    +0.000 C 
ATOM      9  C   UNL     1      -2.149  12.208  21.045  0.00  0.00    +0.000 A 
ATOM     10  C   UNL     1      -1.998  11.856  19.681  0.00  0.00    +0.000 A 
BRANCH   4  14
ATOM     11  C   UNL     1      -3.021  10.794  15.214  0.00  0.00    +0.000 C 
ATOM     12  C   UNL     1      -3.500  10.880  16.636  0.00  0.00    +0.000 C 
ATOM     13  O   UNL     1      -4.399  10.137  17.022  0.00  0.00    +0.000 OA
ATOM     14  N   UNL     1      -2.839  11.847  17.389  0.00  0.00    +0.000 N 
ATOM     15  H   UNL     1      -2.305  12.544  16.884  0.00  0.00    +0.000 HD
ENDBRANCH   4  14
ENDBRANCH   1   9
BRANCH   1  16
ATOM     16  N   UNL     1      -0.196  10.465  22.111  0.00  0.00    +0.000 N 
ATOM     17  C   UNL     1      -0.236   9.824  23.449  0.00  0.00    +0.000 C 
BRANCH  16  18
ATOM     18  N   UNL     1       0.916   9.915  21.247  0.00  0.00    +0.000 NA
ATOM     19  C   UNL     1       0.568   9.132  20.276  0.00  0.00    +0.000 C 
BRANCH  19  20
ATOM     20  C   UNL     1       1.541   8.512  19.401  0.00  0.00    +0.000 A 
ATOM     21  C   UNL     1       2.202   8.988  18.252  0.00  0.00    +0.000 A 
ATOM     22  N   UNL     1       3.037   8.095  17.711  0.00  0.00    +0.000 NA
ATOM     23  N   UNL     1       2.942   7.004  18.505  0.00  0.00    +0.000 N 
ATOM     24  C   UNL     1       3.610   5.784  18.354  0.00  0.00    +0.000 A 
ATOM     25  C   UNL     1       3.405   4.787  19.232  0.00  0.00    +0.000 A 
ATOM     26  C   UNL     1       2.477   5.002  20.337  0.00  0.00    +0.000 A 
ATOM     27  C   UNL     1       1.832   6.175  20.494  0.00  0.00    +0.000 A 
ATOM     28  C   UNL     1       2.043   7.230  19.558  0.00  0.00    +0.000 A 
BRANCH  26  29
ATOM     29  C   UNL     1       2.238   3.851  21.300  0.00  0.00    +0.000 C 
ATOM     30  N   UNL     1       2.040   2.896  22.098  0.00  0.00    +0.000 NA
ENDBRANCH  26  29
ENDBRANCH  19  20
ENDBRANCH  16  18
ENDBRANCH   1  16
TORSDOF 6
ENDMDL
