MODEL 1
REMARK VINA RESULT:      -7.6      0.000      0.000
REMARK  Name = 
REMARK  4 active torsions:
REMARK  status: ('A' for Active; 'I' for Inactive)
REMARK    1  A    between atoms: O_1  and  C_2
REMARK    2  A    between atoms: C_4  and  C_5
REMARK    3  A    between atoms: C_7  and  N_8
REMARK    4  A    between atoms: N_8  and  C_9
REMARK                            x       y       z     vdW  Elec       q    Type
REMARK                         _______ _______ _______ _____ _____    ______ ____
ROOT
ATOM      1  C   UNL     1       5.760   4.930  15.499  0.00  0.00    +0.000 A 
ATOM      2  C   UNL     1       5.364   4.567  16.777  0.00  0.00    +0.000 A 
ATOM      3  C   UNL     1       4.699   5.506  17.548  0.00  0.00    +0.000 A 
ATOM      4  N   UNL     1       4.518   6.759  17.118  0.00  0.00    +0.000 NA
ATOM      5  C   UNL     1       5.008   7.052  15.907  0.00  0.00    +0.000 A 
ATOM      6  N   UNL     1       5.607   6.197  15.064  0.00  0.00    +0.000 NA
ENDROOT
BRANCH   1   9
ATOM      7  C   UNL     1       6.399   3.683  12.255  0.00  0.00    +0.000 C 
ATOM      8  C   UNL     1       5.294   3.506  13.303  0.00  0.00    +0.000 C 
ATOM      9  C   UNL     1       6.294   3.919  14.416  0.00  0.00    +0.000 C 
ATOM     10  C   UNL     1       7.257   4.408  13.310  0.00  0.00    +0.000 C 
BRANCH   7  11
ATOM     11  O   UNL     1       6.952   2.466  11.717  0.00  0.00    +0.000 OA
ATOM     12  H   UNL     1       6.610   2.422  10.806  0.00  0.00    +0.000 HD
ENDBRANCH   7  11
ENDBRANCH   1   9
BRANCH   3  13
ATOM     13  N   UNL     1       4.202   5.097  18.792  0.00  0.00    +0.000 N 
ATOM     14  H   UNL     1       4.809   5.413  19.541  0.00  0.00    +0.000 HD
BRANCH  13  15
ATOM     15  C   UNL     1       2.764   5.254  19.054  0.00  0.00    +0.000 C 
ATOM     16  C   UNL     1       2.000   4.543  17.919  0.00  0.00    +0.000 C 
ATOM     17  C   UNL     1       1.981   3.015  17.958  0.00  0.00    +0.000 C 
ATOM     18  C   UNL     1       0.891   2.423  18.845  0.00  0.00    +0.000 C 
ATOM     19  C   UNL     1       1.023   2.719  20.331  0.00  0.00    +0.000 C 
ATOM     20  C   UNL     1       1.021   4.204  20.681  0.00  0.00    +0.000 C 
ATOM     21  C   UNL     1       2.387   4.857  20.488  0.00  0.00    +0.000 C 
ENDBRANCH  13  15
ENDBRANCH   3  13
TORSDOF 4
ENDMDL
MODEL 2
REMARK VINA RESULT:      -7.4      0.908      1.603
REMARK  Name = 
REMARK  4 active torsions:
REMARK  status: ('A' for Active; 'I' for Inactive)
REMARK    1  A    between atoms: O_1  and  C_2
REMARK    2  A    between atoms: C_4  and  C_5
REMARK    3  A    between atoms: C_7  and  N_8
REMARK    4  A    between atoms: N_8  and  C_9
REMARK                            x       y       z     vdW  Elec       q    Type
REMARK                         _______ _______ _______ _____ _____    ______ ____
ROOT
ATOM      1  C   UNL     1       5.828   4.787  15.573  0.00  0.00    +0.000 A 
ATOM      2  C   UNL     1       5.447   4.295  16.812  0.00  0.00    +0.000 A 
ATOM      3  C   UNL     1       4.734   5.130  17.657  0.00  0.00    +0.000 A 
ATOM      4  N   UNL     1       4.492   6.405  17.336  0.00  0.00    +0.000 NA
ATOM      5  C   UNL     1       4.971   6.826  16.158  0.00  0.00    +0.000 A 
ATOM      6  N   UNL     1       5.613   6.079  15.249  0.00  0.00    +0.000 NA
ENDROOT
BRANCH   1   9
ATOM      7  C   UNL     1       6.498   3.838  12.236  0.00  0.00    +0.000 C 
ATOM      8  C   UNL     1       5.428   3.502  13.280  0.00  0.00    +0.000 C 
ATOM      9  C   UNL     1       6.415   3.902  14.410  0.00  0.00    +0.000 C 
ATOM     10  C   UNL     1       7.319   4.542  13.332  0.00  0.00    +0.000 C 
BRANCH   7  11
ATOM     11  O   UNL     1       7.128   2.709  11.600  0.00  0.00    +0.000 OA
ATOM     12  H   UNL     1       7.853   3.093  11.076  0.00  0.00    +0.000 HD
ENDBRANCH   7  11
ENDBRANCH   1   9
BRANCH   3  13
ATOM     13  N   UNL     1       4.254   4.589  18.857  0.00  0.00    +0.000 N 
ATOM     14  H   UNL     1       3.819   5.309  19.424  0.00  0.00    +0.000 HD
BRANCH  13  15
ATOM     15  C   UNL     1       3.520   3.317  18.803  0.00  0.00    +0.000 C 
ATOM     16  C   UNL     1       3.594   2.674  20.202  0.00  0.00    +0.000 C 
ATOM     17  C   UNL     1       2.718   3.294  21.291  0.00  0.00    +0.000 C 
ATOM     18  C   UNL     1       1.281   2.782  21.309  0.00  0.00    +0.000 C 
ATOM     19  C   UNL     1       0.450   3.121  20.081  0.00  0.00    +0.000 C 
ATOM     20  C   UNL     1       1.018   2.589  18.768  0.00  0.00    +0.000 C 
ATOM     21  C   UNL     1       2.118   3.480  18.198  0.00  0.00    +0.000 C 
ENDBRANCH  13  15
ENDBRANCH   3  13
TORSDOF 4
ENDMDL
MODEL 3
REMARK VINA RESULT:      -7.3      1.357      2.323
REMARK  Name = 
REMARK  4 active torsions:
REMARK  status: ('A' for Active; 'I' for Inactive)
REMARK    1  A    between atoms: O_1  and  C_2
REMARK    2  A    between atoms: C_4  and  C_5
REMARK    3  A    between atoms: C_7  and  N_8
REMARK    4  A    between atoms: N_8  and  C_9
REMARK                            x       y       z     vdW  Elec       q    Type
REMARK                         _______ _______ _______ _____ _____    ______ ____
ROOT
ATOM      1  C   UNL     1       5.322   5.288  16.318  0.00  0.00    +0.000 A 
ATOM      2  C   UNL     1       5.557   4.288  17.248  0.00  0.00    +0.000 A 
ATOM      3  C   UNL     1       4.949   4.391  18.488  0.00  0.00    +0.000 A 
ATOM      4  N   UNL     1       4.226   5.464  18.823  0.00  0.00    +0.000 NA
ATOM      5  C   UNL     1       4.120   6.426  17.898  0.00  0.00    +0.000 A 
ATOM      6  N   UNL     1       4.616   6.388  16.652  0.00  0.00    +0.000 NA
ENDROOT
BRANCH   1   9
ATOM      7  C   UNL     1       6.737   3.860  13.412  0.00  0.00    +0.000 C 
ATOM      8  C   UNL     1       7.204   4.839  14.495  0.00  0.00    +0.000 C 
ATOM      9  C   UNL     1       5.725   5.198  14.798  0.00  0.00    +0.000 C 
ATOM     10  C   UNL     1       5.301   3.972  13.957  0.00  0.00    +0.000 C 
BRANCH   7  11
ATOM     11  O   UNL     1       6.934   4.291  12.051  0.00  0.00    +0.000 OA
ATOM     12  H   UNL     1       6.923   5.264  12.096  0.00  0.00    +0.000 HD
ENDBRANCH   7  11
ENDBRANCH   1   9
BRANCH   3  13
ATOM     13  N   UNL     1       5.099   3.321  19.381  0.00  0.00    +0.000 N 
ATOM     14  H   UNL     1       5.435   3.651  20.280  0.00  0.00    +0.000 HD
BRANCH  13  15
ATOM     15  C   UNL     1       4.029   2.317  19.451  0.00  0.00    +0.000 C 
ATOM     16  C   UNL     1       3.412   2.387  20.862  0.00  0.00    +0.000 C 
ATOM     17  C   UNL     1       2.501   3.580  21.155  0.00  0.00    +0.000 C 
ATOM     18  C   UNL     1       1.056   3.392  20.707  0.00  0.00    +0.000 C 
ATOM     19  C   UNL     1       0.846   3.266  19.206  0.00  0.00    +0.000 C 
ATOM     20  C   UNL     1       1.589   2.100  18.561  0.00  0.00    +0.000 C 
ATOM     21  C   UNL     1       3.053   2.423  18.270  0.00  0.00    +0.000 C 
ENDBRANCH  13  15
ENDBRANCH   3  13
TORSDOF 4
ENDMDL
MODEL 4
REMARK VINA RESULT:      -7.2      1.069      1.683
REMARK  Name = 
REMARK  4 active torsions:
REMARK  status: ('A' for Active; 'I' for Inactive)
REMARK    1  A    between atoms: O_1  and  C_2
REMARK    2  A    between atoms: C_4  and  C_5
REMARK    3  A    between atoms: C_7  and  N_8
REMARK    4  A    between atoms: N_8  and  C_9
REMARK                            x       y       z     vdW  Elec       q    Type
REMARK                         _______ _______ _______ _____ _____    ______ ____
ROOT
ATOM      1  C   UNL     1       6.398   4.995  15.629  0.00  0.00    +0.000 A 
ATOM      2  C   UNL     1       5.184   4.728  16.242  0.00  0.00    +0.000 A 
ATOM      3  C   UNL     1       4.718   5.624  17.190  0.00  0.00    +0.000 A 
ATOM      4  N   UNL     1       5.451   6.673  17.577  0.00  0.00    +0.000 NA
ATOM      5  C   UNL     1       6.651   6.811  16.998  0.00  0.00    +0.000 A 
ATOM      6  N   UNL     1       7.159   6.035  16.029  0.00  0.00    +0.000 NA
ENDROOT
BRANCH   1   9
ATOM      7  C   UNL     1       6.644   4.117  12.215  0.00  0.00    +0.000 C 
ATOM      8  C   UNL     1       5.880   3.588  13.433  0.00  0.00    +0.000 C 
ATOM      9  C   UNL     1       6.943   4.225  14.368  0.00  0.00    +0.000 C 
ATOM     10  C   UNL     1       7.476   5.014  13.150  0.00  0.00    +0.000 C 
BRANCH   7  11
ATOM     11  O   UNL     1       7.379   3.133  11.462  0.00  0.00    +0.000 OA
ATOM     12  H   UNL     1       8.281   3.494  11.398  0.00  0.00    +0.000 HD
ENDBRANCH   7  11
ENDBRANCH   1   9
BRANCH   3  13
ATOM     13  N   UNL     1       3.440   5.408  17.720  0.00  0.00    +0.000 N 
ATOM     14  H   UNL     1       2.743   5.927  17.195  0.00  0.00    +0.000 HD
BRANCH  13  15
ATOM     15  C   UNL     1       3.053   4.034  18.070  0.00  0.00    +0.000 C 
ATOM     16  C   UNL     1       3.657   3.714  19.452  0.00  0.00    +0.000 C 
ATOM     17  C   UNL     1       2.981   4.359  20.662  0.00  0.00    +0.000 C 
ATOM     18  C   UNL     1       1.774   3.592  21.191  0.00  0.00    +0.000 C 
ATOM     19  C   UNL     1       0.587   3.507  20.244  0.00  0.00    +0.000 C 
ATOM     20  C   UNL     1       0.893   2.841  18.906  0.00  0.00    +0.000 C 
ATOM     21  C   UNL     1       1.545   3.795  17.909  0.00  0.00    +0.000 C 
ENDBRANCH  13  15
ENDBRANCH   3  13
TORSDOF 4
ENDMDL
MODEL 5
REMARK VINA RESULT:      -7.2      1.614      2.111
REMARK  Name = 
REMARK  4 active torsions:
REMARK  status: ('A' for Active; 'I' for Inactive)
REMARK    1  A    between atoms: O_1  and  C_2
REMARK    2  A    between atoms: C_4  and  C_5
REMARK    3  A    between atoms: C_7  and  N_8
REMARK    4  A    between atoms: N_8  and  C_9
REMARK                            x       y       z     vdW  Elec       q    Type
REMARK                         _______ _______ _______ _____ _____    ______ ____
ROOT
ATOM      1  C   UNL     1       6.402   5.223  16.140  0.00  0.00    +0.000 A 
ATOM      2  C   UNL     1       5.638   4.576  17.098  0.00  0.00    +0.000 A 
ATOM      3  C   UNL     1       5.771   4.972  18.419  0.00  0.00    +0.000 A 
ATOM      4  N   UNL     1       6.673   5.889  18.783  0.00  0.00    +0.000 NA
ATOM      5  C   UNL     1       7.432   6.403  17.807  0.00  0.00    +0.000 A 
ATOM      6  N   UNL     1       7.333   6.130  16.497  0.00  0.00    +0.000 NA
ENDROOT
BRANCH   1   9
ATOM      7  C   UNL     1       6.753   3.763  12.941  0.00  0.00    +0.000 C 
ATOM      8  C   UNL     1       7.468   4.865  13.730  0.00  0.00    +0.000 C 
ATOM      9  C   UNL     1       6.190   5.071  14.586  0.00  0.00    +0.000 C 
ATOM     10  C   UNL     1       5.642   3.747  14.007  0.00  0.00    +0.000 C 
BRANCH   7  11
ATOM     11  O   UNL     1       6.345   4.115  11.605  0.00  0.00    +0.000 OA
ATOM     12  H   UNL     1       6.161   3.263  11.170  0.00  0.00    +0.000 HD
ENDBRANCH   7  11
ENDBRANCH   1   9
BRANCH   3  13
ATOM     13  N   UNL     1       4.914   4.394  19.364  0.00  0.00    +0.000 N 
ATOM     14  H   UNL     1       4.658   5.071  20.076  0.00  0.00    +0.000 HD
BRANCH  13  15
ATOM     15  C   UNL     1       3.806   3.557  18.881  0.00  0.00    +0.000 C 
ATOM     16  C   UNL     1       3.609   2.410  19.893  0.00  0.00    +0.000 C 
ATOM     17  C   UNL     1       2.940   2.773  21.219  0.00  0.00    +0.000 C 
ATOM     18  C   UNL     1       1.415   2.779  21.172  0.00  0.00    +0.000 C 
ATOM     19  C   UNL     1       0.792   3.832  20.270  0.00  0.00    +0.000 C 
ATOM     20  C   UNL     1       1.208   3.734  18.805  0.00  0.00    +0.000 C 
ATOM     21  C   UNL     1       2.561   4.385  18.531  0.00  0.00    +0.000 C 
ENDBRANCH  13  15
ENDBRANCH   3  13
TORSDOF 4
ENDMDL
MODEL 6
REMARK VINA RESULT:      -7.1      1.346      1.601
REMARK  Name = 
REMARK  4 active torsions:
REMARK  status: ('A' for Active; 'I' for Inactive)
REMARK    1  A    between atoms: O_1  and  C_2
REMARK    2  A    between atoms: C_4  and  C_5
REMARK    3  A    between atoms: C_7  and  N_8
REMARK    4  A    between atoms: N_8  and  C_9
REMARK                            x       y       z     vdW  Elec       q    Type
REMARK                         _______ _______ _______ _____ _____    ______ ____
ROOT
ATOM      1  C   UNL     1       6.423   5.102  15.802  0.00  0.00    +0.000 A 
ATOM      2  C   UNL     1       5.186   5.189  16.422  0.00  0.00    +0.000 A 
ATOM      3  C   UNL     1       4.965   6.238  17.299  0.00  0.00    +0.000 A 
ATOM      4  N   UNL     1       5.938   7.098  17.615  0.00  0.00    +0.000 NA
ATOM      5  C   UNL     1       7.129   6.894  17.038  0.00  0.00    +0.000 A 
ATOM      6  N   UNL     1       7.420   5.948  16.131  0.00  0.00    +0.000 NA
ENDROOT
BRANCH   1   9
ATOM      7  C   UNL     1       6.319   3.889  12.484  0.00  0.00    +0.000 C 
ATOM      8  C   UNL     1       5.537   3.625  13.776  0.00  0.00    +0.000 C 
ATOM      9  C   UNL     1       6.748   4.132  14.604  0.00  0.00    +0.000 C 
ATOM     10  C   UNL     1       7.351   4.694  13.296  0.00  0.00    +0.000 C 
BRANCH   7  11
ATOM     11  O   UNL     1       6.819   2.720  11.806  0.00  0.00    +0.000 OA
ATOM     12  H   UNL     1       7.536   3.053  11.237  0.00  0.00    +0.000 HD
ENDBRANCH   7  11
ENDBRANCH   1   9
BRANCH   3  13
ATOM     13  N   UNL     1       3.678   6.383  17.833  0.00  0.00    +0.000 N 
ATOM     14  H   UNL     1       2.994   6.491  17.091  0.00  0.00    +0.000 HD
BRANCH  13  15
ATOM     15  C   UNL     1       3.271   5.485  18.923  0.00  0.00    +0.000 C 
ATOM     16  C   UNL     1       1.918   4.857  18.532  0.00  0.00    +0.000 C 
ATOM     17  C   UNL     1       1.951   3.767  17.460  0.00  0.00    +0.000 C 
ATOM     18  C   UNL     1       2.262   2.372  17.992  0.00  0.00    +0.000 C 
ATOM     19  C   UNL     1       3.649   2.193  18.589  0.00  0.00    +0.000 C 
ATOM     20  C   UNL     1       3.954   3.116  19.765  0.00  0.00    +0.000 C 
ATOM     21  C   UNL     1       4.388   4.511  19.323  0.00  0.00    +0.000 C 
ENDBRANCH  13  15
ENDBRANCH   3  13
TORSDOF 4
ENDMDL
MODEL 7
REMARK VINA RESULT:      -7.0      1.248      1.482
REMARK  Name = 
REMARK  4 active torsions:
REMARK  status: ('A' for Active; 'I' for Inactive)
REMARK    1  A    between atoms: O_1  and  C_2
REMARK    2  A    between atoms: C_4  and  C_5
REMARK    3  A    between atoms: C_7  and  N_8
REMARK    4  A    between atoms: N_8  and  C_9
REMARK                            x       y       z     vdW  Elec       q    Type
REMARK                         _______ _______ _______ _____ _____    ______ ____
ROOT
ATOM      1  C   UNL     1       6.441   5.169  15.862  0.00  0.00    +0.000 A 
ATOM      2  C   UNL     1       5.600   4.476  16.719  0.00  0.00    +0.000 A 
ATOM      3  C   UNL     1       5.612   4.813  18.062  0.00  0.00    +0.000 A 
ATOM      4  N   UNL     1       6.470   5.716  18.547  0.00  0.00    +0.000 NA
ATOM      5  C   UNL     1       7.309   6.277  17.667  0.00  0.00    +0.000 A 
ATOM      6  N   UNL     1       7.329   6.063  16.342  0.00  0.00    +0.000 NA
ENDROOT
BRANCH   1   9
ATOM      7  C   UNL     1       7.174   3.921  12.638  0.00  0.00    +0.000 C 
ATOM      8  C   UNL     1       7.726   5.032  13.538  0.00  0.00    +0.000 C 
ATOM      9  C   UNL     1       6.370   5.087  14.291  0.00  0.00    +0.000 C 
ATOM     10  C   UNL     1       5.985   3.757  13.603  0.00  0.00    +0.000 C 
BRANCH   7  11
ATOM     11  O   UNL     1       6.847   4.313  11.291  0.00  0.00    +0.000 OA
ATOM     12  H   UNL     1       7.499   3.852  10.734  0.00  0.00    +0.000 HD
ENDBRANCH   7  11
ENDBRANCH   1   9
BRANCH   3  13
ATOM     13  N   UNL     1       4.679   4.189  18.901  0.00  0.00    +0.000 N 
ATOM     14  H   UNL     1       5.101   3.955  19.794  0.00  0.00    +0.000 HD
BRANCH  13  15
ATOM     15  C   UNL     1       3.328   4.760  18.987  0.00  0.00    +0.000 C 
ATOM     16  C   UNL     1       2.470   4.105  17.886  0.00  0.00    +0.000 C 
ATOM     17  C   UNL     1       2.025   2.663  18.129  0.00  0.00    +0.000 C 
ATOM     18  C   UNL     1       0.760   2.529  18.970  0.00  0.00    +0.000 C 
ATOM     19  C   UNL     1       0.875   3.012  20.407  0.00  0.00    +0.000 C 
ATOM     20  C   UNL     1       1.262   4.481  20.550  0.00  0.00    +0.000 C 
ATOM     21  C   UNL     1       2.765   4.710  20.414  0.00  0.00    +0.000 C 
ENDBRANCH  13  15
ENDBRANCH   3  13
TORSDOF 4
ENDMDL
MODEL 8
REMARK VINA RESULT:      -7.0      1.772      2.210
REMARK  Name = 
REMARK  4 active torsions:
REMARK  status: ('A' for Active; 'I' for Inactive)
REMARK    1  A    between atoms: O_1  and  C_2
REMARK    2  A    between atoms: C_4  and  C_5
REMARK    3  A    between atoms: C_7  and  N_8
REMARK    4  A    between atoms: N_8  and  C_9
REMARK                            x       y       z     vdW  Elec       q    Type
REMARK                         _______ _______ _______ _____ _____    ______ ____
ROOT
ATOM      1  C   UNL     1       6.486   4.504  15.561  0.00  0.00    +0.000 A 
ATOM      2  C   UNL     1       5.476   3.819  16.219  0.00  0.00    +0.000 A 
ATOM      3  C   UNL     1       5.501   3.786  17.603  0.00  0.00    +0.000 A 
ATOM      4  N   UNL     1       6.512   4.321  18.294  0.00  0.00    +0.000 NA
ATOM      5  C   UNL     1       7.492   4.888  17.579  0.00  0.00    +0.000 A 
ATOM      6  N   UNL     1       7.525   5.024  16.245  0.00  0.00    +0.000 NA
ENDROOT
BRANCH   1   9
ATOM      7  C   UNL     1       7.419   4.239  12.163  0.00  0.00    +0.000 C 
ATOM      8  C   UNL     1       7.847   5.101  13.356  0.00  0.00    +0.000 C 
ATOM      9  C   UNL     1       6.469   4.847  14.023  0.00  0.00    +0.000 C 
ATOM     10  C   UNL     1       6.220   3.730  12.985  0.00  0.00    +0.000 C 
BRANCH   7  11
ATOM     11  O   UNL     1       7.100   4.956  10.955  0.00  0.00    +0.000 OA
ATOM     12  H   UNL     1       6.701   4.289  10.369  0.00  0.00    +0.000 HD
ENDBRANCH   7  11
ENDBRANCH   1   9
BRANCH   3  13
ATOM     13  N   UNL     1       4.417   3.191  18.262  0.00  0.00    +0.000 N 
ATOM     14  H   UNL     1       4.412   2.188  18.106  0.00  0.00    +0.000 HD
BRANCH  13  15
ATOM     15  C   UNL     1       4.130   3.602  19.643  0.00  0.00    +0.000 C 
ATOM     16  C   UNL     1       3.228   4.851  19.583  0.00  0.00    +0.000 C 
ATOM     17  C   UNL     1       1.766   4.623  19.200  0.00  0.00    +0.000 C 
ATOM     18  C   UNL     1       0.865   4.228  20.366  0.00  0.00    +0.000 C 
ATOM     19  C   UNL     1       1.179   2.886  21.008  0.00  0.00    +0.000 C 
ATOM     20  C   UNL     1       2.591   2.771  21.574  0.00  0.00    +0.000 C 
ATOM     21  C   UNL     1       3.628   2.436  20.506  0.00  0.00    +0.000 C 
ENDBRANCH  13  15
ENDBRANCH   3  13
TORSDOF 4
ENDMDL
MODEL 9
REMARK VINA RESULT:      -6.9      4.904      7.116
REMARK  Name = 
REMARK  4 active torsions:
REMARK  status: ('A' for Active; 'I' for Inactive)
REMARK    1  A    between atoms: O_1  and  C_2
REMARK    2  A    between atoms: C_4  and  C_5
REMARK    3  A    between atoms: C_7  and  N_8
REMARK    4  A    between atoms: N_8  and  C_9
REMARK                            x       y       z     vdW  Elec       q    Type
REMARK                         _______ _______ _______ _____ _____    ______ ____
ROOT
ATOM      1  C   UNL     1       1.769   7.824  20.077  0.00  0.00    +0.000 A 
ATOM      2  C   UNL     1       2.497   6.653  19.934  0.00  0.00    +0.000 A 
ATOM      3  C   UNL     1       3.202   6.459  18.758  0.00  0.00    +0.000 A 
ATOM      4  N   UNL     1       3.119   7.327  17.745  0.00  0.00    +0.000 NA
ATOM      5  C   UNL     1       2.325   8.389  17.931  0.00  0.00    +0.000 A 
ATOM      6  N   UNL     1       1.657   8.695  19.053  0.00  0.00    +0.000 NA
ENDROOT
BRANCH   1   9
ATOM      7  C   UNL     1      -0.297   9.777  22.176  0.00  0.00    +0.000 C 
ATOM      8  C   UNL     1       1.160   9.837  21.704  0.00  0.00    +0.000 C 
ATOM      9  C   UNL     1       1.127   8.309  21.431  0.00  0.00    +0.000 C 
ATOM     10  C   UNL     1      -0.411   8.360  21.582  0.00  0.00    +0.000 C 
BRANCH   7  11
ATOM     11  O   UNL     1      -0.500   9.886  23.598  0.00  0.00    +0.000 OA
ATOM     12  H   UNL     1       0.362  10.173  23.949  0.00  0.00    +0.000 HD
ENDBRANCH   7  11
ENDBRANCH   1   9
BRANCH   3  13
ATOM     13  N   UNL     1       4.025   5.329  18.668  0.00  0.00    +0.000 N 
ATOM     14  H   UNL     1       4.700   5.317  19.426  0.00  0.00    +0.000 HD
BRANCH  13  15
ATOM     15  C   UNL     1       3.397   4.031  18.379  0.00  0.00    +0.000 C 
ATOM     16  C   UNL     1       3.758   3.070  19.529  0.00  0.00    +0.000 C 
ATOM     17  C   UNL     1       3.029   3.283  20.856  0.00  0.00    +0.000 C 
ATOM     18  C   UNL     1       1.663   2.611  20.938  0.00  0.00    +0.000 C 
ATOM     19  C   UNL     1       0.613   3.143  19.975  0.00  0.00    +0.000 C 
ATOM     20  C   UNL     1       0.993   3.033  18.502  0.00  0.00    +0.000 C 
ATOM     21  C   UNL     1       1.906   4.168  18.043  0.00  0.00    +0.000 C 
ENDBRANCH  13  15
ENDBRANCH   3  13
TORSDOF 4
ENDMDL
