MODEL 1
REMARK VINA RESULT:      -8.4      0.000      0.000
REMARK  Name = 
REMARK  11 active torsions:
REMARK  status: ('A' for Active; 'I' for Inactive)
REMARK    1  A    between atoms: C_1  and  C_2
REMARK    2  A    between atoms: C_2  and  C_3
REMARK    3  A    between atoms: C_2  and  C_4
REMARK    4  A    between atoms: C_2  and  C_5
REMARK    5  A    between atoms: C_7  and  C_8
REMARK    6  A    between atoms: C_9  and  C_10
REMARK    7  A    between atoms: C_18  and  C_19
REMARK    8  A    between atoms: C_19  and  C_20
REMARK    9  A    between atoms: C_19  and  C_21
REMARK   10  A    between atoms: C_19  and  C_22
REMARK   11  A    between atoms: C_23  and  O_24
REMARK                            x       y       z     vdW  Elec       q    Type
REMARK                         _______ _______ _______ _____ _____    ______ ____
ROOT
ATOM      1  C   UNL     1       3.150   4.115  19.430  0.00  0.00    +0.000 A 
ATOM      2  C   UNL     1       2.523   5.301  19.860  0.00  0.00    +0.000 A 
ATOM      3  C   UNL     1       2.756   6.535  19.243  0.00  0.00    +0.000 A 
ATOM      4  C   UNL     1       3.636   6.594  18.157  0.00  0.00    +0.000 A 
ATOM      5  C   UNL     1       4.264   5.446  17.634  0.00  0.00    +0.000 A 
ATOM      6  C   UNL     1       3.964   4.221  18.278  0.00  0.00    +0.000 A 
ENDROOT
BRANCH   1   8
ATOM      7  C   UNL     1       1.987   1.888  19.363  0.00  0.00    +0.000 C 
ATOM      8  C   UNL     1       2.912   2.790  20.202  0.00  0.00    +0.000 C 
ATOM      9  C   UNL     1       2.235   3.028  21.580  0.00  0.00    +0.000 C 
ATOM     10  C   UNL     1       4.204   2.002  20.537  0.00  0.00    +0.000 C 
ENDBRANCH   1   8
BRANCH   5  11
ATOM     11  C   UNL     1       5.289   5.602  16.477  0.00  0.00    +0.000 C 
ATOM     12  C   UNL     1       4.985   6.947  15.779  0.00  0.00    +0.000 C 
ATOM     13  C   UNL     1       6.774   5.596  16.910  0.00  0.00    +0.000 C 
ATOM     14  C   UNL     1       5.182   4.484  15.407  0.00  0.00    +0.000 C 
ENDBRANCH   5  11
BRANCH   3  15
ATOM     15  C   UNL     1       2.016   7.717  19.722  0.00  0.00    +0.000 C 
ATOM     16  C   UNL     1       1.406   7.816  20.915  0.00  0.00    +0.000 C 
BRANCH  16  17
ATOM     17  C   UNL     1       0.677   9.009  21.376  0.00  0.00    +0.000 A 
ATOM     18  C   UNL     1      -0.020   9.040  22.593  0.00  0.00    +0.000 A 
ATOM     19  C   UNL     1      -0.671  10.203  23.015  0.00  0.00    +0.000 A 
ATOM     20  C   UNL     1      -0.620  11.349  22.228  0.00  0.00    +0.000 A 
ATOM     21 CL   UNL     1      -1.411  12.784  22.753  0.00  0.00    +0.000 Cl
ATOM     22  C   UNL     1       0.079  11.344  21.025  0.00  0.00    +0.000 A 
ATOM     23  C   UNL     1       0.727  10.178  20.601  0.00  0.00    +0.000 A 
ENDBRANCH  16  17
ENDBRANCH   3  15
BRANCH   6  24
ATOM     24  O   UNL     1       4.450   3.064  17.748  0.00  0.00    +0.000 OA
ATOM     25  H   UNL     1       3.939   2.348  18.157  0.00  0.00    +0.000 HD
ENDBRANCH   6  24
TORSDOF 5
ENDMDL
MODEL 2
REMARK VINA RESULT:      -8.4      0.284      3.870
REMARK  Name = 
REMARK  11 active torsions:
REMARK  status: ('A' for Active; 'I' for Inactive)
REMARK    1  A    between atoms: C_1  and  C_2
REMARK    2  A    between atoms: C_2  and  C_3
REMARK    3  A    between atoms: C_2  and  C_4
REMARK    4  A    between atoms: C_2  and  C_5
REMARK    5  A    between atoms: C_7  and  C_8
REMARK    6  A    between atoms: C_9  and  C_10
REMARK    7  A    between atoms: C_18  and  C_19
REMARK    8  A    between atoms: C_19  and  C_20
REMARK    9  A    between atoms: C_19  and  C_21
REMARK   10  A    between atoms: C_19  and  C_22
REMARK   11  A    between atoms: C_23  and  O_24
REMARK                            x       y       z     vdW  Elec       q    Type
REMARK                         _______ _______ _______ _____ _____    ______ ____
ROOT
ATOM      1  C   UNL     1       4.405   5.565  17.765  0.00  0.00    +0.000 A 
ATOM      2  C   UNL     1       3.634   6.647  18.233  0.00  0.00    +0.000 A 
ATOM      3  C   UNL     1       2.724   6.514  19.289  0.00  0.00    +0.000 A 
ATOM      4  C   UNL     1       2.581   5.267  19.907  0.00  0.00    +0.000 A 
ATOM      5  C   UNL     1       3.351   4.148  19.532  0.00  0.00    +0.000 A 
ATOM      6  C   UNL     1       4.278   4.351  18.481  0.00  0.00    +0.000 A 
ENDROOT
BRANCH   1   8
ATOM      7  C   UNL     1       4.899   7.012  15.770  0.00  0.00    +0.000 C 
ATOM      8  C   UNL     1       5.339   5.753  16.541  0.00  0.00    +0.000 C 
ATOM      9  C   UNL     1       5.281   4.544  15.567  0.00  0.00    +0.000 C 
ATOM     10  C   UNL     1       6.842   5.890  16.897  0.00  0.00    +0.000 C 
ENDBRANCH   1   8
BRANCH   5  11
ATOM     11  C   UNL     1       3.078   2.778  20.212  0.00  0.00    +0.000 C 
ATOM     12  C   UNL     1       2.238   1.940  19.223  0.00  0.00    +0.000 C 
ATOM     13  C   UNL     1       4.342   1.971  20.592  0.00  0.00    +0.000 C 
ATOM     14  C   UNL     1       2.270   2.898  21.531  0.00  0.00    +0.000 C 
ENDBRANCH   5  11
BRANCH   3  15
ATOM     15  C   UNL     1       1.998   7.711  19.751  0.00  0.00    +0.000 C 
ATOM     16  C   UNL     1       1.314   7.803  20.903  0.00  0.00    +0.000 C 
BRANCH  16  17
ATOM     17  C   UNL     1       0.600   9.011  21.349  0.00  0.00    +0.000 A 
ATOM     18  C   UNL     1       0.345  10.093  20.493  0.00  0.00    +0.000 A 
ATOM     19  C   UNL     1      -0.368  11.209  20.942  0.00  0.00    +0.000 A 
ATOM     20  C   UNL     1      -0.841  11.247  22.249  0.00  0.00    +0.000 A 
ATOM     21 CL   UNL     1      -1.728  12.615  22.798  0.00  0.00    +0.000 Cl
ATOM     22  C   UNL     1      -0.611  10.179  23.110  0.00  0.00    +0.000 A 
ATOM     23  C   UNL     1       0.106   9.064  22.661  0.00  0.00    +0.000 A 
ENDBRANCH  16  17
ENDBRANCH   3  15
BRANCH   6  24
ATOM     24  O   UNL     1       5.129   3.339  18.152  0.00  0.00    +0.000 OA
ATOM     25  H   UNL     1       5.329   3.455  17.210  0.00  0.00    +0.000 HD
ENDBRANCH   6  24
TORSDOF 5
ENDMDL
MODEL 3
REMARK VINA RESULT:      -8.4      0.271      3.771
REMARK  Name = 
REMARK  11 active torsions:
REMARK  status: ('A' for Active; 'I' for Inactive)
REMARK    1  A    between atoms: C_1  and  C_2
REMARK    2  A    between atoms: C_2  and  C_3
REMARK    3  A    between atoms: C_2  and  C_4
REMARK    4  A    between atoms: C_2  and  C_5
REMARK    5  A    between atoms: C_7  and  C_8
REMARK    6  A    between atoms: C_9  and  C_10
REMARK    7  A    between atoms: C_18  and  C_19
REMARK    8  A    between atoms: C_19  and  C_20
REMARK    9  A    between atoms: C_19  and  C_21
REMARK   10  A    between atoms: C_19  and  C_22
REMARK   11  A    between atoms: C_23  and  O_24
REMARK                            x       y       z     vdW  Elec       q    Type
REMARK                         _______ _______ _______ _____ _____    ______ ____
ROOT
ATOM      1  C   UNL     1       4.341   5.570  17.879  0.00  0.00    +0.000 A 
ATOM      2  C   UNL     1       3.596   6.662  18.366  0.00  0.00    +0.000 A 
ATOM      3  C   UNL     1       2.690   6.535  19.425  0.00  0.00    +0.000 A 
ATOM      4  C   UNL     1       2.523   5.283  20.026  0.00  0.00    +0.000 A 
ATOM      5  C   UNL     1       3.267   4.152  19.632  0.00  0.00    +0.000 A 
ATOM      6  C   UNL     1       4.192   4.350  18.578  0.00  0.00    +0.000 A 
ENDROOT
BRANCH   1   8
ATOM      7  C   UNL     1       6.712   5.983  17.153  0.00  0.00    +0.000 C 
ATOM      8  C   UNL     1       5.273   5.756  16.652  0.00  0.00    +0.000 C 
ATOM      9  C   UNL     1       4.864   6.977  15.784  0.00  0.00    +0.000 C 
ATOM     10  C   UNL     1       5.276   4.562  15.663  0.00  0.00    +0.000 C 
ENDBRANCH   1   8
BRANCH   5  11
ATOM     11  C   UNL     1       2.968   2.779  20.294  0.00  0.00    +0.000 C 
ATOM     12  C   UNL     1       2.157   1.950  19.274  0.00  0.00    +0.000 C 
ATOM     13  C   UNL     1       4.216   1.965  20.709  0.00  0.00    +0.000 C 
ATOM     14  C   UNL     1       2.119   2.893  21.587  0.00  0.00    +0.000 C 
ENDBRANCH   5  11
BRANCH   3  15
ATOM     15  C   UNL     1       1.993   7.740  19.908  0.00  0.00    +0.000 C 
ATOM     16  C   UNL     1       1.230   7.802  21.012  0.00  0.00    +0.000 C 
BRANCH  16  17
ATOM     17  C   UNL     1       0.547   9.019  21.480  0.00  0.00    +0.000 A 
ATOM     18  C   UNL     1      -0.192   9.056  22.672  0.00  0.00    +0.000 A 
ATOM     19  C   UNL     1      -0.798  10.240  23.102  0.00  0.00    +0.000 A 
ATOM     20  C   UNL     1      -0.659  11.402  22.349  0.00  0.00    +0.000 A 
ATOM     21 CL   UNL     1      -1.395  12.862  22.886  0.00  0.00    +0.000 Cl
ATOM     22  C   UNL     1       0.082  11.390  21.172  0.00  0.00    +0.000 A 
ATOM     23  C   UNL     1       0.685  10.204  20.739  0.00  0.00    +0.000 A 
ENDBRANCH  16  17
ENDBRANCH   3  15
BRANCH   6  24
ATOM     24  O   UNL     1       5.019   3.325  18.231  0.00  0.00    +0.000 OA
ATOM     25  H   UNL     1       5.514   3.097  19.034  0.00  0.00    +0.000 HD
ENDBRANCH   6  24
TORSDOF 5
ENDMDL
MODEL 4
REMARK VINA RESULT:      -8.3      2.027      2.407
REMARK  Name = 
REMARK  11 active torsions:
REMARK  status: ('A' for Active; 'I' for Inactive)
REMARK    1  A    between atoms: C_1  and  C_2
REMARK    2  A    between atoms: C_2  and  C_3
REMARK    3  A    between atoms: C_2  and  C_4
REMARK    4  A    between atoms: C_2  and  C_5
REMARK    5  A    between atoms: C_7  and  C_8
REMARK    6  A    between atoms: C_9  and  C_10
REMARK    7  A    between atoms: C_18  and  C_19
REMARK    8  A    between atoms: C_19  and  C_20
REMARK    9  A    between atoms: C_19  and  C_21
REMARK   10  A    between atoms: C_19  and  C_22
REMARK   11  A    between atoms: C_23  and  O_24
REMARK                            x       y       z     vdW  Elec       q    Type
REMARK                         _______ _______ _______ _____ _____    ______ ____
ROOT
ATOM      1  C   UNL     1       3.124   4.609  18.532  0.00  0.00    +0.000 A 
ATOM      2  C   UNL     1       2.578   5.907  18.502  0.00  0.00    +0.000 A 
ATOM      3  C   UNL     1       3.281   7.001  17.983  0.00  0.00    +0.000 A 
ATOM      4  C   UNL     1       4.566   6.799  17.469  0.00  0.00    +0.000 A 
ATOM      5  C   UNL     1       5.163   5.523  17.415  0.00  0.00    +0.000 A 
ATOM      6  C   UNL     1       4.392   4.450  17.924  0.00  0.00    +0.000 A 
ENDROOT
BRANCH   1   8
ATOM      7  C   UNL     1       1.076   4.033  19.870  0.00  0.00    +0.000 C 
ATOM      8  C   UNL     1       2.329   3.450  19.189  0.00  0.00    +0.000 C 
ATOM      9  C   UNL     1       3.163   2.704  20.267  0.00  0.00    +0.000 C 
ATOM     10  C   UNL     1       1.886   2.338  18.205  0.00  0.00    +0.000 C 
ENDBRANCH   1   8
BRANCH   5  11
ATOM     11  C   UNL     1       6.624   5.391  16.904  0.00  0.00    +0.000 C 
ATOM     12  C   UNL     1       7.198   6.821  16.793  0.00  0.00    +0.000 C 
ATOM     13  C   UNL     1       7.561   4.551  17.803  0.00  0.00    +0.000 C 
ATOM     14  C   UNL     1       6.725   4.735  15.501  0.00  0.00    +0.000 C 
ENDBRANCH   5  11
BRANCH   3  15
ATOM     15  C   UNL     1       2.613   8.315  17.941  0.00  0.00    +0.000 C 
ATOM     16  C   UNL     1       1.782   8.791  18.884  0.00  0.00    +0.000 C 
BRANCH  16  17
ATOM     17  C   UNL     1       1.131  10.110  18.825  0.00  0.00    +0.000 A 
ATOM     18  C   UNL     1      -0.231  10.289  19.109  0.00  0.00    +0.000 A 
ATOM     19  C   UNL     1      -0.807  11.563  19.078  0.00  0.00    +0.000 A 
ATOM     20  C   UNL     1      -0.022  12.670  18.773  0.00  0.00    +0.000 A 
ATOM     21 CL   UNL     1      -0.728  14.238  18.746  0.00  0.00    +0.000 Cl
ATOM     22  C   UNL     1       1.334  12.516  18.503  0.00  0.00    +0.000 A 
ATOM     23  C   UNL     1       1.909  11.240  18.530  0.00  0.00    +0.000 A 
ENDBRANCH  16  17
ENDBRANCH   3  15
BRANCH   6  24
ATOM     24  O   UNL     1       4.869   3.181  17.795  0.00  0.00    +0.000 OA
ATOM     25  H   UNL     1       4.088   2.609  17.718  0.00  0.00    +0.000 HD
ENDBRANCH   6  24
TORSDOF 5
ENDMDL
MODEL 5
REMARK VINA RESULT:      -8.3      2.068      4.335
REMARK  Name = 
REMARK  11 active torsions:
REMARK  status: ('A' for Active; 'I' for Inactive)
REMARK    1  A    between atoms: C_1  and  C_2
REMARK    2  A    between atoms: C_2  and  C_3
REMARK    3  A    between atoms: C_2  and  C_4
REMARK    4  A    between atoms: C_2  and  C_5
REMARK    5  A    between atoms: C_7  and  C_8
REMARK    6  A    between atoms: C_9  and  C_10
REMARK    7  A    between atoms: C_18  and  C_19
REMARK    8  A    between atoms: C_19  and  C_20
REMARK    9  A    between atoms: C_19  and  C_21
REMARK   10  A    between atoms: C_19  and  C_22
REMARK   11  A    between atoms: C_23  and  O_24
REMARK                            x       y       z     vdW  Elec       q    Type
REMARK                         _______ _______ _______ _____ _____    ______ ____
ROOT
ATOM      1  C   UNL     1       4.411   5.341  17.475  0.00  0.00    +0.000 A 
ATOM      2  C   UNL     1       3.772   6.572  17.723  0.00  0.00    +0.000 A 
ATOM      3  C   UNL     1       2.715   6.695  18.632  0.00  0.00    +0.000 A 
ATOM      4  C   UNL     1       2.282   5.559  19.324  0.00  0.00    +0.000 A 
ATOM      5  C   UNL     1       2.901   4.302  19.172  0.00  0.00    +0.000 A 
ATOM      6  C   UNL     1       3.986   4.246  18.264  0.00  0.00    +0.000 A 
ENDROOT
BRANCH   1   8
ATOM      7  C   UNL     1       5.377   6.438  15.430  0.00  0.00    +0.000 C 
ATOM      8  C   UNL     1       5.526   5.251  16.400  0.00  0.00    +0.000 C 
ATOM      9  C   UNL     1       5.440   3.938  15.574  0.00  0.00    +0.000 C 
ATOM     10  C   UNL     1       6.968   5.254  16.970  0.00  0.00    +0.000 C 
ENDBRANCH   1   8
BRANCH   5  11
ATOM     11  C   UNL     1       2.313   3.072  19.915  0.00  0.00    +0.000 C 
ATOM     12  C   UNL     1       1.074   3.562  20.697  0.00  0.00    +0.000 C 
ATOM     13  C   UNL     1       1.887   1.897  19.004  0.00  0.00    +0.000 C 
ATOM     14  C   UNL     1       3.296   2.445  20.939  0.00  0.00    +0.000 C 
ENDBRANCH   5  11
BRANCH   3  15
ATOM     15  C   UNL     1       2.140   8.031  18.871  0.00  0.00    +0.000 C 
ATOM     16  C   UNL     1       1.824   8.920  17.914  0.00  0.00    +0.000 C 
BRANCH  16  17
ATOM     17  C   UNL     1       1.244  10.247  18.175  0.00  0.00    +0.000 A 
ATOM     18  C   UNL     1      -0.124  10.434  18.422  0.00  0.00    +0.000 A 
ATOM     19  C   UNL     1      -0.633  11.706  18.701  0.00  0.00    +0.000 A 
ATOM     20  C   UNL     1       0.224  12.800  18.747  0.00  0.00    +0.000 A 
ATOM     21 CL   UNL     1      -0.401  14.363  19.102  0.00  0.00    +0.000 Cl
ATOM     22  C   UNL     1       1.587  12.634  18.519  0.00  0.00    +0.000 A 
ATOM     23  C   UNL     1       2.095  11.361  18.235  0.00  0.00    +0.000 A 
ENDBRANCH  16  17
ENDBRANCH   3  15
BRANCH   6  24
ATOM     24  O   UNL     1       4.695   3.088  18.160  0.00  0.00    +0.000 OA
ATOM     25  H   UNL     1       4.055   2.370  18.288  0.00  0.00    +0.000 HD
ENDBRANCH   6  24
TORSDOF 5
ENDMDL
MODEL 6
REMARK VINA RESULT:      -8.3      0.300      3.920
REMARK  Name = 
REMARK  11 active torsions:
REMARK  status: ('A' for Active; 'I' for Inactive)
REMARK    1  A    between atoms: C_1  and  C_2
REMARK    2  A    between atoms: C_2  and  C_3
REMARK    3  A    between atoms: C_2  and  C_4
REMARK    4  A    between atoms: C_2  and  C_5
REMARK    5  A    between atoms: C_7  and  C_8
REMARK    6  A    between atoms: C_9  and  C_10
REMARK    7  A    between atoms: C_18  and  C_19
REMARK    8  A    between atoms: C_19  and  C_20
REMARK    9  A    between atoms: C_19  and  C_21
REMARK   10  A    between atoms: C_19  and  C_22
REMARK   11  A    between atoms: C_23  and  O_24
REMARK                            x       y       z     vdW  Elec       q    Type
REMARK                         _______ _______ _______ _____ _____    ______ ____
ROOT
ATOM      1  C   UNL     1       4.275   5.609  17.874  0.00  0.00    +0.000 A 
ATOM      2  C   UNL     1       3.557   6.717  18.365  0.00  0.00    +0.000 A 
ATOM      3  C   UNL     1       2.629   6.604  19.406  0.00  0.00    +0.000 A 
ATOM      4  C   UNL     1       2.410   5.349  19.985  0.00  0.00    +0.000 A 
ATOM      5  C   UNL     1       3.124   4.201  19.587  0.00  0.00    +0.000 A 
ATOM      6  C   UNL     1       4.074   4.383  18.552  0.00  0.00    +0.000 A 
ENDROOT
BRANCH   1   8
ATOM      7  C   UNL     1       6.660   6.021  17.197  0.00  0.00    +0.000 C 
ATOM      8  C   UNL     1       5.234   5.781  16.666  0.00  0.00    +0.000 C 
ATOM      9  C   UNL     1       4.840   6.990  15.773  0.00  0.00    +0.000 C 
ATOM     10  C   UNL     1       5.263   4.575  15.694  0.00  0.00    +0.000 C 
ENDBRANCH   1   8
BRANCH   5  11
ATOM     11  C   UNL     1       2.769   2.829  20.222  0.00  0.00    +0.000 C 
ATOM     12  C   UNL     1       1.849   3.112  21.431  0.00  0.00    +0.000 C 
ATOM     13  C   UNL     1       2.052   1.835  19.279  0.00  0.00    +0.000 C 
ATOM     14  C   UNL     1       4.009   2.057  20.747  0.00  0.00    +0.000 C 
ENDBRANCH   5  11
BRANCH   3  15
ATOM     15  C   UNL     1       1.962   7.824  19.895  0.00  0.00    +0.000 C 
ATOM     16  C   UNL     1       1.279   7.924  21.047  0.00  0.00    +0.000 C 
BRANCH  16  17
ATOM     17  C   UNL     1       0.625   9.155  21.520  0.00  0.00    +0.000 A 
ATOM     18  C   UNL     1       0.730  10.374  20.833  0.00  0.00    +0.000 A 
ATOM     19  C   UNL     1       0.066  11.515  21.293  0.00  0.00    +0.000 A 
ATOM     20  C   UNL     1      -0.719  11.443  22.438  0.00  0.00    +0.000 A 
ATOM     21 CL   UNL     1      -1.546  12.844  22.998  0.00  0.00    +0.000 Cl
ATOM     22  C   UNL     1      -0.849  10.241  23.126  0.00  0.00    +0.000 A 
ATOM     23  C   UNL     1      -0.180   9.100  22.668  0.00  0.00    +0.000 A 
ENDBRANCH  16  17
ENDBRANCH   3  15
BRANCH   6  24
ATOM     24  O   UNL     1       4.873   3.337  18.203  0.00  0.00    +0.000 OA
ATOM     25  H   UNL     1       5.112   2.896  19.034  0.00  0.00    +0.000 HD
ENDBRANCH   6  24
TORSDOF 5
ENDMDL
MODEL 7
REMARK VINA RESULT:      -8.3      2.047      4.438
REMARK  Name = 
REMARK  11 active torsions:
REMARK  status: ('A' for Active; 'I' for Inactive)
REMARK    1  A    between atoms: C_1  and  C_2
REMARK    2  A    between atoms: C_2  and  C_3
REMARK    3  A    between atoms: C_2  and  C_4
REMARK    4  A    between atoms: C_2  and  C_5
REMARK    5  A    between atoms: C_7  and  C_8
REMARK    6  A    between atoms: C_9  and  C_10
REMARK    7  A    between atoms: C_18  and  C_19
REMARK    8  A    between atoms: C_19  and  C_20
REMARK    9  A    between atoms: C_19  and  C_21
REMARK   10  A    between atoms: C_19  and  C_22
REMARK   11  A    between atoms: C_23  and  O_24
REMARK                            x       y       z     vdW  Elec       q    Type
REMARK                         _______ _______ _______ _____ _____    ______ ____
ROOT
ATOM      1  C   UNL     1       4.374   5.409  17.407  0.00  0.00    +0.000 A 
ATOM      2  C   UNL     1       3.742   6.640  17.669  0.00  0.00    +0.000 A 
ATOM      3  C   UNL     1       2.686   6.759  18.579  0.00  0.00    +0.000 A 
ATOM      4  C   UNL     1       2.247   5.618  19.259  0.00  0.00    +0.000 A 
ATOM      5  C   UNL     1       2.859   4.359  19.092  0.00  0.00    +0.000 A 
ATOM      6  C   UNL     1       3.944   4.307  18.183  0.00  0.00    +0.000 A 
ENDROOT
BRANCH   1   8
ATOM      7  C   UNL     1       5.368   6.544  15.396  0.00  0.00    +0.000 C 
ATOM      8  C   UNL     1       5.488   5.325  16.330  0.00  0.00    +0.000 C 
ATOM      9  C   UNL     1       5.372   4.040  15.465  0.00  0.00    +0.000 C 
ATOM     10  C   UNL     1       6.929   5.277  16.900  0.00  0.00    +0.000 C 
ENDBRANCH   1   8
BRANCH   5  11
ATOM     11  C   UNL     1       2.264   3.124  19.822  0.00  0.00    +0.000 C 
ATOM     12  C   UNL     1       1.002   3.603  20.572  0.00  0.00    +0.000 C 
ATOM     13  C   UNL     1       1.872   1.944  18.901  0.00  0.00    +0.000 C 
ATOM     14  C   UNL     1       3.228   2.507  20.870  0.00  0.00    +0.000 C 
ENDBRANCH   5  11
BRANCH   3  15
ATOM     15  C   UNL     1       2.119   8.095  18.834  0.00  0.00    +0.000 C 
ATOM     16  C   UNL     1       2.138   9.122  17.968  0.00  0.00    +0.000 C 
BRANCH  16  17
ATOM     17  C   UNL     1       1.559  10.447  18.240  0.00  0.00    +0.000 A 
ATOM     18  C   UNL     1       2.300  11.632  18.118  0.00  0.00    +0.000 A 
ATOM     19  C   UNL     1       1.706  12.876  18.351  0.00  0.00    +0.000 A 
ATOM     20  C   UNL     1       0.361  12.946  18.696  0.00  0.00    +0.000 A 
ATOM     21 CL   UNL     1      -0.373  14.477  18.971  0.00  0.00    +0.000 Cl
ATOM     22  C   UNL     1      -0.396  11.784  18.809  0.00  0.00    +0.000 A 
ATOM     23  C   UNL     1       0.200  10.539  18.580  0.00  0.00    +0.000 A 
ENDBRANCH  16  17
ENDBRANCH   3  15
BRANCH   6  24
ATOM     24  O   UNL     1       4.646   3.146  18.065  0.00  0.00    +0.000 OA
ATOM     25  H   UNL     1       5.313   3.165  18.770  0.00  0.00    +0.000 HD
ENDBRANCH   6  24
TORSDOF 5
ENDMDL
MODEL 8
REMARK VINA RESULT:      -8.3      0.152      1.585
REMARK  Name = 
REMARK  11 active torsions:
REMARK  status: ('A' for Active; 'I' for Inactive)
REMARK    1  A    between atoms: C_1  and  C_2
REMARK    2  A    between atoms: C_2  and  C_3
REMARK    3  A    between atoms: C_2  and  C_4
REMARK    4  A    between atoms: C_2  and  C_5
REMARK    5  A    between atoms: C_7  and  C_8
REMARK    6  A    between atoms: C_9  and  C_10
REMARK    7  A    between atoms: C_18  and  C_19
REMARK    8  A    between atoms: C_19  and  C_20
REMARK    9  A    between atoms: C_19  and  C_21
REMARK   10  A    between atoms: C_19  and  C_22
REMARK   11  A    between atoms: C_23  and  O_24
REMARK                            x       y       z     vdW  Elec       q    Type
REMARK                         _______ _______ _______ _____ _____    ______ ____
ROOT
ATOM      1  C   UNL     1       3.045   4.155  19.471  0.00  0.00    +0.000 A 
ATOM      2  C   UNL     1       2.432   5.349  19.897  0.00  0.00    +0.000 A 
ATOM      3  C   UNL     1       2.689   6.581  19.283  0.00  0.00    +0.000 A 
ATOM      4  C   UNL     1       3.578   6.627  18.204  0.00  0.00    +0.000 A 
ATOM      5  C   UNL     1       4.193   5.470  17.685  0.00  0.00    +0.000 A 
ATOM      6  C   UNL     1       3.870   4.249  18.325  0.00  0.00    +0.000 A 
ENDROOT
BRANCH   1   8
ATOM      7  C   UNL     1       4.128   2.138  20.507  0.00  0.00    +0.000 C 
ATOM      8  C   UNL     1       2.781   2.833  20.240  0.00  0.00    +0.000 C 
ATOM      9  C   UNL     1       1.884   1.855  19.433  0.00  0.00    +0.000 C 
ATOM     10  C   UNL     1       2.039   3.013  21.589  0.00  0.00    +0.000 C 
ENDBRANCH   1   8
BRANCH   5  11
ATOM     11  C   UNL     1       5.230   5.613  16.537  0.00  0.00    +0.000 C 
ATOM     12  C   UNL     1       6.626   5.691  17.192  0.00  0.00    +0.000 C 
ATOM     13  C   UNL     1       5.232   4.458  15.508  0.00  0.00    +0.000 C 
ATOM     14  C   UNL     1       5.035   6.899  15.691  0.00  0.00    +0.000 C 
ENDBRANCH   5  11
BRANCH   3  15
ATOM     15  C   UNL     1       1.963   7.773  19.758  0.00  0.00    +0.000 C 
ATOM     16  C   UNL     1       1.469   7.935  20.996  0.00  0.00    +0.000 C 
BRANCH  16  17
ATOM     17  C   UNL     1       0.752   9.138  21.451  0.00  0.00    +0.000 A 
ATOM     18  C   UNL     1       0.774  10.343  20.734  0.00  0.00    +0.000 A 
ATOM     19  C   UNL     1       0.051  11.454  21.179  0.00  0.00    +0.000 A 
ATOM     20  C   UNL     1      -0.710  11.365  22.339  0.00  0.00    +0.000 A 
ATOM     21 CL   UNL     1      -1.609  12.729  22.880  0.00  0.00    +0.000 Cl
ATOM     22  C   UNL     1      -0.758  10.174  23.057  0.00  0.00    +0.000 A 
ATOM     23  C   UNL     1      -0.031   9.063  22.614  0.00  0.00    +0.000 A 
ENDBRANCH  16  17
ENDBRANCH   3  15
BRANCH   6  24
ATOM     24  O   UNL     1       4.343   3.086  17.798  0.00  0.00    +0.000 OA
ATOM     25  H   UNL     1       4.316   3.200  16.835  0.00  0.00    +0.000 HD
ENDBRANCH   6  24
TORSDOF 5
ENDMDL
MODEL 9
REMARK VINA RESULT:      -8.3      2.241      4.412
REMARK  Name = 
REMARK  11 active torsions:
REMARK  status: ('A' for Active; 'I' for Inactive)
REMARK    1  A    between atoms: C_1  and  C_2
REMARK    2  A    between atoms: C_2  and  C_3
REMARK    3  A    between atoms: C_2  and  C_4
REMARK    4  A    between atoms: C_2  and  C_5
REMARK    5  A    between atoms: C_7  and  C_8
REMARK    6  A    between atoms: C_9  and  C_10
REMARK    7  A    between atoms: C_18  and  C_19
REMARK    8  A    between atoms: C_19  and  C_20
REMARK    9  A    between atoms: C_19  and  C_21
REMARK   10  A    between atoms: C_19  and  C_22
REMARK   11  A    between atoms: C_23  and  O_24
REMARK                            x       y       z     vdW  Elec       q    Type
REMARK                         _______ _______ _______ _____ _____    ______ ____
ROOT
ATOM      1  C   UNL     1       4.653   5.144  17.242  0.00  0.00    +0.000 A 
ATOM      2  C   UNL     1       4.176   6.463  17.369  0.00  0.00    +0.000 A 
ATOM      3  C   UNL     1       3.086   6.788  18.185  0.00  0.00    +0.000 A 
ATOM      4  C   UNL     1       2.452   5.770  18.905  0.00  0.00    +0.000 A 
ATOM      5  C   UNL     1       2.900   4.434  18.872  0.00  0.00    +0.000 A 
ATOM      6  C   UNL     1       4.026   4.172  18.056  0.00  0.00    +0.000 A 
ENDROOT
BRANCH   1   8
ATOM      7  C   UNL     1       7.132   4.772  17.060  0.00  0.00    +0.000 C 
ATOM      8  C   UNL     1       5.816   4.833  16.262  0.00  0.00    +0.000 C 
ATOM      9  C   UNL     1       5.966   5.923  15.166  0.00  0.00    +0.000 C 
ATOM     10  C   UNL     1       5.652   3.510  15.473  0.00  0.00    +0.000 C 
ENDBRANCH   1   8
BRANCH   5  11
ATOM     11  C   UNL     1       2.096   3.346  19.637  0.00  0.00    +0.000 C 
ATOM     12  C   UNL     1       0.901   4.054  20.313  0.00  0.00    +0.000 C 
ATOM     13  C   UNL     1       1.554   2.193  18.760  0.00  0.00    +0.000 C 
ATOM     14  C   UNL     1       2.918   2.645  20.751  0.00  0.00    +0.000 C 
ENDBRANCH   5  11
BRANCH   3  15
ATOM     15  C   UNL     1       2.686   8.202  18.302  0.00  0.00    +0.000 C 
ATOM     16  C   UNL     1       1.423   8.657  18.245  0.00  0.00    +0.000 C 
BRANCH  16  17
ATOM     17  C   UNL     1       1.046  10.074  18.371  0.00  0.00    +0.000 A 
ATOM     18  C   UNL     1       1.992  11.109  18.348  0.00  0.00    +0.000 A 
ATOM     19  C   UNL     1       1.593  12.446  18.435  0.00  0.00    +0.000 A 
ATOM     20  C   UNL     1       0.242  12.759  18.534  0.00  0.00    +0.000 A 
ATOM     21 CL   UNL     1      -0.250  14.405  18.628  0.00  0.00    +0.000 Cl
ATOM     22  C   UNL     1      -0.714  11.748  18.544  0.00  0.00    +0.000 A 
ATOM     23  C   UNL     1      -0.314  10.410  18.461  0.00  0.00    +0.000 A 
ENDBRANCH  16  17
ENDBRANCH   3  15
BRANCH   6  24
ATOM     24  O   UNL     1       4.573   2.924  18.073  0.00  0.00    +0.000 OA
ATOM     25  H   UNL     1       4.243   2.499  18.880  0.00  0.00    +0.000 HD
ENDBRANCH   6  24
TORSDOF 5
ENDMDL
