MODEL 1
REMARK VINA RESULT:      -8.7      0.000      0.000
REMARK  Name = 
REMARK  2 active torsions:
REMARK  status: ('A' for Active; 'I' for Inactive)
REMARK    1  A    between atoms: C_1  and  N_2
REMARK    2  A    between atoms: C_9  and  C_10
REMARK                            x       y       z     vdW  Elec       q    Type
REMARK                         _______ _______ _______ _____ _____    ______ ____
ROOT
ATOM      1  C   UNL     1       4.345   1.920  17.720  0.00  0.00    +0.000 C 
ATOM      2  N   UNL     1       3.827   3.296  17.961  0.00  0.00    +0.000 N 
ATOM      3  C   UNL     1       4.249   4.357  17.200  0.00  0.00    +0.000 A 
ATOM      4  C   UNL     1       5.152   4.195  16.114  0.00  0.00    +0.000 A 
ATOM      5  C   UNL     1       5.638   5.266  15.369  0.00  0.00    +0.000 A 
ATOM      6  C   UNL     1       5.278   6.547  15.722  0.00  0.00    +0.000 A 
ATOM      7  C   UNL     1       4.399   6.741  16.788  0.00  0.00    +0.000 A 
ATOM      8  C   UNL     1       3.789   5.672  17.502  0.00  0.00    +0.000 A 
ATOM      9  C   UNL     1       2.766   5.862  18.491  0.00  0.00    +0.000 A 
ATOM     10  C   UNL     1       2.302   4.706  19.200  0.00  0.00    +0.000 A 
ATOM     11  C   UNL     1       1.239   4.729  20.153  0.00  0.00    +0.000 A 
ATOM     12  C   UNL     1       0.918   3.645  20.969  0.00  0.00    +0.000 A 
ATOM     13  C   UNL     1       1.607   2.461  20.826  0.00  0.00    +0.000 A 
ATOM     14  C   UNL     1       2.571   2.359  19.825  0.00  0.00    +0.000 A 
ATOM     15  C   UNL     1       2.916   3.450  18.980  0.00  0.00    +0.000 A 
ENDROOT
BRANCH   9  16
ATOM     16  C   UNL     1       2.204   7.237  18.787  0.00  0.00    +0.000 A 
ATOM     17  C   UNL     1       1.888   8.157  17.763  0.00  0.00    +0.000 A 
ATOM     18  C   UNL     1       1.431   9.456  18.038  0.00  0.00    +0.000 A 
ATOM     19  C   UNL     1       1.162   9.834  19.347  0.00  0.00    +0.000 A 
ATOM     20  C   UNL     1       1.407   8.929  20.365  0.00  0.00    +0.000 A 
ATOM     21  F   UNL     1       1.091   9.252  21.626  0.00  0.00    +0.000 F 
ATOM     22  C   UNL     1       1.972   7.679  20.104  0.00  0.00    +0.000 A 
ENDBRANCH   9  16
TORSDOF 1
ENDMDL
MODEL 2
REMARK VINA RESULT:      -8.6      0.059      3.929
REMARK  Name = 
REMARK  2 active torsions:
REMARK  status: ('A' for Active; 'I' for Inactive)
REMARK    1  A    between atoms: C_1  and  N_2
REMARK    2  A    between atoms: C_9  and  C_10
REMARK                            x       y       z     vdW  Elec       q    Type
REMARK                         _______ _______ _______ _____ _____    ______ ____
ROOT
ATOM      1  C   UNL     1       4.480   1.966  17.612  0.00  0.00    +0.000 C 
ATOM      2  N   UNL     1       3.877   3.289  17.941  0.00  0.00    +0.000 N 
ATOM      3  C   UNL     1       2.961   3.419  18.955  0.00  0.00    +0.000 A 
ATOM      4  C   UNL     1       2.584   2.322  19.776  0.00  0.00    +0.000 A 
ATOM      5  C   UNL     1       1.614   2.420  20.770  0.00  0.00    +0.000 A 
ATOM      6  C   UNL     1       0.945   3.612  20.940  0.00  0.00    +0.000 A 
ATOM      7  C   UNL     1       1.287   4.706  20.145  0.00  0.00    +0.000 A 
ATOM      8  C   UNL     1       2.350   4.683  19.198  0.00  0.00    +0.000 A 
ATOM      9  C   UNL     1       2.809   5.847  18.495  0.00  0.00    +0.000 A 
ATOM     10  C   UNL     1       3.826   5.667  17.502  0.00  0.00    +0.000 A 
ATOM     11  C   UNL     1       4.433   6.738  16.779  0.00  0.00    +0.000 A 
ATOM     12  C   UNL     1       5.284   6.543  15.691  0.00  0.00    +0.000 A 
ATOM     13  C   UNL     1       5.619   5.262  15.314  0.00  0.00    +0.000 A 
ATOM     14  C   UNL     1       5.144   4.191  16.067  0.00  0.00    +0.000 A 
ATOM     15  C   UNL     1       4.275   4.363  17.181  0.00  0.00    +0.000 A 
ENDROOT
BRANCH   9  16
ATOM     16  C   UNL     1       2.229   7.217  18.779  0.00  0.00    +0.000 A 
ATOM     17  C   UNL     1       1.908   8.127  17.747  0.00  0.00    +0.000 A 
ATOM     18  C   UNL     1       1.434   9.422  18.012  0.00  0.00    +0.000 A 
ATOM     19  C   UNL     1       1.154   9.805  19.317  0.00  0.00    +0.000 A 
ATOM     20  C   UNL     1       1.404   8.910  20.342  0.00  0.00    +0.000 A 
ATOM     21  F   UNL     1       1.077   9.237  21.599  0.00  0.00    +0.000 F 
ATOM     22  C   UNL     1       1.985   7.664  20.091  0.00  0.00    +0.000 A 
ENDBRANCH   9  16
TORSDOF 1
ENDMDL
MODEL 3
REMARK VINA RESULT:      -8.3      0.954      1.393
REMARK  Name = 
REMARK  2 active torsions:
REMARK  status: ('A' for Active; 'I' for Inactive)
REMARK    1  A    between atoms: C_1  and  N_2
REMARK    2  A    between atoms: C_9  and  C_10
REMARK                            x       y       z     vdW  Elec       q    Type
REMARK                         _______ _______ _______ _____ _____    ______ ____
ROOT
ATOM      1  C   UNL     1       4.283   1.916  17.685  0.00  0.00    +0.000 C 
ATOM      2  N   UNL     1       3.786   3.288  17.985  0.00  0.00    +0.000 N 
ATOM      3  C   UNL     1       4.205   4.371  17.253  0.00  0.00    +0.000 A 
ATOM      4  C   UNL     1       5.084   4.237  16.144  0.00  0.00    +0.000 A 
ATOM      5  C   UNL     1       5.567   5.328  15.426  0.00  0.00    +0.000 A 
ATOM      6  C   UNL     1       5.229   6.600  15.831  0.00  0.00    +0.000 A 
ATOM      7  C   UNL     1       4.374   6.766  16.921  0.00  0.00    +0.000 A 
ATOM      8  C   UNL     1       3.765   5.679  17.609  0.00  0.00    +0.000 A 
ATOM      9  C   UNL     1       2.764   5.846  18.625  0.00  0.00    +0.000 A 
ATOM     10  C   UNL     1       2.301   4.671  19.302  0.00  0.00    +0.000 A 
ATOM     11  C   UNL     1       1.258   4.672  20.277  0.00  0.00    +0.000 A 
ATOM     12  C   UNL     1       0.941   3.563  21.061  0.00  0.00    +0.000 A 
ATOM     13  C   UNL     1       1.613   2.378  20.863  0.00  0.00    +0.000 A 
ATOM     14  C   UNL     1       2.556   2.300  19.840  0.00  0.00    +0.000 A 
ATOM     15  C   UNL     1       2.897   3.417  19.026  0.00  0.00    +0.000 A 
ENDROOT
BRANCH   9  16
ATOM     16  C   UNL     1       2.225   7.215  18.979  0.00  0.00    +0.000 A 
ATOM     17  C   UNL     1       1.870   7.565  20.302  0.00  0.00    +0.000 A 
ATOM     18  C   UNL     1       1.306   8.811  20.621  0.00  0.00    +0.000 A 
ATOM     19  C   UNL     1       1.191   9.791  19.644  0.00  0.00    +0.000 A 
ATOM     20  C   UNL     1       1.588   9.493  18.352  0.00  0.00    +0.000 A 
ATOM     21  F   UNL     1       1.547  10.447  17.413  0.00  0.00    +0.000 F 
ATOM     22  C   UNL     1       2.039   8.217  18.008  0.00  0.00    +0.000 A 
ENDBRANCH   9  16
TORSDOF 1
ENDMDL
MODEL 4
REMARK VINA RESULT:      -8.2      0.947      4.165
REMARK  Name = 
REMARK  2 active torsions:
REMARK  status: ('A' for Active; 'I' for Inactive)
REMARK    1  A    between atoms: C_1  and  N_2
REMARK    2  A    between atoms: C_9  and  C_10
REMARK                            x       y       z     vdW  Elec       q    Type
REMARK                         _______ _______ _______ _____ _____    ______ ____
ROOT
ATOM      1  C   UNL     1       4.382   1.993  17.406  0.00  0.00    +0.000 C 
ATOM      2  N   UNL     1       3.805   3.296  17.841  0.00  0.00    +0.000 N 
ATOM      3  C   UNL     1       2.902   3.365  18.872  0.00  0.00    +0.000 A 
ATOM      4  C   UNL     1       2.515   2.216  19.613  0.00  0.00    +0.000 A 
ATOM      5  C   UNL     1       1.557   2.255  20.623  0.00  0.00    +0.000 A 
ATOM      6  C   UNL     1       0.911   3.441  20.890  0.00  0.00    +0.000 A 
ATOM      7  C   UNL     1       1.263   4.586  20.175  0.00  0.00    +0.000 A 
ATOM      8  C   UNL     1       2.315   4.617  19.217  0.00  0.00    +0.000 A 
ATOM      9  C   UNL     1       2.787   5.823  18.596  0.00  0.00    +0.000 A 
ATOM     10  C   UNL     1       3.790   5.701  17.581  0.00  0.00    +0.000 A 
ATOM     11  C   UNL     1       4.408   6.814  16.933  0.00  0.00    +0.000 A 
ATOM     12  C   UNL     1       5.243   6.687  15.824  0.00  0.00    +0.000 A 
ATOM     13  C   UNL     1       5.553   5.433  15.348  0.00  0.00    +0.000 A 
ATOM     14  C   UNL     1       5.068   4.316  16.025  0.00  0.00    +0.000 A 
ATOM     15  C   UNL     1       4.214   4.418  17.158  0.00  0.00    +0.000 A 
ENDROOT
BRANCH   9  16
ATOM     16  C   UNL     1       2.234   7.177  18.989  0.00  0.00    +0.000 A 
ATOM     17  C   UNL     1       1.940   7.509  20.331  0.00  0.00    +0.000 A 
ATOM     18  C   UNL     1       1.364   8.740  20.688  0.00  0.00    +0.000 A 
ATOM     19  C   UNL     1       1.177   9.723  19.726  0.00  0.00    +0.000 A 
ATOM     20  C   UNL     1       1.513   9.444  18.413  0.00  0.00    +0.000 A 
ATOM     21  F   UNL     1       1.402  10.403  17.484  0.00  0.00    +0.000 F 
ATOM     22  C   UNL     1       1.976   8.181  18.036  0.00  0.00    +0.000 A 
ENDBRANCH   9  16
TORSDOF 1
ENDMDL
MODEL 5
REMARK VINA RESULT:      -7.8      2.704      5.910
REMARK  Name = 
REMARK  2 active torsions:
REMARK  status: ('A' for Active; 'I' for Inactive)
REMARK    1  A    between atoms: C_1  and  N_2
REMARK    2  A    between atoms: C_9  and  C_10
REMARK                            x       y       z     vdW  Elec       q    Type
REMARK                         _______ _______ _______ _____ _____    ______ ____
ROOT
ATOM      1  C   UNL     1       0.950   6.358  21.249  0.00  0.00    +0.000 C 
ATOM      2  N   UNL     1       1.998   6.064  20.231  0.00  0.00    +0.000 N 
ATOM      3  C   UNL     1       2.643   4.853  20.204  0.00  0.00    +0.000 A 
ATOM      4  C   UNL     1       2.310   3.801  21.102  0.00  0.00    +0.000 A 
ATOM      5  C   UNL     1       2.992   2.588  21.130  0.00  0.00    +0.000 A 
ATOM      6  C   UNL     1       4.071   2.405  20.294  0.00  0.00    +0.000 A 
ATOM      7  C   UNL     1       4.427   3.420  19.406  0.00  0.00    +0.000 A 
ATOM      8  C   UNL     1       3.689   4.628  19.263  0.00  0.00    +0.000 A 
ATOM      9  C   UNL     1       3.955   5.603  18.244  0.00  0.00    +0.000 A 
ATOM     10  C   UNL     1       3.195   6.818  18.269  0.00  0.00    +0.000 A 
ATOM     11  C   UNL     1       3.296   7.842  17.279  0.00  0.00    +0.000 A 
ATOM     12  C   UNL     1       2.694   9.093  17.408  0.00  0.00    +0.000 A 
ATOM     13  C   UNL     1       1.909   9.358  18.507  0.00  0.00    +0.000 A 
ATOM     14  C   UNL     1       1.687   8.345  19.437  0.00  0.00    +0.000 A 
ATOM     15  C   UNL     1       2.289   7.060  19.329  0.00  0.00    +0.000 A 
ENDROOT
BRANCH   9  16
ATOM     16  C   UNL     1       5.012   5.366  17.186  0.00  0.00    +0.000 A 
ATOM     17  C   UNL     1       6.347   5.802  17.344  0.00  0.00    +0.000 A 
ATOM     18  C   UNL     1       7.311   5.642  16.335  0.00  0.00    +0.000 A 
ATOM     19  C   UNL     1       6.999   4.933  15.184  0.00  0.00    +0.000 A 
ATOM     20  C   UNL     1       5.714   4.442  15.030  0.00  0.00    +0.000 A 
ATOM     21  F   UNL     1       5.415   3.699  13.957  0.00  0.00    +0.000 F 
ATOM     22  C   UNL     1       4.722   4.701  15.979  0.00  0.00    +0.000 A 
ENDBRANCH   9  16
TORSDOF 1
ENDMDL
MODEL 6
REMARK VINA RESULT:      -7.8      2.675      5.292
REMARK  Name = 
REMARK  2 active torsions:
REMARK  status: ('A' for Active; 'I' for Inactive)
REMARK    1  A    between atoms: C_1  and  N_2
REMARK    2  A    between atoms: C_9  and  C_10
REMARK                            x       y       z     vdW  Elec       q    Type
REMARK                         _______ _______ _______ _____ _____    ______ ____
ROOT
ATOM      1  C   UNL     1       0.905   4.977  20.543  0.00  0.00    +0.000 C 
ATOM      2  N   UNL     1       1.961   4.984  19.491  0.00  0.00    +0.000 N 
ATOM      3  C   UNL     1       2.380   6.156  18.915  0.00  0.00    +0.000 A 
ATOM      4  C   UNL     1       1.877   7.421  19.324  0.00  0.00    +0.000 A 
ATOM      5  C   UNL     1       2.246   8.616  18.712  0.00  0.00    +0.000 A 
ATOM      6  C   UNL     1       3.093   8.580  17.627  0.00  0.00    +0.000 A 
ATOM      7  C   UNL     1       3.599   7.354  17.195  0.00  0.00    +0.000 A 
ATOM      8  C   UNL     1       3.341   6.123  17.862  0.00  0.00    +0.000 A 
ATOM      9  C   UNL     1       3.984   4.886  17.519  0.00  0.00    +0.000 A 
ATOM     10  C   UNL     1       3.564   3.703  18.210  0.00  0.00    +0.000 A 
ATOM     11  C   UNL     1       4.164   2.420  18.031  0.00  0.00    +0.000 A 
ATOM     12  C   UNL     1       3.634   1.246  18.565  0.00  0.00    +0.000 A 
ATOM     13  C   UNL     1       2.512   1.308  19.359  0.00  0.00    +0.000 A 
ATOM     14  C   UNL     1       1.964   2.554  19.657  0.00  0.00    +0.000 A 
ATOM     15  C   UNL     1       2.486   3.767  19.126  0.00  0.00    +0.000 A 
ENDROOT
BRANCH   9  16
ATOM     16  C   UNL     1       5.058   4.828  16.453  0.00  0.00    +0.000 A 
ATOM     17  C   UNL     1       6.398   5.192  16.715  0.00  0.00    +0.000 A 
ATOM     18  C   UNL     1       7.381   5.203  15.712  0.00  0.00    +0.000 A 
ATOM     19  C   UNL     1       7.079   4.733  14.440  0.00  0.00    +0.000 A 
ATOM     20  C   UNL     1       5.787   4.314  14.174  0.00  0.00    +0.000 A 
ATOM     21  F   UNL     1       5.495   3.796  12.974  0.00  0.00    +0.000 F 
ATOM     22  C   UNL     1       4.780   4.413  15.137  0.00  0.00    +0.000 A 
ENDBRANCH   9  16
TORSDOF 1
ENDMDL
MODEL 7
REMARK VINA RESULT:      -7.8      2.707      5.200
REMARK  Name = 
REMARK  2 active torsions:
REMARK  status: ('A' for Active; 'I' for Inactive)
REMARK    1  A    between atoms: C_1  and  N_2
REMARK    2  A    between atoms: C_9  and  C_10
REMARK                            x       y       z     vdW  Elec       q    Type
REMARK                         _______ _______ _______ _____ _____    ______ ____
ROOT
ATOM      1  C   UNL     1       1.129   6.125  21.251  0.00  0.00    +0.000 C 
ATOM      2  N   UNL     1       2.130   5.953  20.160  0.00  0.00    +0.000 N 
ATOM      3  C   UNL     1       2.381   6.959  19.262  0.00  0.00    +0.000 A 
ATOM      4  C   UNL     1       1.750   8.229  19.356  0.00  0.00    +0.000 A 
ATOM      5  C   UNL     1       1.947   9.243  18.422  0.00  0.00    +0.000 A 
ATOM      6  C   UNL     1       2.744   8.999  17.326  0.00  0.00    +0.000 A 
ATOM      7  C   UNL     1       3.373   7.760  17.200  0.00  0.00    +0.000 A 
ATOM      8  C   UNL     1       3.292   6.738  18.189  0.00  0.00    +0.000 A 
ATOM      9  C   UNL     1       4.062   5.528  18.141  0.00  0.00    +0.000 A 
ATOM     10  C   UNL     1       3.817   4.543  19.153  0.00  0.00    +0.000 A 
ATOM     11  C   UNL     1       4.557   3.328  19.279  0.00  0.00    +0.000 A 
ATOM     12  C   UNL     1       4.195   2.297  20.144  0.00  0.00    +0.000 A 
ATOM     13  C   UNL     1       3.108   2.458  20.973  0.00  0.00    +0.000 A 
ATOM     14  C   UNL     1       2.430   3.675  20.968  0.00  0.00    +0.000 A 
ATOM     15  C   UNL     1       2.780   4.743  20.095  0.00  0.00    +0.000 A 
ENDROOT
BRANCH   9  16
ATOM     16  C   UNL     1       5.089   5.291  17.054  0.00  0.00    +0.000 A 
ATOM     17  C   UNL     1       6.448   5.645  17.212  0.00  0.00    +0.000 A 
ATOM     18  C   UNL     1       7.387   5.488  16.179  0.00  0.00    +0.000 A 
ATOM     19  C   UNL     1       7.020   4.860  14.997  0.00  0.00    +0.000 A 
ATOM     20  C   UNL     1       5.707   4.449  14.840  0.00  0.00    +0.000 A 
ATOM     21  F   UNL     1       5.352   3.782  13.735  0.00  0.00    +0.000 F 
ATOM     22  C   UNL     1       4.745   4.710  15.819  0.00  0.00    +0.000 A 
ENDBRANCH   9  16
TORSDOF 1
ENDMDL
MODEL 8
REMARK VINA RESULT:      -7.7      2.680      5.872
REMARK  Name = 
REMARK  2 active torsions:
REMARK  status: ('A' for Active; 'I' for Inactive)
REMARK    1  A    between atoms: C_1  and  N_2
REMARK    2  A    between atoms: C_9  and  C_10
REMARK                            x       y       z     vdW  Elec       q    Type
REMARK                         _______ _______ _______ _____ _____    ______ ____
ROOT
ATOM      1  C   UNL     1       0.895   5.022  20.540  0.00  0.00    +0.000 C 
ATOM      2  N   UNL     1       1.958   4.923  19.500  0.00  0.00    +0.000 N 
ATOM      3  C   UNL     1       2.490   3.710  19.141  0.00  0.00    +0.000 A 
ATOM      4  C   UNL     1       2.021   2.488  19.694  0.00  0.00    +0.000 A 
ATOM      5  C   UNL     1       2.587   1.253  19.388  0.00  0.00    +0.000 A 
ATOM      6  C   UNL     1       3.683   1.206  18.555  0.00  0.00    +0.000 A 
ATOM      7  C   UNL     1       4.173   2.389  18.002  0.00  0.00    +0.000 A 
ATOM      8  C   UNL     1       3.555   3.657  18.195  0.00  0.00    +0.000 A 
ATOM      9  C   UNL     1       3.958   4.848  17.503  0.00  0.00    +0.000 A 
ATOM     10  C   UNL     1       3.311   6.076  17.859  0.00  0.00    +0.000 A 
ATOM     11  C   UNL     1       3.552   7.322  17.206  0.00  0.00    +0.000 A 
ATOM     12  C   UNL     1       3.061   8.541  17.675  0.00  0.00    +0.000 A 
ATOM     13  C   UNL     1       2.252   8.562  18.788  0.00  0.00    +0.000 A 
ATOM     14  C   UNL     1       1.895   7.355  19.386  0.00  0.00    +0.000 A 
ATOM     15  C   UNL     1       2.381   6.099  18.927  0.00  0.00    +0.000 A 
ENDROOT
BRANCH   9  16
ATOM     16  C   UNL     1       5.037   4.814  16.442  0.00  0.00    +0.000 A 
ATOM     17  C   UNL     1       6.367   5.211  16.708  0.00  0.00    +0.000 A 
ATOM     18  C   UNL     1       7.353   5.244  15.709  0.00  0.00    +0.000 A 
ATOM     19  C   UNL     1       7.068   4.765  14.437  0.00  0.00    +0.000 A 
ATOM     20  C   UNL     1       5.788   4.313  14.167  0.00  0.00    +0.000 A 
ATOM     21  F   UNL     1       5.514   3.785  12.967  0.00  0.00    +0.000 F 
ATOM     22  C   UNL     1       4.775   4.388  15.126  0.00  0.00    +0.000 A 
ENDBRANCH   9  16
TORSDOF 1
ENDMDL
MODEL 9
REMARK VINA RESULT:      -7.7      1.291      1.369
REMARK  Name = 
REMARK  2 active torsions:
REMARK  status: ('A' for Active; 'I' for Inactive)
REMARK    1  A    between atoms: C_1  and  N_2
REMARK    2  A    between atoms: C_9  and  C_10
REMARK                            x       y       z     vdW  Elec       q    Type
REMARK                         _______ _______ _______ _____ _____    ______ ____
ROOT
ATOM      1  C   UNL     1       5.225   2.335  16.633  0.00  0.00    +0.000 C 
ATOM      2  N   UNL     1       4.567   3.565  17.157  0.00  0.00    +0.000 N 
ATOM      3  C   UNL     1       5.181   4.789  17.076  0.00  0.00    +0.000 A 
ATOM      4  C   UNL     1       6.443   4.959  16.443  0.00  0.00    +0.000 A 
ATOM      5  C   UNL     1       7.110   6.181  16.403  0.00  0.00    +0.000 A 
ATOM      6  C   UNL     1       6.560   7.267  17.046  0.00  0.00    +0.000 A 
ATOM      7  C   UNL     1       5.326   7.131  17.683  0.00  0.00    +0.000 A 
ATOM      8  C   UNL     1       4.557   5.934  17.650  0.00  0.00    +0.000 A 
ATOM      9  C   UNL     1       3.220   5.837  18.166  0.00  0.00    +0.000 A 
ATOM     10  C   UNL     1       2.593   4.549  18.152  0.00  0.00    +0.000 A 
ATOM     11  C   UNL     1       1.245   4.314  18.558  0.00  0.00    +0.000 A 
ATOM     12  C   UNL     1       0.704   3.039  18.716  0.00  0.00    +0.000 A 
ATOM     13  C   UNL     1       1.468   1.935  18.413  0.00  0.00    +0.000 A 
ATOM     14  C   UNL     1       2.749   2.123  17.898  0.00  0.00    +0.000 A 
ATOM     15  C   UNL     1       3.324   3.413  17.727  0.00  0.00    +0.000 A 
ENDROOT
BRANCH   9  16
ATOM     16  C   UNL     1       2.501   7.049  18.719  0.00  0.00    +0.000 A 
ATOM     17  C   UNL     1       2.088   8.120  17.895  0.00  0.00    +0.000 A 
ATOM     18  C   UNL     1       1.481   9.275  18.416  0.00  0.00    +0.000 A 
ATOM     19  C   UNL     1       1.161   9.341  19.765  0.00  0.00    +0.000 A 
ATOM     20  C   UNL     1       1.501   8.279  20.584  0.00  0.00    +0.000 A 
ATOM     21  F   UNL     1       1.140   8.297  21.874  0.00  0.00    +0.000 F 
ATOM     22  C   UNL     1       2.209   7.181  20.090  0.00  0.00    +0.000 A 
ENDBRANCH   9  16
TORSDOF 1
ENDMDL
