MODEL 1
REMARK VINA RESULT:      -8.7      0.000      0.000
REMARK  Name = 
REMARK  4 active torsions:
REMARK  status: ('A' for Active; 'I' for Inactive)
REMARK    1  A    between atoms: C_2  and  C_25
REMARK    2  A    between atoms: N_3  and  C_4
REMARK    3  A    between atoms: C_14  and  S_15
REMARK    4  A    between atoms: S_15  and  N_18
REMARK                            x       y       z     vdW  Elec       q    Type
REMARK                         _______ _______ _______ _____ _____    ______ ____
ROOT
ATOM      1  C   UNL     1       0.275  10.360  19.741  0.00  0.00    +0.000 A 
ATOM      2  C   UNL     1       0.961  10.634  18.552  0.00  0.00    +0.000 A 
ATOM      3  C   UNL     1       1.862   9.720  18.000  0.00  0.00    +0.000 A 
ATOM      4  C   UNL     1       2.089   8.515  18.671  0.00  0.00    +0.000 A 
ATOM      5  C   UNL     1       1.471   8.300  19.898  0.00  0.00    +0.000 A 
ATOM      6  C   UNL     1       0.565   9.194  20.474  0.00  0.00    +0.000 A 
ATOM      7  O   UNL     1       1.880   7.109  20.419  0.00  0.00    +0.000 OA
ATOM      8  C   UNL     1       2.741   6.546  19.524  0.00  0.00    +0.000 A 
ATOM      9  C   UNL     1       3.411   5.331  19.665  0.00  0.00    +0.000 A 
ATOM     10  C   UNL     1       4.261   4.955  18.611  0.00  0.00    +0.000 A 
ATOM     11  C   UNL     1       4.430   5.775  17.483  0.00  0.00    +0.000 A 
ATOM     12  C   UNL     1       3.690   6.954  17.341  0.00  0.00    +0.000 A 
ATOM     13  C   UNL     1       2.872   7.365  18.405  0.00  0.00    +0.000 A 
ENDROOT
BRANCH   1  16
ATOM     14  O   UNL     1       0.368  12.191  22.060  0.00  0.00    +0.000 OA
ATOM     15  C   UNL     1      -0.613  12.044  21.347  0.00  0.00    +0.000 C 
ATOM     16  N   UNL     1      -0.728  11.220  20.241  0.00  0.00    +0.000 N 
ATOM     17  H   UNL     1      -1.548  11.343  19.663  0.00  0.00    +0.000 HD
BRANCH  15  18
ATOM     18  C   UNL     1      -1.839  12.857  21.605  0.00  0.00    +0.000 C 
ATOM     19  C   UNL     1      -2.798  12.466  22.708  0.00  0.00    +0.000 C 
ATOM     20  C   UNL     1      -1.933  13.682  22.869  0.00  0.00    +0.000 C 
ENDBRANCH  15  18
ENDBRANCH   1  16
BRANCH  11  21
ATOM     21  S   UNL     1       5.564   5.314  16.177  0.00  0.00    +0.000 S 
ATOM     22  O   UNL     1       5.427   3.892  15.989  0.00  0.00    +0.000 OA
ATOM     23  O   UNL     1       5.356   6.241  15.080  0.00  0.00    +0.000 OA
BRANCH  21  24
ATOM     24  N   UNL     1       7.100   5.628  16.806  0.00  0.00    +0.000 NA
ATOM     25  C   UNL     1       7.699   4.732  17.806  0.00  0.00    +0.000 C 
ATOM     26  C   UNL     1       7.764   5.580  19.063  0.00  0.00    +0.000 C 
ATOM     27  C   UNL     1       8.038   6.982  18.548  0.00  0.00    +0.000 C 
ATOM     28  C   UNL     1       7.510   7.012  17.113  0.00  0.00    +0.000 C 
ENDBRANCH  21  24
ENDBRANCH  11  21
TORSDOF 4
ENDMDL
MODEL 2
REMARK VINA RESULT:      -8.4      3.015      4.426
REMARK  Name = 
REMARK  4 active torsions:
REMARK  status: ('A' for Active; 'I' for Inactive)
REMARK    1  A    between atoms: C_2  and  C_25
REMARK    2  A    between atoms: N_3  and  C_4
REMARK    3  A    between atoms: C_14  and  S_15
REMARK    4  A    between atoms: S_15  and  N_18
REMARK                            x       y       z     vdW  Elec       q    Type
REMARK                         _______ _______ _______ _____ _____    ______ ____
ROOT
ATOM      1  C   UNL     1      -1.062  11.825  22.337  0.00  0.00    +0.000 A 
ATOM      2  C   UNL     1      -0.865  10.661  23.088  0.00  0.00    +0.000 A 
ATOM      3  C   UNL     1      -0.154   9.571  22.577  0.00  0.00    +0.000 A 
ATOM      4  C   UNL     1       0.349   9.651  21.275  0.00  0.00    +0.000 A 
ATOM      5  C   UNL     1       0.063  10.776  20.510  0.00  0.00    +0.000 A 
ATOM      6  C   UNL     1      -0.642  11.881  20.994  0.00  0.00    +0.000 A 
ATOM      7  O   UNL     1       0.576  10.626  19.256  0.00  0.00    +0.000 OA
ATOM      8  C   UNL     1       1.209   9.419  19.217  0.00  0.00    +0.000 A 
ATOM      9  C   UNL     1       1.859   8.856  18.120  0.00  0.00    +0.000 A 
ATOM     10  C   UNL     1       2.435   7.588  18.311  0.00  0.00    +0.000 A 
ATOM     11  C   UNL     1       2.345   6.927  19.547  0.00  0.00    +0.000 A 
ATOM     12  C   UNL     1       1.748   7.549  20.648  0.00  0.00    +0.000 A 
ATOM     13  C   UNL     1       1.128   8.794  20.460  0.00  0.00    +0.000 A 
ENDROOT
BRANCH   1  16
ATOM     14  O   UNL     1      -3.867  12.242  23.172  0.00  0.00    +0.000 OA
ATOM     15  C   UNL     1      -3.000  13.099  23.243  0.00  0.00    +0.000 C 
ATOM     16  N   UNL     1      -1.668  12.975  22.887  0.00  0.00    +0.000 N 
ATOM     17  H   UNL     1      -1.049  13.724  23.167  0.00  0.00    +0.000 HD
BRANCH  15  18
ATOM     18  C   UNL     1      -3.332  14.433  23.827  0.00  0.00    +0.000 C 
ATOM     19  C   UNL     1      -3.109  14.700  25.299  0.00  0.00    +0.000 C 
ATOM     20  C   UNL     1      -2.215  15.347  24.281  0.00  0.00    +0.000 C 
ENDBRANCH  15  18
ENDBRANCH   1  16
BRANCH  11  21
ATOM     21  S   UNL     1       3.030   5.285  19.759  0.00  0.00    +0.000 S 
ATOM     22  O   UNL     1       4.449   5.394  19.529  0.00  0.00    +0.000 OA
ATOM     23  O   UNL     1       2.507   4.760  21.007  0.00  0.00    +0.000 OA
BRANCH  21  24
ATOM     24  N   UNL     1       2.352   4.369  18.513  0.00  0.00    +0.000 NA
ATOM     25  C   UNL     1       1.123   3.591  18.736  0.00  0.00    +0.000 C 
ATOM     26  C   UNL     1       1.579   2.148  18.622  0.00  0.00    +0.000 C 
ATOM     27  C   UNL     1       2.671   2.189  17.567  0.00  0.00    +0.000 C 
ATOM     28  C   UNL     1       3.219   3.617  17.586  0.00  0.00    +0.000 C 
ENDBRANCH  21  24
ENDBRANCH  11  21
TORSDOF 4
ENDMDL
MODEL 3
REMARK VINA RESULT:      -8.4      1.026      1.054
REMARK  Name = 
REMARK  4 active torsions:
REMARK  status: ('A' for Active; 'I' for Inactive)
REMARK    1  A    between atoms: C_2  and  C_25
REMARK    2  A    between atoms: N_3  and  C_4
REMARK    3  A    between atoms: C_14  and  S_15
REMARK    4  A    between atoms: S_15  and  N_18
REMARK                            x       y       z     vdW  Elec       q    Type
REMARK                         _______ _______ _______ _____ _____    ______ ____
ROOT
ATOM      1  C   UNL     1       0.445  10.544  19.662  0.00  0.00    +0.000 A 
ATOM      2  C   UNL     1       1.196  10.804  18.510  0.00  0.00    +0.000 A 
ATOM      3  C   UNL     1       2.057   9.847  17.967  0.00  0.00    +0.000 A 
ATOM      4  C   UNL     1       2.177   8.612  18.611  0.00  0.00    +0.000 A 
ATOM      5  C   UNL     1       1.496   8.406  19.805  0.00  0.00    +0.000 A 
ATOM      6  C   UNL     1       0.627   9.342  20.371  0.00  0.00    +0.000 A 
ATOM      7  O   UNL     1       1.804   7.176  20.306  0.00  0.00    +0.000 OA
ATOM      8  C   UNL     1       2.664   6.582  19.430  0.00  0.00    +0.000 A 
ATOM      9  C   UNL     1       3.246   5.322  19.561  0.00  0.00    +0.000 A 
ATOM     10  C   UNL     1       4.113   4.919  18.531  0.00  0.00    +0.000 A 
ATOM     11  C   UNL     1       4.382   5.756  17.436  0.00  0.00    +0.000 A 
ATOM     12  C   UNL     1       3.727   6.985  17.299  0.00  0.00    +0.000 A 
ATOM     13  C   UNL     1       2.894   7.420  18.342  0.00  0.00    +0.000 A 
ENDROOT
BRANCH   1  16
ATOM     14  O   UNL     1      -2.239  11.170  18.592  0.00  0.00    +0.000 OA
ATOM     15  C   UNL     1      -1.758  11.704  19.580  0.00  0.00    +0.000 C 
ATOM     16  N   UNL     1      -0.520  11.455  20.146  0.00  0.00    +0.000 N 
ATOM     17  H   UNL     1      -0.345  11.858  21.056  0.00  0.00    +0.000 HD
BRANCH  15  18
ATOM     18  C   UNL     1      -2.565  12.701  20.343  0.00  0.00    +0.000 C 
ATOM     19  C   UNL     1      -2.995  12.410  21.764  0.00  0.00    +0.000 C 
ATOM     20  C   UNL     1      -1.935  13.440  21.502  0.00  0.00    +0.000 C 
ENDBRANCH  15  18
ENDBRANCH   1  16
BRANCH  11  21
ATOM     21  S   UNL     1       5.537   5.256  16.162  0.00  0.00    +0.000 S 
ATOM     22  O   UNL     1       5.404   3.829  16.017  0.00  0.00    +0.000 OA
ATOM     23  O   UNL     1       5.346   6.149  15.034  0.00  0.00    +0.000 OA
BRANCH  21  24
ATOM     24  N   UNL     1       7.063   5.591  16.806  0.00  0.00    +0.000 NA
ATOM     25  C   UNL     1       7.678   4.686  17.788  0.00  0.00    +0.000 C 
ATOM     26  C   UNL     1       7.718   5.505  19.064  0.00  0.00    +0.000 C 
ATOM     27  C   UNL     1       7.961   6.926  18.583  0.00  0.00    +0.000 C 
ATOM     28  C   UNL     1       7.439   6.976  17.147  0.00  0.00    +0.000 C 
ENDBRANCH  21  24
ENDBRANCH  11  21
TORSDOF 4
ENDMDL
MODEL 4
REMARK VINA RESULT:      -8.3      2.956      4.245
REMARK  Name = 
REMARK  4 active torsions:
REMARK  status: ('A' for Active; 'I' for Inactive)
REMARK    1  A    between atoms: C_2  and  C_25
REMARK    2  A    between atoms: N_3  and  C_4
REMARK    3  A    between atoms: C_14  and  S_15
REMARK    4  A    between atoms: S_15  and  N_18
REMARK                            x       y       z     vdW  Elec       q    Type
REMARK                         _______ _______ _______ _____ _____    ______ ____
ROOT
ATOM      1  C   UNL     1      -0.957  11.092  22.571  0.00  0.00    +0.000 A 
ATOM      2  C   UNL     1      -0.606   9.853  23.119  0.00  0.00    +0.000 A 
ATOM      3  C   UNL     1       0.158   8.927  22.404  0.00  0.00    +0.000 A 
ATOM      4  C   UNL     1       0.558   9.250  21.105  0.00  0.00    +0.000 A 
ATOM      5  C   UNL     1       0.122  10.444  20.543  0.00  0.00    +0.000 A 
ATOM      6  C   UNL     1      -0.640  11.390  21.232  0.00  0.00    +0.000 A 
ATOM      7  O   UNL     1       0.556  10.535  19.253  0.00  0.00    +0.000 OA
ATOM      8  C   UNL     1       1.288   9.414  18.990  0.00  0.00    +0.000 A 
ATOM      9  C   UNL     1       1.904   9.088  17.783  0.00  0.00    +0.000 A 
ATOM     10  C   UNL     1       2.600   7.868  17.741  0.00  0.00    +0.000 A 
ATOM     11  C   UNL     1       2.656   7.023  18.861  0.00  0.00    +0.000 A 
ATOM     12  C   UNL     1       2.087   7.412  20.078  0.00  0.00    +0.000 A 
ATOM     13  C   UNL     1       1.349   8.605  20.122  0.00  0.00    +0.000 A 
ENDROOT
BRANCH   1  16
ATOM     14  O   UNL     1      -3.724  12.100  22.314  0.00  0.00    +0.000 OA
ATOM     15  C   UNL     1      -2.922  12.513  23.139  0.00  0.00    +0.000 C 
ATOM     16  N   UNL     1      -1.620  12.083  23.328  0.00  0.00    +0.000 N 
ATOM     17  H   UNL     1      -1.149  12.408  24.161  0.00  0.00    +0.000 HD
BRANCH  15  18
ATOM     18  C   UNL     1      -3.347  13.554  24.120  0.00  0.00    +0.000 C 
ATOM     19  C   UNL     1      -3.285  15.020  23.756  0.00  0.00    +0.000 C 
ATOM     20  C   UNL     1      -4.617  14.338  23.873  0.00  0.00    +0.000 C 
ENDBRANCH  15  18
ENDBRANCH   1  16
BRANCH  11  21
ATOM     21  S   UNL     1       3.494   5.442  18.775  0.00  0.00    +0.000 S 
ATOM     22  O   UNL     1       3.641   5.125  17.377  0.00  0.00    +0.000 OA
ATOM     23  O   UNL     1       4.646   5.518  19.654  0.00  0.00    +0.000 OA
BRANCH  21  24
ATOM     24  N   UNL     1       2.415   4.341  19.466  0.00  0.00    +0.000 NA
ATOM     25  C   UNL     1       2.906   3.118  20.117  0.00  0.00    +0.000 C 
ATOM     26  C   UNL     1       2.401   2.001  19.222  0.00  0.00    +0.000 C 
ATOM     27  C   UNL     1       1.061   2.509  18.718  0.00  0.00    +0.000 C 
ATOM     28  C   UNL     1       1.136   4.035  18.798  0.00  0.00    +0.000 C 
ENDBRANCH  21  24
ENDBRANCH  11  21
TORSDOF 4
ENDMDL
MODEL 5
REMARK VINA RESULT:      -8.2      0.822      1.005
REMARK  Name = 
REMARK  4 active torsions:
REMARK  status: ('A' for Active; 'I' for Inactive)
REMARK    1  A    between atoms: C_2  and  C_25
REMARK    2  A    between atoms: N_3  and  C_4
REMARK    3  A    between atoms: C_14  and  S_15
REMARK    4  A    between atoms: S_15  and  N_18
REMARK                            x       y       z     vdW  Elec       q    Type
REMARK                         _______ _______ _______ _____ _____    ______ ____
ROOT
ATOM      1  C   UNL     1       0.357   9.239  20.870  0.00  0.00    +0.000 A 
ATOM      2  C   UNL     1       1.012   9.788  19.763  0.00  0.00    +0.000 A 
ATOM      3  C   UNL     1       1.903   9.036  18.992  0.00  0.00    +0.000 A 
ATOM      4  C   UNL     1       2.151   7.711  19.359  0.00  0.00    +0.000 A 
ATOM      5  C   UNL     1       1.564   7.210  20.515  0.00  0.00    +0.000 A 
ATOM      6  C   UNL     1       0.669   7.936  21.304  0.00  0.00    +0.000 A 
ATOM      7  O   UNL     1       1.990   5.934  20.735  0.00  0.00    +0.000 OA
ATOM      8  C   UNL     1       2.831   5.603  19.714  0.00  0.00    +0.000 A 
ATOM      9  C   UNL     1       3.509   4.396  19.552  0.00  0.00    +0.000 A 
ATOM     10  C   UNL     1       4.335   4.283  18.421  0.00  0.00    +0.000 A 
ATOM     11  C   UNL     1       4.473   5.345  17.512  0.00  0.00    +0.000 A 
ATOM     12  C   UNL     1       3.725   6.517  17.666  0.00  0.00    +0.000 A 
ATOM     13  C   UNL     1       2.932   6.662  18.814  0.00  0.00    +0.000 A 
ENDROOT
BRANCH   1  16
ATOM     14  O   UNL     1       0.431  11.995  21.937  0.00  0.00    +0.000 OA
ATOM     15  C   UNL     1      -0.523  11.242  22.061  0.00  0.00    +0.000 C 
ATOM     16  N   UNL     1      -0.637   9.949  21.579  0.00  0.00    +0.000 N 
ATOM     17  H   UNL     1      -1.554   9.526  21.620  0.00  0.00    +0.000 HD
BRANCH  15  18
ATOM     18  C   UNL     1      -1.758  11.727  22.744  0.00  0.00    +0.000 C 
ATOM     19  C   UNL     1      -1.834  13.142  23.273  0.00  0.00    +0.000 C 
ATOM     20  C   UNL     1      -2.632  12.757  22.061  0.00  0.00    +0.000 C 
ENDBRANCH  15  18
ENDBRANCH   1  16
BRANCH  11  21
ATOM     21  S   UNL     1       5.577   5.212  16.108  0.00  0.00    +0.000 S 
ATOM     22  O   UNL     1       5.564   3.830  15.698  0.00  0.00    +0.000 OA
ATOM     23  O   UNL     1       5.228   6.274  15.184  0.00  0.00    +0.000 OA
BRANCH  21  24
ATOM     24  N   UNL     1       7.107   5.574  16.725  0.00  0.00    +0.000 NA
ATOM     25  C   UNL     1       7.758   4.678  17.692  0.00  0.00    +0.000 C 
ATOM     26  C   UNL     1       7.805   5.494  18.971  0.00  0.00    +0.000 C 
ATOM     27  C   UNL     1       8.012   6.921  18.491  0.00  0.00    +0.000 C 
ATOM     28  C   UNL     1       7.462   6.966  17.064  0.00  0.00    +0.000 C 
ENDBRANCH  21  24
ENDBRANCH  11  21
TORSDOF 4
ENDMDL
MODEL 6
REMARK VINA RESULT:      -8.2      2.151      3.596
REMARK  Name = 
REMARK  4 active torsions:
REMARK  status: ('A' for Active; 'I' for Inactive)
REMARK    1  A    between atoms: C_2  and  C_25
REMARK    2  A    between atoms: N_3  and  C_4
REMARK    3  A    between atoms: C_14  and  S_15
REMARK    4  A    between atoms: S_15  and  N_18
REMARK                            x       y       z     vdW  Elec       q    Type
REMARK                         _______ _______ _______ _____ _____    ______ ____
ROOT
ATOM      1  C   UNL     1      -1.025  11.476  22.595  0.00  0.00    +0.000 A 
ATOM      2  C   UNL     1      -0.799  10.193  23.108  0.00  0.00    +0.000 A 
ATOM      3  C   UNL     1      -0.075   9.236  22.392  0.00  0.00    +0.000 A 
ATOM      4  C   UNL     1       0.413   9.574  21.127  0.00  0.00    +0.000 A 
ATOM      5  C   UNL     1       0.099  10.819  20.594  0.00  0.00    +0.000 A 
ATOM      6  C   UNL     1      -0.621  11.797  21.286  0.00  0.00    +0.000 A 
ATOM      7  O   UNL     1       0.601  10.922  19.330  0.00  0.00    +0.000 OA
ATOM      8  C   UNL     1       1.255   9.757  19.056  0.00  0.00    +0.000 A 
ATOM      9  C   UNL     1       1.902   9.427  17.866  0.00  0.00    +0.000 A 
ATOM     10  C   UNL     1       2.504   8.158  17.807  0.00  0.00    +0.000 A 
ATOM     11  C   UNL     1       2.439   7.271  18.893  0.00  0.00    +0.000 A 
ATOM     12  C   UNL     1       1.842   7.659  20.098  0.00  0.00    +0.000 A 
ATOM     13  C   UNL     1       1.198   8.905  20.156  0.00  0.00    +0.000 A 
ENDROOT
BRANCH   1  16
ATOM     14  O   UNL     1      -3.877  12.241  22.720  0.00  0.00    +0.000 OA
ATOM     15  C   UNL     1      -2.994  12.797  23.355  0.00  0.00    +0.000 C 
ATOM     16  N   UNL     1      -1.645  12.488  23.360  0.00  0.00    +0.000 N 
ATOM     17  H   UNL     1      -1.078  12.933  24.068  0.00  0.00    +0.000 HD
BRANCH  15  18
ATOM     18  C   UNL     1      -3.350  13.900  24.296  0.00  0.00    +0.000 C 
ATOM     19  C   UNL     1      -3.208  15.344  23.870  0.00  0.00    +0.000 C 
ATOM     20  C   UNL     1      -4.575  14.745  24.026  0.00  0.00    +0.000 C 
ENDBRANCH  15  18
ENDBRANCH   1  16
BRANCH  11  21
ATOM     21  S   UNL     1       3.154   5.633  18.782  0.00  0.00    +0.000 S 
ATOM     22  O   UNL     1       3.307   5.153  20.133  0.00  0.00    +0.000 OA
ATOM     23  O   UNL     1       2.381   4.891  17.803  0.00  0.00    +0.000 OA
BRANCH  21  24
ATOM     24  N   UNL     1       4.690   5.875  18.121  0.00  0.00    +0.000 NA
ATOM     25  C   UNL     1       4.930   5.668  16.685  0.00  0.00    +0.000 C 
ATOM     26  C   UNL     1       5.853   4.465  16.638  0.00  0.00    +0.000 C 
ATOM     27  C   UNL     1       6.714   4.612  17.881  0.00  0.00    +0.000 C 
ATOM     28  C   UNL     1       5.894   5.452  18.862  0.00  0.00    +0.000 C 
ENDBRANCH  21  24
ENDBRANCH  11  21
TORSDOF 4
ENDMDL
MODEL 7
REMARK VINA RESULT:      -8.2      3.038      4.317
REMARK  Name = 
REMARK  4 active torsions:
REMARK  status: ('A' for Active; 'I' for Inactive)
REMARK    1  A    between atoms: C_2  and  C_25
REMARK    2  A    between atoms: N_3  and  C_4
REMARK    3  A    between atoms: C_14  and  S_15
REMARK    4  A    between atoms: S_15  and  N_18
REMARK                            x       y       z     vdW  Elec       q    Type
REMARK                         _______ _______ _______ _____ _____    ______ ____
ROOT
ATOM      1  C   UNL     1      -1.054  11.445  22.533  0.00  0.00    +0.000 A 
ATOM      2  C   UNL     1      -0.800  10.174  23.061  0.00  0.00    +0.000 A 
ATOM      3  C   UNL     1      -0.061   9.223  22.353  0.00  0.00    +0.000 A 
ATOM      4  C   UNL     1       0.414   9.554  21.081  0.00  0.00    +0.000 A 
ATOM      5  C   UNL     1       0.072  10.785  20.534  0.00  0.00    +0.000 A 
ATOM      6  C   UNL     1      -0.663  11.757  21.217  0.00  0.00    +0.000 A 
ATOM      7  O   UNL     1       0.566  10.881  19.267  0.00  0.00    +0.000 OA
ATOM      8  C   UNL     1       1.242   9.727  19.003  0.00  0.00    +0.000 A 
ATOM      9  C   UNL     1       1.889   9.394  17.815  0.00  0.00    +0.000 A 
ATOM     10  C   UNL     1       2.515   8.136  17.769  0.00  0.00    +0.000 A 
ATOM     11  C   UNL     1       2.474   7.262  18.867  0.00  0.00    +0.000 A 
ATOM     12  C   UNL     1       1.876   7.654  20.069  0.00  0.00    +0.000 A 
ATOM     13  C   UNL     1       1.207   8.887  20.115  0.00  0.00    +0.000 A 
ENDROOT
BRANCH   1  16
ATOM     14  O   UNL     1      -0.222  14.245  22.988  0.00  0.00    +0.000 OA
ATOM     15  C   UNL     1      -1.230  13.747  23.466  0.00  0.00    +0.000 C 
ATOM     16  N   UNL     1      -1.691  12.455  23.288  0.00  0.00    +0.000 N 
ATOM     17  H   UNL     1      -2.627  12.255  23.613  0.00  0.00    +0.000 HD
BRANCH  15  18
ATOM     18  C   UNL     1      -2.143  14.590  24.294  0.00  0.00    +0.000 C 
ATOM     19  C   UNL     1      -3.195  15.454  23.635  0.00  0.00    +0.000 C 
ATOM     20  C   UNL     1      -3.608  14.226  24.393  0.00  0.00    +0.000 C 
ENDBRANCH  15  18
ENDBRANCH   1  16
BRANCH  11  21
ATOM     21  S   UNL     1       3.221   5.637  18.773  0.00  0.00    +0.000 S 
ATOM     22  O   UNL     1       3.536   5.404  17.386  0.00  0.00    +0.000 OA
ATOM     23  O   UNL     1       4.247   5.576  19.798  0.00  0.00    +0.000 OA
BRANCH  21  24
ATOM     24  N   UNL     1       1.996   4.569  19.234  0.00  0.00    +0.000 NA
ATOM     25  C   UNL     1       2.139   3.738  20.438  0.00  0.00    +0.000 C 
ATOM     26  C   UNL     1       2.225   2.323  19.897  0.00  0.00    +0.000 C 
ATOM     27  C   UNL     1       1.316   2.338  18.680  0.00  0.00    +0.000 C 
ATOM     28  C   UNL     1       1.264   3.794  18.214  0.00  0.00    +0.000 C 
ENDBRANCH  21  24
ENDBRANCH  11  21
TORSDOF 4
ENDMDL
MODEL 8
REMARK VINA RESULT:      -7.9      2.141      3.454
REMARK  Name = 
REMARK  4 active torsions:
REMARK  status: ('A' for Active; 'I' for Inactive)
REMARK    1  A    between atoms: C_2  and  C_25
REMARK    2  A    between atoms: N_3  and  C_4
REMARK    3  A    between atoms: C_14  and  S_15
REMARK    4  A    between atoms: S_15  and  N_18
REMARK                            x       y       z     vdW  Elec       q    Type
REMARK                         _______ _______ _______ _____ _____    ______ ____
ROOT
ATOM      1  C   UNL     1      -0.076  10.075  20.847  0.00  0.00    +0.000 A 
ATOM      2  C   UNL     1       0.138   8.892  21.564  0.00  0.00    +0.000 A 
ATOM      3  C   UNL     1       1.001   7.898  21.095  0.00  0.00    +0.000 A 
ATOM      4  C   UNL     1       1.645   8.094  19.870  0.00  0.00    +0.000 A 
ATOM      5  C   UNL     1       1.349   9.231  19.127  0.00  0.00    +0.000 A 
ATOM      6  C   UNL     1       0.492  10.242  19.570  0.00  0.00    +0.000 A 
ATOM      7  O   UNL     1       2.018   9.196  17.940  0.00  0.00    +0.000 OA
ATOM      8  C   UNL     1       2.760   8.052  17.924  0.00  0.00    +0.000 A 
ATOM      9  C   UNL     1       3.583   7.609  16.890  0.00  0.00    +0.000 A 
ATOM     10  C   UNL     1       4.248   6.387  17.094  0.00  0.00    +0.000 A 
ATOM     11  C   UNL     1       4.074   5.652  18.278  0.00  0.00    +0.000 A 
ATOM     12  C   UNL     1       3.296   6.159  19.324  0.00  0.00    +0.000 A 
ATOM     13  C   UNL     1       2.591   7.354  19.118  0.00  0.00    +0.000 A 
ENDROOT
BRANCH   1  16
ATOM     14  O   UNL     1       0.795  12.758  21.728  0.00  0.00    +0.000 OA
ATOM     15  C   UNL     1      -0.362  12.368  21.775  0.00  0.00    +0.000 C 
ATOM     16  N   UNL     1      -0.846  11.136  21.370  0.00  0.00    +0.000 N 
ATOM     17  H   UNL     1      -1.851  11.036  21.319  0.00  0.00    +0.000 HD
BRANCH  15  18
ATOM     18  C   UNL     1      -1.431  13.293  22.256  0.00  0.00    +0.000 C 
ATOM     19  C   UNL     1      -2.283  12.922  23.449  0.00  0.00    +0.000 C 
ATOM     20  C   UNL     1      -1.257  14.010  23.576  0.00  0.00    +0.000 C 
ENDBRANCH  15  18
ENDBRANCH   1  16
BRANCH  11  21
ATOM     21  S   UNL     1       4.877   4.067  18.498  0.00  0.00    +0.000 S 
ATOM     22  O   UNL     1       5.669   3.834  17.316  0.00  0.00    +0.000 OA
ATOM     23  O   UNL     1       5.479   4.070  19.819  0.00  0.00    +0.000 OA
BRANCH  21  24
ATOM     24  N   UNL     1       3.616   2.943  18.531  0.00  0.00    +0.000 NA
ATOM     25  C   UNL     1       2.551   2.981  17.518  0.00  0.00    +0.000 C 
ATOM     26  C   UNL     1       1.312   3.365  18.305  0.00  0.00    +0.000 C 
ATOM     27  C   UNL     1       1.513   2.701  19.656  0.00  0.00    +0.000 C 
ATOM     28  C   UNL     1       3.025   2.527  19.816  0.00  0.00    +0.000 C 
ENDBRANCH  21  24
ENDBRANCH  11  21
TORSDOF 4
ENDMDL
MODEL 9
REMARK VINA RESULT:      -7.9      2.440      3.731
REMARK  Name = 
REMARK  4 active torsions:
REMARK  status: ('A' for Active; 'I' for Inactive)
REMARK    1  A    between atoms: C_2  and  C_25
REMARK    2  A    between atoms: N_3  and  C_4
REMARK    3  A    between atoms: C_14  and  S_15
REMARK    4  A    between atoms: S_15  and  N_18
REMARK                            x       y       z     vdW  Elec       q    Type
REMARK                         _______ _______ _______ _____ _____    ______ ____
ROOT
ATOM      1  C   UNL     1       0.257  10.201  21.028  0.00  0.00    +0.000 A 
ATOM      2  C   UNL     1       0.295   9.006  21.756  0.00  0.00    +0.000 A 
ATOM      3  C   UNL     1       1.007   7.894  21.300  0.00  0.00    +0.000 A 
ATOM      4  C   UNL     1       1.677   7.983  20.077  0.00  0.00    +0.000 A 
ATOM      5  C   UNL     1       1.552   9.144  19.323  0.00  0.00    +0.000 A 
ATOM      6  C   UNL     1       0.849  10.273  19.753  0.00  0.00    +0.000 A 
ATOM      7  O   UNL     1       2.214   9.002  18.139  0.00  0.00    +0.000 OA
ATOM      8  C   UNL     1       2.782   7.762  18.137  0.00  0.00    +0.000 A 
ATOM      9  C   UNL     1       3.537   7.195  17.112  0.00  0.00    +0.000 A 
ATOM     10  C   UNL     1       4.017   5.892  17.329  0.00  0.00    +0.000 A 
ATOM     11  C   UNL     1       3.733   5.201  18.518  0.00  0.00    +0.000 A 
ATOM     12  C   UNL     1       3.032   5.824  19.556  0.00  0.00    +0.000 A 
ATOM     13  C   UNL     1       2.509   7.107  19.336  0.00  0.00    +0.000 A 
ENDROOT
BRANCH   1  16
ATOM     14  O   UNL     1      -2.066  11.702  19.987  0.00  0.00    +0.000 OA
ATOM     15  C   UNL     1      -1.438  12.025  20.984  0.00  0.00    +0.000 C 
ATOM     16  N   UNL     1      -0.353  11.368  21.538  0.00  0.00    +0.000 N 
ATOM     17  H   UNL     1      -0.057  11.670  22.456  0.00  0.00    +0.000 HD
BRANCH  15  18
ATOM     18  C   UNL     1      -1.872  13.215  21.773  0.00  0.00    +0.000 C 
ATOM     19  C   UNL     1      -2.924  13.075  22.851  0.00  0.00    +0.000 C 
ATOM     20  C   UNL     1      -1.494  13.319  23.234  0.00  0.00    +0.000 C 
ENDBRANCH  15  18
ENDBRANCH   1  16
BRANCH  11  21
ATOM     21  S   UNL     1       4.297   3.517  18.757  0.00  0.00    +0.000 S 
ATOM     22  O   UNL     1       4.490   2.954  17.444  0.00  0.00    +0.000 OA
ATOM     23  O   UNL     1       5.378   3.559  19.724  0.00  0.00    +0.000 OA
BRANCH  21  24
ATOM     24  N   UNL     1       3.000   2.727  19.496  0.00  0.00    +0.000 NA
ATOM     25  C   UNL     1       1.716   2.576  18.796  0.00  0.00    +0.000 C 
ATOM     26  C   UNL     1       0.759   3.435  19.601  0.00  0.00    +0.000 C 
ATOM     27  C   UNL     1       1.248   3.292  21.032  0.00  0.00    +0.000 C 
ATOM     28  C   UNL     1       2.730   2.925  20.933  0.00  0.00    +0.000 C 
ENDBRANCH  21  24
ENDBRANCH  11  21
TORSDOF 4
ENDMDL
