MODEL 1
REMARK VINA RESULT:      -8.4      0.000      0.000
REMARK  Name = 
REMARK  7 active torsions:
REMARK  status: ('A' for Active; 'I' for Inactive)
REMARK    1  A    between atoms: C_8  and  O_9
REMARK    2  A    between atoms: O_9  and  C_10
REMARK    3  A    between atoms: C_10  and  C_11
REMARK    4  A    between atoms: C_11  and  C_12
REMARK    5  A    between atoms: C_12  and  C_13
REMARK    6  A    between atoms: C_13  and  N_14
REMARK    7  A    between atoms: N_17  and  C_18
REMARK                            x       y       z     vdW  Elec       q    Type
REMARK                         _______ _______ _______ _____ _____    ______ ____
ROOT
ATOM      1  C   UNL     1       7.180   7.925  17.341  0.00  0.00    +0.000 C 
ENDROOT
BRANCH   1   2
ATOM      2  N   UNL     1       6.942   6.489  17.459  0.00  0.00    +0.000 NA
ATOM      3  C   UNL     1       5.962   6.174  18.494  0.00  0.00    +0.000 C 
ATOM      4  C   UNL     1       4.511   6.382  18.010  0.00  0.00    +0.000 C 
ATOM      5  N   UNL     1       4.170   5.306  17.066  0.00  0.00    +0.000 N 
ATOM      6  C   UNL     1       5.104   5.322  15.902  0.00  0.00    +0.000 C 
ATOM      7  C   UNL     1       6.594   5.753  16.220  0.00  0.00    +0.000 C 
BRANCH   5   8
ATOM      8  C   UNL     1       3.748   4.089  17.650  0.00  0.00    +0.000 A 
ATOM      9  C   UNL     1       4.296   2.855  17.209  0.00  0.00    +0.000 A 
ATOM     10  C   UNL     1       3.972   1.613  17.737  0.00  0.00    +0.000 A 
ATOM     11  C   UNL     1       3.129   1.556  18.817  0.00  0.00    +0.000 A 
ATOM     12  C   UNL     1       2.621   2.739  19.369  0.00  0.00    +0.000 A 
ATOM     13  C   UNL     1       2.875   4.012  18.768  0.00  0.00    +0.000 A 
ATOM     14  C   UNL     1       2.328   5.250  19.457  0.00  0.00    +0.000 C 
ATOM     15  C   UNL     1       1.226   4.963  20.486  0.00  0.00    +0.000 C 
ATOM     16  C   UNL     1       1.650   3.847  21.423  0.00  0.00    +0.000 C 
ATOM     17  C   UNL     1       1.811   2.563  20.631  0.00  0.00    +0.000 C 
ENDBRANCH   5   8
ENDBRANCH   1   2
BRANCH   1  18
ATOM     18  C   UNL     1       8.362   8.375  18.243  0.00  0.00    +0.000 C 
BRANCH  18  19
ATOM     19  C   UNL     1       8.700   9.871  18.141  0.00  0.00    +0.000 C 
BRANCH  19  20
ATOM     20  C   UNL     1       9.231  10.380  19.472  0.00  0.00    +0.000 C 
BRANCH  20  21
ATOM     21  O   UNL     1      10.556  10.888  19.322  0.00  0.00    +0.000 OA
BRANCH  21  29
ATOM     22  O   UNL     1       8.489  15.947  19.215  0.00  0.00    +0.000 OA
ATOM     23  C   UNL     1       9.379  15.668  18.436  0.00  0.00    +0.000 C 
ATOM     24  N   UNL     1       9.967  16.510  17.512  0.00  0.00    +0.000 N 
ATOM     25  C   UNL     1      11.012  15.872  16.747  0.00  0.00    +0.000 C 
ATOM     26  C   UNL     1      11.016  14.488  17.302  0.00  0.00    +0.000 A 
ATOM     27  C   UNL     1      11.801  13.398  16.976  0.00  0.00    +0.000 A 
ATOM     28  C   UNL     1      11.598  12.206  17.685  0.00  0.00    +0.000 A 
ATOM     29  C   UNL     1      10.626  12.112  18.701  0.00  0.00    +0.000 A 
ATOM     30  C   UNL     1       9.832  13.220  19.012  0.00  0.00    +0.000 A 
ATOM     31  C   UNL     1      10.055  14.378  18.301  0.00  0.00    +0.000 A 
ATOM     32  H   UNL     1       9.673  17.475  17.421  0.00  0.00    +0.000 HD
ENDBRANCH  21  29
ENDBRANCH  20  21
ENDBRANCH  19  20
ENDBRANCH  18  19
ENDBRANCH   1  18
TORSDOF 7
ENDMDL
MODEL 2
REMARK VINA RESULT:      -8.3      2.376      3.111
REMARK  Name = 
REMARK  7 active torsions:
REMARK  status: ('A' for Active; 'I' for Inactive)
REMARK    1  A    between atoms: C_8  and  O_9
REMARK    2  A    between atoms: O_9  and  C_10
REMARK    3  A    between atoms: C_10  and  C_11
REMARK    4  A    between atoms: C_11  and  C_12
REMARK    5  A    between atoms: C_12  and  C_13
REMARK    6  A    between atoms: C_13  and  N_14
REMARK    7  A    between atoms: N_17  and  C_18
REMARK                            x       y       z     vdW  Elec       q    Type
REMARK                         _______ _______ _______ _____ _____    ______ ____
ROOT
ATOM      1  C   UNL     1       8.319   7.358  18.387  0.00  0.00    +0.000 C 
ENDROOT
BRANCH   1   2
ATOM      2  N   UNL     1       7.453   6.477  17.611  0.00  0.00    +0.000 NA
ATOM      3  C   UNL     1       6.962   5.349  18.398  0.00  0.00    +0.000 C 
ATOM      4  C   UNL     1       5.770   5.739  19.299  0.00  0.00    +0.000 C 
ATOM      5  N   UNL     1       4.583   5.933  18.452  0.00  0.00    +0.000 N 
ATOM      6  C   UNL     1       4.834   7.006  17.445  0.00  0.00    +0.000 C 
ATOM      7  C   UNL     1       6.315   7.099  16.892  0.00  0.00    +0.000 C 
BRANCH   5   8
ATOM      8  C   UNL     1       3.875   4.758  18.109  0.00  0.00    +0.000 A 
ATOM      9  C   UNL     1       4.329   3.933  17.045  0.00  0.00    +0.000 A 
ATOM     10  C   UNL     1       3.725   2.747  16.652  0.00  0.00    +0.000 A 
ATOM     11  C   UNL     1       2.664   2.275  17.381  0.00  0.00    +0.000 A 
ATOM     12  C   UNL     1       2.217   2.985  18.503  0.00  0.00    +0.000 A 
ATOM     13  C   UNL     1       2.774   4.255  18.852  0.00  0.00    +0.000 A 
ATOM     14  C   UNL     1       2.267   4.936  20.112  0.00  0.00    +0.000 C 
ATOM     15  C   UNL     1       0.935   4.381  20.635  0.00  0.00    +0.000 C 
ATOM     16  C   UNL     1       0.980   2.866  20.704  0.00  0.00    +0.000 C 
ATOM     17  C   UNL     1       1.130   2.306  19.302  0.00  0.00    +0.000 C 
ENDBRANCH   5   8
ENDBRANCH   1   2
BRANCH   1  18
ATOM     18  C   UNL     1       8.175   8.835  17.928  0.00  0.00    +0.000 C 
BRANCH  18  19
ATOM     19  C   UNL     1       8.794   9.860  18.893  0.00  0.00    +0.000 C 
BRANCH  19  20
ATOM     20  C   UNL     1       9.615  10.879  18.119  0.00  0.00    +0.000 C 
BRANCH  20  21
ATOM     21  O   UNL     1      10.648  11.419  18.940  0.00  0.00    +0.000 OA
BRANCH  21  29
ATOM     22  O   UNL     1       8.066  11.161  23.751  0.00  0.00    +0.000 OA
ATOM     23  C   UNL     1       8.456  12.244  23.360  0.00  0.00    +0.000 C 
ATOM     24  N   UNL     1       8.341  13.453  24.016  0.00  0.00    +0.000 N 
ATOM     25  C   UNL     1       8.924  14.554  23.285  0.00  0.00    +0.000 C 
ATOM     26  C   UNL     1       9.430  13.886  22.052  0.00  0.00    +0.000 A 
ATOM     27  C   UNL     1      10.091  14.414  20.959  0.00  0.00    +0.000 A 
ATOM     28  C   UNL     1      10.473  13.537  19.934  0.00  0.00    +0.000 A 
ATOM     29  C   UNL     1      10.196  12.157  20.007  0.00  0.00    +0.000 A 
ATOM     30  C   UNL     1       9.516  11.640  21.114  0.00  0.00    +0.000 A 
ATOM     31  C   UNL     1       9.156  12.524  22.106  0.00  0.00    +0.000 A 
ATOM     32  H   UNL     1       7.896  13.517  24.924  0.00  0.00    +0.000 HD
ENDBRANCH  21  29
ENDBRANCH  20  21
ENDBRANCH  19  20
ENDBRANCH  18  19
ENDBRANCH   1  18
TORSDOF 7
ENDMDL
MODEL 3
REMARK VINA RESULT:      -8.2      1.249      1.515
REMARK  Name = 
REMARK  7 active torsions:
REMARK  status: ('A' for Active; 'I' for Inactive)
REMARK    1  A    between atoms: C_8  and  O_9
REMARK    2  A    between atoms: O_9  and  C_10
REMARK    3  A    between atoms: C_10  and  C_11
REMARK    4  A    between atoms: C_11  and  C_12
REMARK    5  A    between atoms: C_12  and  C_13
REMARK    6  A    between atoms: C_13  and  N_14
REMARK    7  A    between atoms: N_17  and  C_18
REMARK                            x       y       z     vdW  Elec       q    Type
REMARK                         _______ _______ _______ _____ _____    ______ ____
ROOT
ATOM      1  C   UNL     1       7.821   7.178  16.789  0.00  0.00    +0.000 C 
ENDROOT
BRANCH   1   2
ATOM      2  N   UNL     1       7.330   5.837  17.093  0.00  0.00    +0.000 NA
ATOM      3  C   UNL     1       6.327   5.841  18.154  0.00  0.00    +0.000 C 
ATOM      4  C   UNL     1       4.929   6.244  17.638  0.00  0.00    +0.000 C 
ATOM      5  N   UNL     1       4.383   5.134  16.842  0.00  0.00    +0.000 N 
ATOM      6  C   UNL     1       5.284   4.829  15.691  0.00  0.00    +0.000 C 
ATOM      7  C   UNL     1       6.833   5.021  15.959  0.00  0.00    +0.000 C 
BRANCH   5   8
ATOM      8  C   UNL     1       3.758   4.100  17.577  0.00  0.00    +0.000 A 
ATOM      9  C   UNL     1       4.013   2.740  17.259  0.00  0.00    +0.000 A 
ATOM     10  C   UNL     1       3.476   1.656  17.938  0.00  0.00    +0.000 A 
ATOM     11  C   UNL     1       2.710   1.889  19.051  0.00  0.00    +0.000 A 
ATOM     12  C   UNL     1       2.491   3.203  19.485  0.00  0.00    +0.000 A 
ATOM     13  C   UNL     1       2.961   4.325  18.732  0.00  0.00    +0.000 A 
ATOM     14  C   UNL     1       2.725   5.715  19.297  0.00  0.00    +0.000 C 
ATOM     15  C   UNL     1       1.655   5.774  20.395  0.00  0.00    +0.000 C 
ATOM     16  C   UNL     1       1.900   4.696  21.436  0.00  0.00    +0.000 C 
ATOM     17  C   UNL     1       1.744   3.333  20.790  0.00  0.00    +0.000 C 
ENDBRANCH   5   8
ENDBRANCH   1   2
BRANCH   1  18
ATOM     18  C   UNL     1       8.140   7.967  18.088  0.00  0.00    +0.000 C 
BRANCH  18  19
ATOM     19  C   UNL     1       8.013   9.493  17.947  0.00  0.00    +0.000 C 
BRANCH  19  20
ATOM     20  C   UNL     1       9.125  10.185  18.720  0.00  0.00    +0.000 C 
BRANCH  20  21
ATOM     21  O   UNL     1       9.957  10.936  17.838  0.00  0.00    +0.000 OA
BRANCH  21  29
ATOM     22  O   UNL     1      11.082  16.134  16.578  0.00  0.00    +0.000 OA
ATOM     23  C   UNL     1      11.199  15.780  17.735  0.00  0.00    +0.000 C 
ATOM     24  N   UNL     1      11.571  16.564  18.810  0.00  0.00    +0.000 N 
ATOM     25  C   UNL     1      11.598  15.840  20.059  0.00  0.00    +0.000 C 
ATOM     26  C   UNL     1      11.194  14.467  19.641  0.00  0.00    +0.000 A 
ATOM     27  C   UNL     1      11.035  13.317  20.392  0.00  0.00    +0.000 A 
ATOM     28  C   UNL     1      10.622  12.152  19.731  0.00  0.00    +0.000 A 
ATOM     29  C   UNL     1      10.375  12.143  18.343  0.00  0.00    +0.000 A 
ATOM     30  C   UNL     1      10.552  13.311  17.596  0.00  0.00    +0.000 A 
ATOM     31  C   UNL     1      10.955  14.440  18.272  0.00  0.00    +0.000 A 
ATOM     32  H   UNL     1      11.784  17.547  18.692  0.00  0.00    +0.000 HD
ENDBRANCH  21  29
ENDBRANCH  20  21
ENDBRANCH  19  20
ENDBRANCH  18  19
ENDBRANCH   1  18
TORSDOF 7
ENDMDL
MODEL 4
REMARK VINA RESULT:      -8.1      6.652     10.573
REMARK  Name = 
REMARK  7 active torsions:
REMARK  status: ('A' for Active; 'I' for Inactive)
REMARK    1  A    between atoms: C_8  and  O_9
REMARK    2  A    between atoms: O_9  and  C_10
REMARK    3  A    between atoms: C_10  and  C_11
REMARK    4  A    between atoms: C_11  and  C_12
REMARK    5  A    between atoms: C_12  and  C_13
REMARK    6  A    between atoms: C_13  and  N_14
REMARK    7  A    between atoms: N_17  and  C_18
REMARK                            x       y       z     vdW  Elec       q    Type
REMARK                         _______ _______ _______ _____ _____    ______ ____
ROOT
ATOM      1  C   UNL     1       1.620   8.121  20.941  0.00  0.00    +0.000 C 
ENDROOT
BRANCH   1   2
ATOM      2  N   UNL     1       0.618   8.962  20.295  0.00  0.00    +0.000 NA
ATOM      3  C   UNL     1      -0.485   9.297  21.191  0.00  0.00    +0.000 C 
ATOM      4  C   UNL     1      -0.128  10.451  22.153  0.00  0.00    +0.000 C 
ATOM      5  N   UNL     1      -0.092  11.707  21.389  0.00  0.00    +0.000 N 
ATOM      6  C   UNL     1       0.921  11.622  20.297  0.00  0.00    +0.000 C 
ATOM      7  C   UNL     1       1.093  10.197  19.627  0.00  0.00    +0.000 C 
BRANCH   5   8
ATOM      8  C   UNL     1      -1.342  12.335  21.181  0.00  0.00    +0.000 A 
ATOM      9  C   UNL     1      -2.128  12.007  20.044  0.00  0.00    +0.000 A 
ATOM     10  C   UNL     1      -3.378  12.542  19.766  0.00  0.00    +0.000 A 
ATOM     11  C   UNL     1      -3.952  13.384  20.683  0.00  0.00    +0.000 A 
ATOM     12  C   UNL     1      -3.280  13.681  21.875  0.00  0.00    +0.000 A 
ATOM     13  C   UNL     1      -1.951  13.210  22.120  0.00  0.00    +0.000 A 
ATOM     14  C   UNL     1      -1.312  13.536  23.459  0.00  0.00    +0.000 C 
ATOM     15  C   UNL     1      -2.001  14.674  24.224  0.00  0.00    +0.000 C 
ATOM     16  C   UNL     1      -3.502  14.451  24.272  0.00  0.00    +0.000 C 
ATOM     17  C   UNL     1      -4.061  14.513  22.864  0.00  0.00    +0.000 C 
ENDBRANCH   5   8
ENDBRANCH   1   2
BRANCH   1  18
ATOM     18  C   UNL     1       2.060   6.955  20.014  0.00  0.00    +0.000 C 
BRANCH  18  19
ATOM     19  C   UNL     1       1.553   5.572  20.454  0.00  0.00    +0.000 C 
BRANCH  19  20
ATOM     20  C   UNL     1       2.726   4.630  20.678  0.00  0.00    +0.000 C 
BRANCH  20  21
ATOM     21  O   UNL     1       2.795   3.659  19.636  0.00  0.00    +0.000 OA
BRANCH  21  29
ATOM     22  O   UNL     1       8.082   4.887  18.992  0.00  0.00    +0.000 OA
ATOM     23  C   UNL     1       7.402   4.713  17.999  0.00  0.00    +0.000 C 
ATOM     24  N   UNL     1       7.824   4.767  16.685  0.00  0.00    +0.000 N 
ATOM     25  C   UNL     1       6.768   4.495  15.738  0.00  0.00    +0.000 C 
ATOM     26  C   UNL     1       5.594   4.262  16.627  0.00  0.00    +0.000 A 
ATOM     27  C   UNL     1       4.283   3.955  16.312  0.00  0.00    +0.000 A 
ATOM     28  C   UNL     1       3.379   3.769  17.367  0.00  0.00    +0.000 A 
ATOM     29  C   UNL     1       3.784   3.889  18.711  0.00  0.00    +0.000 A 
ATOM     30  C   UNL     1       5.110   4.212  19.014  0.00  0.00    +0.000 A 
ATOM     31  C   UNL     1       5.976   4.386  17.958  0.00  0.00    +0.000 A 
ATOM     32  H   UNL     1       8.789   4.968  16.452  0.00  0.00    +0.000 HD
ENDBRANCH  21  29
ENDBRANCH  20  21
ENDBRANCH  19  20
ENDBRANCH  18  19
ENDBRANCH   1  18
TORSDOF 7
ENDMDL
MODEL 5
REMARK VINA RESULT:      -8.0      5.341      8.833
REMARK  Name = 
REMARK  7 active torsions:
REMARK  status: ('A' for Active; 'I' for Inactive)
REMARK    1  A    between atoms: C_8  and  O_9
REMARK    2  A    between atoms: O_9  and  C_10
REMARK    3  A    between atoms: C_10  and  C_11
REMARK    4  A    between atoms: C_11  and  C_12
REMARK    5  A    between atoms: C_12  and  C_13
REMARK    6  A    between atoms: C_13  and  N_14
REMARK    7  A    between atoms: N_17  and  C_18
REMARK                            x       y       z     vdW  Elec       q    Type
REMARK                         _______ _______ _______ _____ _____    ______ ____
ROOT
ATOM      1  C   UNL     1       2.177   4.847  21.053  0.00  0.00    +0.000 C 
ENDROOT
BRANCH   1   2
ATOM      2  N   UNL     1       1.406   5.606  20.073  0.00  0.00    +0.000 NA
ATOM      3  C   UNL     1       0.563   6.622  20.696  0.00  0.00    +0.000 C 
ATOM      4  C   UNL     1       1.355   7.893  21.068  0.00  0.00    +0.000 C 
ATOM      5  N   UNL     1       1.680   8.624  19.834  0.00  0.00    +0.000 N 
ATOM      6  C   UNL     1       2.492   7.766  18.922  0.00  0.00    +0.000 C 
ATOM      7  C   UNL     1       2.153   6.219  18.947  0.00  0.00    +0.000 C 
BRANCH   5   8
ATOM      8  C   UNL     1       0.661   9.466  19.333  0.00  0.00    +0.000 A 
ATOM      9  C   UNL     1       0.124   9.247  18.036  0.00  0.00    +0.000 A 
ATOM     10  C   UNL     1      -0.897   9.996  17.467  0.00  0.00    +0.000 A 
ATOM     11  C   UNL     1      -1.502  10.966  18.222  0.00  0.00    +0.000 A 
ATOM     12  C   UNL     1      -1.091  11.179  19.545  0.00  0.00    +0.000 A 
ATOM     13  C   UNL     1       0.024  10.477  20.102  0.00  0.00    +0.000 A 
ATOM     14  C   UNL     1       0.374  10.730  21.558  0.00  0.00    +0.000 C 
ATOM     15  C   UNL     1      -0.248  12.006  22.142  0.00  0.00    +0.000 C 
ATOM     16  C   UNL     1      -1.731  12.070  21.822  0.00  0.00    +0.000 C 
ATOM     17  C   UNL     1      -1.913  12.180  20.320  0.00  0.00    +0.000 C 
ENDBRANCH   5   8
ENDBRANCH   1   2
BRANCH   1  18
ATOM     18  C   UNL     1       1.713   3.366  21.109  0.00  0.00    +0.000 C 
BRANCH  18  19
ATOM     19  C   UNL     1       1.744   2.643  19.753  0.00  0.00    +0.000 C 
BRANCH  19  20
ATOM     20  C   UNL     1       3.169   2.244  19.404  0.00  0.00    +0.000 C 
BRANCH  20  21
ATOM     21  O   UNL     1       3.452   2.540  18.038  0.00  0.00    +0.000 OA
BRANCH  21  29
ATOM     22  O   UNL     1       7.547   5.344  20.327  0.00  0.00    +0.000 OA
ATOM     23  C   UNL     1       7.191   5.650  19.206  0.00  0.00    +0.000 C 
ATOM     24  N   UNL     1       7.729   6.639  18.405  0.00  0.00    +0.000 N 
ATOM     25  C   UNL     1       7.087   6.738  17.116  0.00  0.00    +0.000 C 
ATOM     26  C   UNL     1       6.045   5.673  17.195  0.00  0.00    +0.000 A 
ATOM     27  C   UNL     1       5.104   5.275  16.264  0.00  0.00    +0.000 A 
ATOM     28  C   UNL     1       4.249   4.217  16.604  0.00  0.00    +0.000 A 
ATOM     29  C   UNL     1       4.340   3.572  17.854  0.00  0.00    +0.000 A 
ATOM     30  C   UNL     1       5.290   3.993  18.789  0.00  0.00    +0.000 A 
ATOM     31  C   UNL     1       6.117   5.033  18.427  0.00  0.00    +0.000 A 
ATOM     32  H   UNL     1       8.505   7.207  18.724  0.00  0.00    +0.000 HD
ENDBRANCH  21  29
ENDBRANCH  20  21
ENDBRANCH  19  20
ENDBRANCH  18  19
ENDBRANCH   1  18
TORSDOF 7
ENDMDL
MODEL 6
REMARK VINA RESULT:      -8.0      3.334     12.306
REMARK  Name = 
REMARK  7 active torsions:
REMARK  status: ('A' for Active; 'I' for Inactive)
REMARK    1  A    between atoms: C_8  and  O_9
REMARK    2  A    between atoms: O_9  and  C_10
REMARK    3  A    between atoms: C_10  and  C_11
REMARK    4  A    between atoms: C_11  and  C_12
REMARK    5  A    between atoms: C_12  and  C_13
REMARK    6  A    between atoms: C_13  and  N_14
REMARK    7  A    between atoms: N_17  and  C_18
REMARK                            x       y       z     vdW  Elec       q    Type
REMARK                         _______ _______ _______ _____ _____    ______ ____
ROOT
ATOM      1  C   UNL     1       8.955   9.386  18.628  0.00  0.00    +0.000 C 
ENDROOT
BRANCH   1   2
ATOM      2  N   UNL     1       8.643  10.781  18.926  0.00  0.00    +0.000 NA
ATOM      3  C   UNL     1       9.371  11.275  20.092  0.00  0.00    +0.000 C 
ATOM      4  C   UNL     1      10.825  11.666  19.752  0.00  0.00    +0.000 C 
ATOM      5  N   UNL     1      10.809  12.914  18.974  0.00  0.00    +0.000 N 
ATOM      6  C   UNL     1      10.023  12.732  17.718  0.00  0.00    +0.000 C 
ATOM      7  C   UNL     1       8.777  11.760  17.820  0.00  0.00    +0.000 C 
BRANCH   5   8
ATOM      8  C   UNL     1      10.718  14.106  19.729  0.00  0.00    +0.000 A 
ATOM      9  C   UNL     1      10.406  14.055  21.114  0.00  0.00    +0.000 A 
ATOM     10  C   UNL     1      10.324  15.162  21.946  0.00  0.00    +0.000 A 
ATOM     11  C   UNL     1      10.645  16.394  21.438  0.00  0.00    +0.000 A 
ATOM     12  C   UNL     1      11.055  16.513  20.104  0.00  0.00    +0.000 A 
ATOM     13  C   UNL     1      11.046  15.390  19.218  0.00  0.00    +0.000 A 
ATOM     14  C   UNL     1      11.552  15.594  17.800  0.00  0.00    +0.000 C 
ATOM     15  C   UNL     1      11.626  17.063  17.363  0.00  0.00    +0.000 C 
ATOM     16  C   UNL     1      12.331  17.897  18.417  0.00  0.00    +0.000 C 
ATOM     17  C   UNL     1      11.507  17.893  19.691  0.00  0.00    +0.000 C 
ENDBRANCH   5   8
ENDBRANCH   1   2
BRANCH   1  18
ATOM     18  C   UNL     1       7.962   8.796  17.591  0.00  0.00    +0.000 C 
BRANCH  18  19
ATOM     19  C   UNL     1       7.581   7.329  17.844  0.00  0.00    +0.000 C 
BRANCH  19  20
ATOM     20  C   UNL     1       6.185   7.050  17.310  0.00  0.00    +0.000 C 
BRANCH  20  21
ATOM     21  O   UNL     1       6.063   5.686  16.912  0.00  0.00    +0.000 OA
BRANCH  21  29
ATOM     22  O   UNL     1       3.794   0.918  18.323  0.00  0.00    +0.000 OA
ATOM     23  C   UNL     1       3.103   1.918  18.347  0.00  0.00    +0.000 C 
ATOM     24  N   UNL     1       1.777   2.002  18.722  0.00  0.00    +0.000 N 
ATOM     25  C   UNL     1       1.251   3.344  18.655  0.00  0.00    +0.000 C 
ATOM     26  C   UNL     1       2.427   4.125  18.174  0.00  0.00    +0.000 A 
ATOM     27  C   UNL     1       2.555   5.476  17.911  0.00  0.00    +0.000 A 
ATOM     28  C   UNL     1       3.803   5.948  17.481  0.00  0.00    +0.000 A 
ATOM     29  C   UNL     1       4.900   5.079  17.318  0.00  0.00    +0.000 A 
ATOM     30  C   UNL     1       4.753   3.713  17.577  0.00  0.00    +0.000 A 
ATOM     31  C   UNL     1       3.517   3.278  18.001  0.00  0.00    +0.000 A 
ATOM     32  H   UNL     1       1.264   1.181  19.020  0.00  0.00    +0.000 HD
ENDBRANCH  21  29
ENDBRANCH  20  21
ENDBRANCH  19  20
ENDBRANCH  18  19
ENDBRANCH   1  18
TORSDOF 7
ENDMDL
MODEL 7
REMARK VINA RESULT:      -8.0      3.073     12.086
REMARK  Name = 
REMARK  7 active torsions:
REMARK  status: ('A' for Active; 'I' for Inactive)
REMARK    1  A    between atoms: C_8  and  O_9
REMARK    2  A    between atoms: O_9  and  C_10
REMARK    3  A    between atoms: C_10  and  C_11
REMARK    4  A    between atoms: C_11  and  C_12
REMARK    5  A    between atoms: C_12  and  C_13
REMARK    6  A    between atoms: C_13  and  N_14
REMARK    7  A    between atoms: N_17  and  C_18
REMARK                            x       y       z     vdW  Elec       q    Type
REMARK                         _______ _______ _______ _____ _____    ______ ____
ROOT
ATOM      1  C   UNL     1       8.881  10.124  18.743  0.00  0.00    +0.000 C 
ENDROOT
BRANCH   1   2
ATOM      2  N   UNL     1       9.400  11.253  17.977  0.00  0.00    +0.000 NA
ATOM      3  C   UNL     1       8.866  12.530  18.442  0.00  0.00    +0.000 C 
ATOM      4  C   UNL     1       9.591  13.044  19.704  0.00  0.00    +0.000 C 
ATOM      5  N   UNL     1      10.933  13.508  19.321  0.00  0.00    +0.000 N 
ATOM      6  C   UNL     1      11.711  12.393  18.704  0.00  0.00    +0.000 C 
ATOM      7  C   UNL     1      10.873  11.363  17.841  0.00  0.00    +0.000 C 
BRANCH   5   8
ATOM      8  C   UNL     1      11.004  14.823  18.806  0.00  0.00    +0.000 A 
ATOM      9  C   UNL     1      10.851  15.056  17.413  0.00  0.00    +0.000 A 
ATOM     10  C   UNL     1      10.873  16.308  16.815  0.00  0.00    +0.000 A 
ATOM     11  C   UNL     1      10.963  17.419  17.613  0.00  0.00    +0.000 A 
ATOM     12  C   UNL     1      11.021  17.274  19.006  0.00  0.00    +0.000 A 
ATOM     13  C   UNL     1      11.097  15.984  19.619  0.00  0.00    +0.000 A 
ATOM     14  C   UNL     1      11.108  15.913  21.137  0.00  0.00    +0.000 C 
ATOM     15  C   UNL     1      11.450  17.241  21.826  0.00  0.00    +0.000 C 
ATOM     16  C   UNL     1      10.619  18.372  21.247  0.00  0.00    +0.000 C 
ATOM     17  C   UNL     1      10.987  18.565  19.788  0.00  0.00    +0.000 C 
ENDBRANCH   5   8
ENDBRANCH   1   2
BRANCH   1  18
ATOM     18  C   UNL     1       8.232   9.063  17.812  0.00  0.00    +0.000 C 
BRANCH  18  19
ATOM     19  C   UNL     1       8.191   7.645  18.403  0.00  0.00    +0.000 C 
BRANCH  19  20
ATOM     20  C   UNL     1       7.358   6.731  17.518  0.00  0.00    +0.000 C 
BRANCH  20  21
ATOM     21  O   UNL     1       6.002   7.171  17.478  0.00  0.00    +0.000 OA
BRANCH  21  29
ATOM     22  O   UNL     1       1.673   5.280  20.227  0.00  0.00    +0.000 OA
ATOM     23  C   UNL     1       2.067   4.652  19.264  0.00  0.00    +0.000 C 
ATOM     24  N   UNL     1       1.521   3.493  18.749  0.00  0.00    +0.000 N 
ATOM     25  C   UNL     1       2.219   3.005  17.583  0.00  0.00    +0.000 C 
ATOM     26  C   UNL     1       3.305   4.013  17.415  0.00  0.00    +0.000 A 
ATOM     27  C   UNL     1       4.308   4.095  16.468  0.00  0.00    +0.000 A 
ATOM     28  C   UNL     1       5.195   5.178  16.540  0.00  0.00    +0.000 A 
ATOM     29  C   UNL     1       5.076   6.159  17.545  0.00  0.00    +0.000 A 
ATOM     30  C   UNL     1       4.063   6.057  18.504  0.00  0.00    +0.000 A 
ATOM     31  C   UNL     1       3.205   4.984  18.406  0.00  0.00    +0.000 A 
ATOM     32  H   UNL     1       0.705   3.066  19.170  0.00  0.00    +0.000 HD
ENDBRANCH  21  29
ENDBRANCH  20  21
ENDBRANCH  19  20
ENDBRANCH  18  19
ENDBRANCH   1  18
TORSDOF 7
ENDMDL
MODEL 8
REMARK VINA RESULT:      -8.0      2.021      2.328
REMARK  Name = 
REMARK  7 active torsions:
REMARK  status: ('A' for Active; 'I' for Inactive)
REMARK    1  A    between atoms: C_8  and  O_9
REMARK    2  A    between atoms: O_9  and  C_10
REMARK    3  A    between atoms: C_10  and  C_11
REMARK    4  A    between atoms: C_11  and  C_12
REMARK    5  A    between atoms: C_12  and  C_13
REMARK    6  A    between atoms: C_13  and  N_14
REMARK    7  A    between atoms: N_17  and  C_18
REMARK                            x       y       z     vdW  Elec       q    Type
REMARK                         _______ _______ _______ _____ _____    ______ ____
ROOT
ATOM      1  C   UNL     1       8.267   7.475  18.461  0.00  0.00    +0.000 C 
ENDROOT
BRANCH   1   2
ATOM      2  N   UNL     1       7.526   6.434  17.756  0.00  0.00    +0.000 NA
ATOM      3  C   UNL     1       6.985   5.427  18.665  0.00  0.00    +0.000 C 
ATOM      4  C   UNL     1       5.685   5.896  19.354  0.00  0.00    +0.000 C 
ATOM      5  N   UNL     1       4.598   5.887  18.364  0.00  0.00    +0.000 N 
ATOM      6  C   UNL     1       4.927   6.793  17.223  0.00  0.00    +0.000 C 
ATOM      7  C   UNL     1       6.458   6.871  16.825  0.00  0.00    +0.000 C 
BRANCH   5   8
ATOM      8  C   UNL     1       3.973   4.637  18.150  0.00  0.00    +0.000 A 
ATOM      9  C   UNL     1       4.507   3.723  17.202  0.00  0.00    +0.000 A 
ATOM     10  C   UNL     1       3.987   2.462  16.942  0.00  0.00    +0.000 A 
ATOM     11  C   UNL     1       2.937   2.012  17.700  0.00  0.00    +0.000 A 
ATOM     12  C   UNL     1       2.416   2.820  18.720  0.00  0.00    +0.000 A 
ATOM     13  C   UNL     1       2.884   4.156  18.925  0.00  0.00    +0.000 A 
ATOM     14  C   UNL     1       2.301   4.948  20.083  0.00  0.00    +0.000 C 
ATOM     15  C   UNL     1       0.991   4.375  20.641  0.00  0.00    +0.000 C 
ATOM     16  C   UNL     1       1.127   2.884  20.892  0.00  0.00    +0.000 C 
ATOM     17  C   UNL     1       1.351   2.173  19.571  0.00  0.00    +0.000 C 
ENDBRANCH   5   8
ENDBRANCH   1   2
BRANCH   1  18
ATOM     18  C   UNL     1       7.931   8.883  17.902  0.00  0.00    +0.000 C 
BRANCH  18  19
ATOM     19  C   UNL     1       9.069   9.907  18.040  0.00  0.00    +0.000 C 
BRANCH  19  20
ATOM     20  C   UNL     1       9.029  10.554  19.416  0.00  0.00    +0.000 C 
BRANCH  20  21
ATOM     21  O   UNL     1      10.333  10.975  19.811  0.00  0.00    +0.000 OA
BRANCH  21  29
ATOM     22  O   UNL     1       8.516  14.413  23.651  0.00  0.00    +0.000 OA
ATOM     23  C   UNL     1       9.301  14.832  22.823  0.00  0.00    +0.000 C 
ATOM     24  N   UNL     1       9.825  16.108  22.747  0.00  0.00    +0.000 N 
ATOM     25  C   UNL     1      10.749  16.278  21.650  0.00  0.00    +0.000 C 
ATOM     26  C   UNL     1      10.746  14.927  21.017  0.00  0.00    +0.000 A 
ATOM     27  C   UNL     1      11.436  14.457  19.916  0.00  0.00    +0.000 A 
ATOM     28  C   UNL     1      11.254  13.116  19.549  0.00  0.00    +0.000 A 
ATOM     29  C   UNL     1      10.395  12.267  20.274  0.00  0.00    +0.000 A 
ATOM     30  C   UNL     1       9.695  12.760  21.379  0.00  0.00    +0.000 A 
ATOM     31  C   UNL     1       9.895  14.079  21.717  0.00  0.00    +0.000 A 
ATOM     32  H   UNL     1       9.570  16.820  23.420  0.00  0.00    +0.000 HD
ENDBRANCH  21  29
ENDBRANCH  20  21
ENDBRANCH  19  20
ENDBRANCH  18  19
ENDBRANCH   1  18
TORSDOF 7
ENDMDL
MODEL 9
REMARK VINA RESULT:      -7.9      5.407      9.551
REMARK  Name = 
REMARK  7 active torsions:
REMARK  status: ('A' for Active; 'I' for Inactive)
REMARK    1  A    between atoms: C_8  and  O_9
REMARK    2  A    between atoms: O_9  and  C_10
REMARK    3  A    between atoms: C_10  and  C_11
REMARK    4  A    between atoms: C_11  and  C_12
REMARK    5  A    between atoms: C_12  and  C_13
REMARK    6  A    between atoms: C_13  and  N_14
REMARK    7  A    between atoms: N_17  and  C_18
REMARK                            x       y       z     vdW  Elec       q    Type
REMARK                         _______ _______ _______ _____ _____    ______ ____
ROOT
ATOM      1  C   UNL     1       2.015   6.130  19.211  0.00  0.00    +0.000 C 
ENDROOT
BRANCH   1   2
ATOM      2  N   UNL     1       2.382   7.474  19.646  0.00  0.00    +0.000 NA
ATOM      3  C   UNL     1       2.437   8.420  18.536  0.00  0.00    +0.000 C 
ATOM      4  C   UNL     1       1.036   8.927  18.128  0.00  0.00    +0.000 C 
ATOM      5  N   UNL     1       0.549   9.851  19.164  0.00  0.00    +0.000 N 
ATOM      6  C   UNL     1       0.478   9.158  20.485  0.00  0.00    +0.000 C 
ATOM      7  C   UNL     1       1.596   8.069  20.753  0.00  0.00    +0.000 C 
BRANCH   5   8
ATOM      8  C   UNL     1       1.007  11.184  19.061  0.00  0.00    +0.000 A 
ATOM      9  C   UNL     1       2.131  11.495  18.249  0.00  0.00    +0.000 A 
ATOM     10  C   UNL     1       2.637  12.773  18.057  0.00  0.00    +0.000 A 
ATOM     11  C   UNL     1       1.972  13.836  18.612  0.00  0.00    +0.000 A 
ATOM     12  C   UNL     1       0.800  13.618  19.348  0.00  0.00    +0.000 A 
ATOM     13  C   UNL     1       0.330  12.297  19.630  0.00  0.00    +0.000 A 
ATOM     14  C   UNL     1      -0.975  12.149  20.393  0.00  0.00    +0.000 C 
ATOM     15  C   UNL     1      -1.422  13.420  21.126  0.00  0.00    +0.000 C 
ATOM     16  C   UNL     1      -1.359  14.620  20.198  0.00  0.00    +0.000 C 
ATOM     17  C   UNL     1       0.084  14.868  19.800  0.00  0.00    +0.000 C 
ENDBRANCH   5   8
ENDBRANCH   1   2
BRANCH   1  18
ATOM     18  C   UNL     1       1.387   5.314  20.373  0.00  0.00    +0.000 C 
BRANCH  18  19
ATOM     19  C   UNL     1       2.042   3.944  20.611  0.00  0.00    +0.000 C 
BRANCH  19  20
ATOM     20  C   UNL     1       1.869   3.060  19.386  0.00  0.00    +0.000 C 
BRANCH  20  21
ATOM     21  O   UNL     1       3.111   2.462  19.018  0.00  0.00    +0.000 OA
BRANCH  21  29
ATOM     22  O   UNL     1       7.531   5.465  20.165  0.00  0.00    +0.000 OA
ATOM     23  C   UNL     1       7.094   5.487  19.031  0.00  0.00    +0.000 C 
ATOM     24  N   UNL     1       7.609   6.185  17.957  0.00  0.00    +0.000 N 
ATOM     25  C   UNL     1       6.861   5.985  16.738  0.00  0.00    +0.000 C 
ATOM     26  C   UNL     1       5.777   5.059  17.176  0.00  0.00    +0.000 A 
ATOM     27  C   UNL     1       4.737   4.499  16.458  0.00  0.00    +0.000 A 
ATOM     28  C   UNL     1       3.863   3.635  17.131  0.00  0.00    +0.000 A 
ATOM     29  C   UNL     1       4.031   3.341  18.499  0.00  0.00    +0.000 A 
ATOM     30  C   UNL     1       5.080   3.923  19.215  0.00  0.00    +0.000 A 
ATOM     31  C   UNL     1       5.924   4.766  18.527  0.00  0.00    +0.000 A 
ATOM     32  H   UNL     1       8.438   6.759  18.053  0.00  0.00    +0.000 HD
ENDBRANCH  21  29
ENDBRANCH  20  21
ENDBRANCH  19  20
ENDBRANCH  18  19
ENDBRANCH   1  18
TORSDOF 7
ENDMDL
