MODEL 1
REMARK VINA RESULT:      -7.0      0.000      0.000
REMARK  Name = 
REMARK  3 active torsions:
REMARK  status: ('A' for Active; 'I' for Inactive)
REMARK    1  A    between atoms: C_1  and  C_2
REMARK    2  A    between atoms: C_2  and  C_3
REMARK    3  A    between atoms: C_2  and  C_4
REMARK                            x       y       z     vdW  Elec       q    Type
REMARK                         _______ _______ _______ _____ _____    ______ ____
ROOT
ATOM      1  C   UNL     1       6.150   5.079  18.015  0.00  0.00    +0.000 C 
ATOM      2  N   UNL     1       5.932   4.147  18.894  0.00  0.00    +0.000 NA
ATOM      3  N   UNL     1       4.684   3.615  18.670  0.00  0.00    +0.000 N 
ATOM      4  C   UNL     1       4.266   2.480  19.323  0.00  0.00    +0.000 C 
ATOM      5  N   UNL     1       4.961   1.848  20.220  0.00  0.00    +0.000 NA
ATOM      6  C   UNL     1       2.934   1.938  18.883  0.00  0.00    +0.000 C 
ATOM      7  C   UNL     1       2.093   2.950  18.121  0.00  0.00    +0.000 C 
ATOM      8  O   UNL     1       0.869   2.874  18.164  0.00  0.00    +0.000 OA
ATOM      9  N   UNL     1       2.725   3.898  17.333  0.00  0.00    +0.000 NA
ATOM     10  C   UNL     1       3.934   4.187  17.674  0.00  0.00    +0.000 C 
ATOM     11  S   UNL     1       4.869   5.419  16.861  0.00  0.00    +0.000 S 
ATOM     12  H   UNL     1       5.838   2.384  20.330  0.00  0.00    +0.000 HD
ENDROOT
BRANCH   1  14
ATOM     13  C   UNL     1       7.183   7.252  17.423  0.00  0.00    +0.000 C 
ATOM     14  C   UNL     1       7.445   5.841  17.944  0.00  0.00    +0.000 C 
ATOM     15  C   UNL     1       8.064   5.882  19.341  0.00  0.00    +0.000 C 
ENDBRANCH   1  14
TORSDOF 1
ENDMDL
MODEL 2
REMARK VINA RESULT:      -6.9      2.630      4.859
REMARK  Name = 
REMARK  3 active torsions:
REMARK  status: ('A' for Active; 'I' for Inactive)
REMARK    1  A    between atoms: C_1  and  C_2
REMARK    2  A    between atoms: C_2  and  C_3
REMARK    3  A    between atoms: C_2  and  C_4
REMARK                            x       y       z     vdW  Elec       q    Type
REMARK                         _______ _______ _______ _____ _____    ______ ____
ROOT
ATOM      1  C   UNL     1       3.935   3.324  19.074  0.00  0.00    +0.000 C 
ATOM      2  N   UNL     1       5.048   3.813  19.533  0.00  0.00    +0.000 NA
ATOM      3  N   UNL     1       5.696   4.466  18.511  0.00  0.00    +0.000 N 
ATOM      4  C   UNL     1       6.801   5.246  18.751  0.00  0.00    +0.000 C 
ATOM      5  N   UNL     1       7.354   5.400  19.916  0.00  0.00    +0.000 NA
ATOM      6  C   UNL     1       7.325   6.004  17.563  0.00  0.00    +0.000 C 
ATOM      7  C   UNL     1       6.828   5.458  16.234  0.00  0.00    +0.000 C 
ATOM      8  O   UNL     1       7.524   5.585  15.230  0.00  0.00    +0.000 OA
ATOM      9  N   UNL     1       5.566   4.891  16.163  0.00  0.00    +0.000 NA
ATOM     10  C   UNL     1       5.112   4.412  17.271  0.00  0.00    +0.000 C 
ATOM     11  S   UNL     1       3.579   3.578  17.372  0.00  0.00    +0.000 S 
ATOM     12  H   UNL     1       6.810   4.814  20.570  0.00  0.00    +0.000 HD
ENDROOT
BRANCH   1  14
ATOM     13  C   UNL     1       2.426   3.513  21.030  0.00  0.00    +0.000 C 
ATOM     14  C   UNL     1       2.955   2.583  19.942  0.00  0.00    +0.000 C 
ATOM     15  C   UNL     1       1.814   2.071  19.062  0.00  0.00    +0.000 C 
ENDBRANCH   1  14
TORSDOF 1
ENDMDL
MODEL 3
REMARK VINA RESULT:      -6.7      0.506      1.066
REMARK  Name = 
REMARK  3 active torsions:
REMARK  status: ('A' for Active; 'I' for Inactive)
REMARK    1  A    between atoms: C_1  and  C_2
REMARK    2  A    between atoms: C_2  and  C_3
REMARK    3  A    between atoms: C_2  and  C_4
REMARK                            x       y       z     vdW  Elec       q    Type
REMARK                         _______ _______ _______ _____ _____    ______ ____
ROOT
ATOM      1  C   UNL     1       5.686   5.397  18.408  0.00  0.00    +0.000 C 
ATOM      2  N   UNL     1       5.621   4.323  19.135  0.00  0.00    +0.000 NA
ATOM      3  N   UNL     1       4.441   3.674  18.858  0.00  0.00    +0.000 N 
ATOM      4  C   UNL     1       4.193   2.410  19.336  0.00  0.00    +0.000 C 
ATOM      5  N   UNL     1       4.997   1.744  20.108  0.00  0.00    +0.000 NA
ATOM      6  C   UNL     1       2.922   1.773  18.845  0.00  0.00    +0.000 C 
ATOM      7  C   UNL     1       1.933   2.773  18.267  0.00  0.00    +0.000 C 
ATOM      8  O   UNL     1       0.730   2.534  18.324  0.00  0.00    +0.000 OA
ATOM      9  N   UNL     1       2.409   3.902  17.622  0.00  0.00    +0.000 NA
ATOM     10  C   UNL     1       3.586   4.289  17.979  0.00  0.00    +0.000 C 
ATOM     11  S   UNL     1       4.327   5.741  17.348  0.00  0.00    +0.000 S 
ATOM     12  H   UNL     1       5.805   2.365  20.282  0.00  0.00    +0.000 HD
ENDROOT
BRANCH   1  14
ATOM     13  C   UNL     1       8.006   5.686  19.228  0.00  0.00    +0.000 C 
ATOM     14  C   UNL     1       6.872   6.322  18.429  0.00  0.00    +0.000 C 
ATOM     15  C   UNL     1       7.306   6.591  16.988  0.00  0.00    +0.000 C 
ENDBRANCH   1  14
TORSDOF 1
ENDMDL
MODEL 4
REMARK VINA RESULT:      -6.6      1.367      1.539
REMARK  Name = 
REMARK  3 active torsions:
REMARK  status: ('A' for Active; 'I' for Inactive)
REMARK    1  A    between atoms: C_1  and  C_2
REMARK    2  A    between atoms: C_2  and  C_3
REMARK    3  A    between atoms: C_2  and  C_4
REMARK                            x       y       z     vdW  Elec       q    Type
REMARK                         _______ _______ _______ _____ _____    ______ ____
ROOT
ATOM      1  C   UNL     1       5.876   5.038  17.864  0.00  0.00    +0.000 C 
ATOM      2  N   UNL     1       5.837   4.042  18.697  0.00  0.00    +0.000 NA
ATOM      3  N   UNL     1       4.536   3.857  19.101  0.00  0.00    +0.000 N 
ATOM      4  C   UNL     1       4.166   2.752  19.830  0.00  0.00    +0.000 C 
ATOM      5  N   UNL     1       4.986   1.831  20.237  0.00  0.00    +0.000 NA
ATOM      6  C   UNL     1       2.691   2.615  20.088  0.00  0.00    +0.000 C 
ATOM      7  C   UNL     1       1.921   3.910  19.885  0.00  0.00    +0.000 C 
ATOM      8  O   UNL     1       0.895   4.110  20.527  0.00  0.00    +0.000 OA
ATOM      9  N   UNL     1       2.353   4.811  18.925  0.00  0.00    +0.000 NA
ATOM     10  C   UNL     1       3.607   4.751  18.633  0.00  0.00    +0.000 C 
ATOM     11  S   UNL     1       4.363   5.859  17.513  0.00  0.00    +0.000 S 
ATOM     12  H   UNL     1       5.925   2.123  19.919  0.00  0.00    +0.000 HD
ENDROOT
BRANCH   1  14
ATOM     13  C   UNL     1       7.068   5.178  15.696  0.00  0.00    +0.000 C 
ATOM     14  C   UNL     1       7.144   5.484  17.189  0.00  0.00    +0.000 C 
ATOM     15  C   UNL     1       7.323   6.983  17.429  0.00  0.00    +0.000 C 
ENDBRANCH   1  14
TORSDOF 1
ENDMDL
MODEL 5
REMARK VINA RESULT:      -6.4      2.581      4.709
REMARK  Name = 
REMARK  3 active torsions:
REMARK  status: ('A' for Active; 'I' for Inactive)
REMARK    1  A    between atoms: C_1  and  C_2
REMARK    2  A    between atoms: C_2  and  C_3
REMARK    3  A    between atoms: C_2  and  C_4
REMARK                            x       y       z     vdW  Elec       q    Type
REMARK                         _______ _______ _______ _____ _____    ______ ____
ROOT
ATOM      1  C   UNL     1       2.979   3.958  19.265  0.00  0.00    +0.000 C 
ATOM      2  N   UNL     1       4.178   4.276  19.651  0.00  0.00    +0.000 NA
ATOM      3  N   UNL     1       4.962   4.469  18.539  0.00  0.00    +0.000 N 
ATOM      4  C   UNL     1       6.224   5.004  18.640  0.00  0.00    +0.000 C 
ATOM      5  N   UNL     1       6.800   5.323  19.758  0.00  0.00    +0.000 NA
ATOM      6  C   UNL     1       6.913   5.280  17.332  0.00  0.00    +0.000 C 
ATOM      7  C   UNL     1       6.296   4.537  16.157  0.00  0.00    +0.000 C 
ATOM      8  O   UNL     1       6.999   4.231  15.199  0.00  0.00    +0.000 OA
ATOM      9  N   UNL     1       4.935   4.283  16.157  0.00  0.00    +0.000 NA
ATOM     10  C   UNL     1       4.380   4.230  17.319  0.00  0.00    +0.000 C 
ATOM     11  S   UNL     1       2.692   3.834  17.536  0.00  0.00    +0.000 S 
ATOM     12  H   UNL     1       6.131   5.074  20.506  0.00  0.00    +0.000 HD
ENDROOT
BRANCH   1  14
ATOM     13  C   UNL     1       0.764   2.886  19.558  0.00  0.00    +0.000 C 
ATOM     14  C   UNL     1       1.850   3.720  20.231  0.00  0.00    +0.000 C 
ATOM     15  C   UNL     1       2.405   3.002  21.461  0.00  0.00    +0.000 C 
ENDBRANCH   1  14
TORSDOF 1
ENDMDL
MODEL 6
REMARK VINA RESULT:      -6.4      2.961      5.424
REMARK  Name = 
REMARK  3 active torsions:
REMARK  status: ('A' for Active; 'I' for Inactive)
REMARK    1  A    between atoms: C_1  and  C_2
REMARK    2  A    between atoms: C_2  and  C_3
REMARK    3  A    between atoms: C_2  and  C_4
REMARK                            x       y       z     vdW  Elec       q    Type
REMARK                         _______ _______ _______ _____ _____    ______ ____
ROOT
ATOM      1  C   UNL     1       2.534   3.972  19.500  0.00  0.00    +0.000 C 
ATOM      2  N   UNL     1       2.673   5.148  18.966  0.00  0.00    +0.000 NA
ATOM      3  N   UNL     1       4.000   5.339  18.661  0.00  0.00    +0.000 N 
ATOM      4  C   UNL     1       4.412   6.413  17.910  0.00  0.00    +0.000 C 
ATOM      5  N   UNL     1       3.625   7.348  17.469  0.00  0.00    +0.000 NA
ATOM      6  C   UNL     1       5.870   6.422  17.543  0.00  0.00    +0.000 C 
ATOM      7  C   UNL     1       6.714   5.499  18.409  0.00  0.00    +0.000 C 
ATOM      8  O   UNL     1       7.895   5.768  18.607  0.00  0.00    +0.000 OA
ATOM      9  N   UNL     1       6.154   4.332  18.900  0.00  0.00    +0.000 NA
ATOM     10  C   UNL     1       4.871   4.343  19.026  0.00  0.00    +0.000 C 
ATOM     11  S   UNL     1       3.984   3.001  19.710  0.00  0.00    +0.000 S 
ATOM     12  H   UNL     1       2.681   7.113  17.817  0.00  0.00    +0.000 HD
ENDROOT
BRANCH   1  14
ATOM     13  C   UNL     1       0.729   2.388  18.890  0.00  0.00    +0.000 C 
ATOM     14  C   UNL     1       1.196   3.420  19.912  0.00  0.00    +0.000 C 
ATOM     15  C   UNL     1       1.335   2.790  21.298  0.00  0.00    +0.000 C 
ENDBRANCH   1  14
TORSDOF 1
ENDMDL
MODEL 7
REMARK VINA RESULT:      -6.4      2.246      2.800
REMARK  Name = 
REMARK  3 active torsions:
REMARK  status: ('A' for Active; 'I' for Inactive)
REMARK    1  A    between atoms: C_1  and  C_2
REMARK    2  A    between atoms: C_2  and  C_3
REMARK    3  A    between atoms: C_2  and  C_4
REMARK                            x       y       z     vdW  Elec       q    Type
REMARK                         _______ _______ _______ _____ _____    ______ ____
ROOT
ATOM      1  C   UNL     1       4.684   4.432  17.434  0.00  0.00    +0.000 C 
ATOM      2  N   UNL     1       3.861   3.427  17.393  0.00  0.00    +0.000 NA
ATOM      3  N   UNL     1       3.174   3.371  18.582  0.00  0.00    +0.000 N 
ATOM      4  C   UNL     1       2.100   2.530  18.746  0.00  0.00    +0.000 C 
ATOM      5  N   UNL     1       1.672   1.699  17.846  0.00  0.00    +0.000 NA
ATOM      6  C   UNL     1       1.365   2.670  20.051  0.00  0.00    +0.000 C 
ATOM      7  C   UNL     1       2.171   3.389  21.122  0.00  0.00    +0.000 C 
ATOM      8  O   UNL     1       1.973   3.128  22.305  0.00  0.00    +0.000 OA
ATOM      9  N   UNL     1       3.066   4.378  20.746  0.00  0.00    +0.000 NA
ATOM     10  C   UNL     1       3.524   4.283  19.545  0.00  0.00    +0.000 C 
ATOM     11  S   UNL     1       4.728   5.381  18.912  0.00  0.00    +0.000 S 
ATOM     12  H   UNL     1       2.307   1.802  17.037  0.00  0.00    +0.000 HD
ENDROOT
BRANCH   1  14
ATOM     13  C   UNL     1       5.296   6.261  15.880  0.00  0.00    +0.000 C 
ATOM     14  C   UNL     1       5.562   4.811  16.273  0.00  0.00    +0.000 C 
ATOM     15  C   UNL     1       7.022   4.617  16.683  0.00  0.00    +0.000 C 
ENDBRANCH   1  14
TORSDOF 1
ENDMDL
MODEL 8
REMARK VINA RESULT:      -6.3      2.696      4.578
REMARK  Name = 
REMARK  3 active torsions:
REMARK  status: ('A' for Active; 'I' for Inactive)
REMARK    1  A    between atoms: C_1  and  C_2
REMARK    2  A    between atoms: C_2  and  C_3
REMARK    3  A    between atoms: C_2  and  C_4
REMARK                            x       y       z     vdW  Elec       q    Type
REMARK                         _______ _______ _______ _____ _____    ______ ____
ROOT
ATOM      1  C   UNL     1       3.821   3.732  19.187  0.00  0.00    +0.000 C 
ATOM      2  N   UNL     1       5.100   3.941  19.271  0.00  0.00    +0.000 NA
ATOM      3  N   UNL     1       5.594   4.166  18.008  0.00  0.00    +0.000 N 
ATOM      4  C   UNL     1       6.881   4.607  17.814  0.00  0.00    +0.000 C 
ATOM      5  N   UNL     1       7.743   4.802  18.764  0.00  0.00    +0.000 NA
ATOM      6  C   UNL     1       7.240   4.936  16.391  0.00  0.00    +0.000 C 
ATOM      7  C   UNL     1       6.289   4.327  15.373  0.00  0.00    +0.000 C 
ATOM      8  O   UNL     1       6.703   4.048  14.251  0.00  0.00    +0.000 OA
ATOM      9  N   UNL     1       4.955   4.163  15.706  0.00  0.00    +0.000 NA
ATOM     10  C   UNL     1       4.708   4.058  16.967  0.00  0.00    +0.000 C 
ATOM     11  S   UNL     1       3.100   3.759  17.585  0.00  0.00    +0.000 S 
ATOM     12  H   UNL     1       7.265   4.541  19.642  0.00  0.00    +0.000 HD
ENDROOT
BRANCH   1  14
ATOM     13  C   UNL     1       2.265   4.799  20.794  0.00  0.00    +0.000 C 
ATOM     14  C   UNL     1       2.955   3.497  20.394  0.00  0.00    +0.000 C 
ATOM     15  C   UNL     1       1.926   2.418  20.054  0.00  0.00    +0.000 C 
ENDBRANCH   1  14
TORSDOF 1
ENDMDL
MODEL 9
REMARK VINA RESULT:      -6.3      1.816      2.169
REMARK  Name = 
REMARK  3 active torsions:
REMARK  status: ('A' for Active; 'I' for Inactive)
REMARK    1  A    between atoms: C_1  and  C_2
REMARK    2  A    between atoms: C_2  and  C_3
REMARK    3  A    between atoms: C_2  and  C_4
REMARK                            x       y       z     vdW  Elec       q    Type
REMARK                         _______ _______ _______ _____ _____    ______ ____
ROOT
ATOM      1  C   UNL     1       5.064   5.204  18.140  0.00  0.00    +0.000 C 
ATOM      2  N   UNL     1       4.270   5.478  19.131  0.00  0.00    +0.000 NA
ATOM      3  N   UNL     1       3.257   4.549  19.152  0.00  0.00    +0.000 N 
ATOM      4  C   UNL     1       2.380   4.475  20.208  0.00  0.00    +0.000 C 
ATOM      5  N   UNL     1       2.389   5.276  21.230  0.00  0.00    +0.000 NA
ATOM      6  C   UNL     1       1.409   3.328  20.159  0.00  0.00    +0.000 C 
ATOM      7  C   UNL     1       1.270   2.715  18.774  0.00  0.00    +0.000 C 
ATOM      8  O   UNL     1       0.211   2.185  18.451  0.00  0.00    +0.000 OA
ATOM      9  N   UNL     1       2.365   2.702  17.926  0.00  0.00    +0.000 NA
ATOM     10  C   UNL     1       3.244   3.620  18.143  0.00  0.00    +0.000 C 
ATOM     11  S   UNL     1       4.653   3.827  17.129  0.00  0.00    +0.000 S 
ATOM     12  H   UNL     1       3.152   5.951  21.056  0.00  0.00    +0.000 HD
ENDROOT
BRANCH   1  14
ATOM     13  C   UNL     1       7.339   5.757  18.952  0.00  0.00    +0.000 C 
ATOM     14  C   UNL     1       6.309   5.999  17.853  0.00  0.00    +0.000 C 
ATOM     15  C   UNL     1       6.856   5.573  16.490  0.00  0.00    +0.000 C 
ENDBRANCH   1  14
TORSDOF 1
ENDMDL
