MODEL 1
REMARK VINA RESULT:      -8.1      0.000      0.000
REMARK  Name = 
REMARK  4 active torsions:
REMARK  status: ('A' for Active; 'I' for Inactive)
REMARK    1  A    between atoms: C_1  and  O_2
REMARK    2  A    between atoms: O_2  and  C_3
REMARK    3  A    between atoms: C_12  and  C_13
REMARK    4  A    between atoms: C_22  and  C_23
REMARK                            x       y       z     vdW  Elec       q    Type
REMARK                         _______ _______ _______ _____ _____    ______ ____
ROOT
ATOM      1  C   UNL     1       1.726   3.766  19.493  0.00  0.00    +0.000 A 
ATOM      2  C   UNL     1       1.725   2.780  18.500  0.00  0.00    +0.000 A 
ATOM      3  C   UNL     1       2.632   2.814  17.383  0.00  0.00    +0.000 A 
ATOM      4  C   UNL     1       3.646   3.772  17.320  0.00  0.00    +0.000 A 
ATOM      5  C   UNL     1       3.669   4.623  18.457  0.00  0.00    +0.000 A 
ATOM      6  C   UNL     1       2.648   4.786  19.398  0.00  0.00    +0.000 A 
ATOM      7  S   UNL     1       5.318   4.546  19.168  0.00  0.00    +0.000 S 
ATOM      8  C   UNL     1       5.946   4.019  17.557  0.00  0.00    +0.000 C 
ATOM      9  N   UNL     1       7.029   4.667  17.279  0.00  0.00    +0.000 NA
ATOM     10  C   UNL     1       6.593   5.917  16.834  0.00  0.00    +0.000 C 
ATOM     11  C   UNL     1       5.593   5.867  15.863  0.00  0.00    +0.000 C 
ATOM     12  C   UNL     1       5.153   4.306  15.209  0.00  0.00    +0.000 C 
ATOM     13  C   UNL     1       5.916   3.778  13.915  0.00  0.00    +0.000 C 
ATOM     14  N   UNL     1       4.945   3.587  16.580  0.00  0.00    +0.000 N 
ENDROOT
BRANCH  10  15
ATOM     15  C   UNL     1       7.298   7.090  17.567  0.00  0.00    +0.000 A 
ATOM     16  C   UNL     1       8.189   6.913  18.627  0.00  0.00    +0.000 A 
ATOM     17  C   UNL     1       8.878   8.015  19.226  0.00  0.00    +0.000 A 
ATOM     18  C   UNL     1       8.686   9.312  18.772  0.00  0.00    +0.000 A 
ATOM     19 CL   UNL     1       9.513  10.635  19.529  0.00  0.00    +0.000 Cl
ATOM     20  C   UNL     1       7.840   9.538  17.710  0.00  0.00    +0.000 A 
ATOM     21  C   UNL     1       7.159   8.431  17.109  0.00  0.00    +0.000 A 
ENDBRANCH  10  15
BRANCH   1  23
ATOM     22  C   UNL     1       1.289   2.899  21.706  0.00  0.00    +0.000 C 
ATOM     23  O   UNL     1       1.020   3.827  20.671  0.00  0.00    +0.000 OA
ENDBRANCH   1  23
BRANCH  13  24
ATOM     24  C   UNL     1       6.974   4.820  14.242  0.00  0.00    +0.000 C 
ATOM     25  N   UNL     1       7.851   5.684  14.513  0.00  0.00    +0.000 NA
ENDBRANCH  13  24
TORSDOF 3
ENDMDL
MODEL 2
REMARK VINA RESULT:      -7.2      0.401      1.031
REMARK  Name = 
REMARK  4 active torsions:
REMARK  status: ('A' for Active; 'I' for Inactive)
REMARK    1  A    between atoms: C_1  and  O_2
REMARK    2  A    between atoms: O_2  and  C_3
REMARK    3  A    between atoms: C_12  and  C_13
REMARK    4  A    between atoms: C_22  and  C_23
REMARK                            x       y       z     vdW  Elec       q    Type
REMARK                         _______ _______ _______ _____ _____    ______ ____
ROOT
ATOM      1  C   UNL     1       1.721   3.933  19.137  0.00  0.00    +0.000 A 
ATOM      2  C   UNL     1       1.703   2.954  18.137  0.00  0.00    +0.000 A 
ATOM      3  C   UNL     1       2.630   2.963  17.036  0.00  0.00    +0.000 A 
ATOM      4  C   UNL     1       3.680   3.883  16.998  0.00  0.00    +0.000 A 
ATOM      5  C   UNL     1       3.712   4.725  18.142  0.00  0.00    +0.000 A 
ATOM      6  C   UNL     1       2.682   4.919  19.066  0.00  0.00    +0.000 A 
ATOM      7  S   UNL     1       5.344   4.583  18.882  0.00  0.00    +0.000 S 
ATOM      8  C   UNL     1       5.982   4.044  17.279  0.00  0.00    +0.000 C 
ATOM      9  N   UNL     1       7.093   4.655  17.025  0.00  0.00    +0.000 NA
ATOM     10  C   UNL     1       6.711   5.922  16.581  0.00  0.00    +0.000 C 
ATOM     11  C   UNL     1       5.728   5.915  15.592  0.00  0.00    +0.000 C 
ATOM     12  C   UNL     1       5.243   4.375  14.920  0.00  0.00    +0.000 C 
ATOM     13  C   UNL     1       6.010   3.829  13.636  0.00  0.00    +0.000 C 
ATOM     14  N   UNL     1       4.984   3.656  16.281  0.00  0.00    +0.000 N 
ENDROOT
BRANCH  10  15
ATOM     15  C   UNL     1       7.445   7.064  17.335  0.00  0.00    +0.000 A 
ATOM     16  C   UNL     1       7.389   8.405  16.948  0.00  0.00    +0.000 A 
ATOM     17  C   UNL     1       8.016   9.438  17.714  0.00  0.00    +0.000 A 
ATOM     18  C   UNL     1       8.709   9.144  18.881  0.00  0.00    +0.000 A 
ATOM     19 CL   UNL     1       9.482  10.410  19.780  0.00  0.00    +0.000 Cl
ATOM     20  C   UNL     1       8.770   7.842  19.322  0.00  0.00    +0.000 A 
ATOM     21  C   UNL     1       8.134   6.813  18.555  0.00  0.00    +0.000 A 
ENDBRANCH  10  15
BRANCH   1  23
ATOM     22  C   UNL     1       1.664   4.166  21.541  0.00  0.00    +0.000 C 
ATOM     23  O   UNL     1       0.997   4.012  20.302  0.00  0.00    +0.000 OA
ENDBRANCH   1  23
BRANCH  13  24
ATOM     24  C   UNL     1       7.099   4.829  13.989  0.00  0.00    +0.000 C 
ATOM     25  N   UNL     1       8.002   5.659  14.281  0.00  0.00    +0.000 NA
ENDBRANCH  13  24
TORSDOF 3
ENDMDL
MODEL 3
REMARK VINA RESULT:      -6.8      3.683      5.674
REMARK  Name = 
REMARK  4 active torsions:
REMARK  status: ('A' for Active; 'I' for Inactive)
REMARK    1  A    between atoms: C_1  and  O_2
REMARK    2  A    between atoms: O_2  and  C_3
REMARK    3  A    between atoms: C_12  and  C_13
REMARK    4  A    between atoms: C_22  and  C_23
REMARK                            x       y       z     vdW  Elec       q    Type
REMARK                         _______ _______ _______ _____ _____    ______ ____
ROOT
ATOM      1  C   UNL     1       1.644   9.333  18.877  0.00  0.00    +0.000 A 
ATOM      2  C   UNL     1       1.278   8.703  20.071  0.00  0.00    +0.000 A 
ATOM      3  C   UNL     1       1.501   7.300  20.300  0.00  0.00    +0.000 A 
ATOM      4  C   UNL     1       2.222   6.536  19.379  0.00  0.00    +0.000 A 
ATOM      5  C   UNL     1       2.696   7.303  18.281  0.00  0.00    +0.000 A 
ATOM      6  C   UNL     1       2.261   8.577  17.903  0.00  0.00    +0.000 A 
ATOM      7  S   UNL     1       4.475   7.072  18.177  0.00  0.00    +0.000 S 
ATOM      8  C   UNL     1       4.286   5.513  19.069  0.00  0.00    +0.000 C 
ATOM      9  N   UNL     1       4.999   4.596  18.500  0.00  0.00    +0.000 NA
ATOM     10  C   UNL     1       4.245   4.193  17.396  0.00  0.00    +0.000 C 
ATOM     11  C   UNL     1       2.913   3.901  17.682  0.00  0.00    +0.000 C 
ATOM     12  C   UNL     1       2.408   3.896  19.356  0.00  0.00    +0.000 C 
ATOM     13  C   UNL     1       2.493   2.531  20.173  0.00  0.00    +0.000 C 
ATOM     14  N   UNL     1       2.997   5.293  19.728  0.00  0.00    +0.000 N 
ENDROOT
BRANCH  10  15
ATOM     15  C   UNL     1       5.066   4.208  16.077  0.00  0.00    +0.000 A 
ATOM     16  C   UNL     1       4.535   3.860  14.834  0.00  0.00    +0.000 A 
ATOM     17  C   UNL     1       5.302   3.961  13.630  0.00  0.00    +0.000 A 
ATOM     18  C   UNL     1       6.614   4.414  13.653  0.00  0.00    +0.000 A 
ATOM     19 CL   UNL     1       7.532   4.506  12.185  0.00  0.00    +0.000 Cl
ATOM     20  C   UNL     1       7.176   4.798  14.849  0.00  0.00    +0.000 A 
ATOM     21  C   UNL     1       6.401   4.702  16.050  0.00  0.00    +0.000 A 
ENDBRANCH  10  15
BRANCH   1  23
ATOM     22  C   UNL     1       0.795  11.561  19.272  0.00  0.00    +0.000 C 
ATOM     23  O   UNL     1       1.611  10.666  18.540  0.00  0.00    +0.000 OA
ENDBRANCH   1  23
BRANCH  13  24
ATOM     24  C   UNL     1       3.432   2.054  19.078  0.00  0.00    +0.000 C 
ATOM     25  N   UNL     1       4.212   1.657  18.169  0.00  0.00    +0.000 NA
ENDBRANCH  13  24
TORSDOF 3
ENDMDL
MODEL 4
REMARK VINA RESULT:      -6.5      3.583      5.507
REMARK  Name = 
REMARK  4 active torsions:
REMARK  status: ('A' for Active; 'I' for Inactive)
REMARK    1  A    between atoms: C_1  and  O_2
REMARK    2  A    between atoms: O_2  and  C_3
REMARK    3  A    between atoms: C_12  and  C_13
REMARK    4  A    between atoms: C_22  and  C_23
REMARK                            x       y       z     vdW  Elec       q    Type
REMARK                         _______ _______ _______ _____ _____    ______ ____
ROOT
ATOM      1  C   UNL     1       1.507   9.067  19.482  0.00  0.00    +0.000 A 
ATOM      2  C   UNL     1       1.092   8.286  20.566  0.00  0.00    +0.000 A 
ATOM      3  C   UNL     1       1.305   6.864  20.614  0.00  0.00    +0.000 A 
ATOM      4  C   UNL     1       2.062   6.224  19.629  0.00  0.00    +0.000 A 
ATOM      5  C   UNL     1       2.581   7.128  18.664  0.00  0.00    +0.000 A 
ATOM      6  C   UNL     1       2.163   8.443  18.442  0.00  0.00    +0.000 A 
ATOM      7  S   UNL     1       4.362   6.902  18.601  0.00  0.00    +0.000 S 
ATOM      8  C   UNL     1       4.136   5.239  19.270  0.00  0.00    +0.000 C 
ATOM      9  N   UNL     1       4.871   4.401  18.612  0.00  0.00    +0.000 NA
ATOM     10  C   UNL     1       4.163   4.154  17.434  0.00  0.00    +0.000 C 
ATOM     11  C   UNL     1       2.819   3.834  17.626  0.00  0.00    +0.000 C 
ATOM     12  C   UNL     1       2.247   3.610  19.262  0.00  0.00    +0.000 C 
ATOM     13  C   UNL     1       2.297   2.148  19.893  0.00  0.00    +0.000 C 
ATOM     14  N   UNL     1       2.821   4.941  19.840  0.00  0.00    +0.000 N 
ENDROOT
BRANCH  10  15
ATOM     15  C   UNL     1       5.036   4.340  16.164  0.00  0.00    +0.000 A 
ATOM     16  C   UNL     1       6.338   4.845  16.190  0.00  0.00    +0.000 A 
ATOM     17  C   UNL     1       7.139   4.929  15.007  0.00  0.00    +0.000 A 
ATOM     18  C   UNL     1       6.648   4.507  13.779  0.00  0.00    +0.000 A 
ATOM     19 CL   UNL     1       7.627   4.642  12.354  0.00  0.00    +0.000 Cl
ATOM     20  C   UNL     1       5.381   3.975  13.703  0.00  0.00    +0.000 A 
ATOM     21  C   UNL     1       4.587   3.887  14.892  0.00  0.00    +0.000 A 
ENDBRANCH  10  15
BRANCH   1  23
ATOM     22  C   UNL     1       0.396  11.187  19.814  0.00  0.00    +0.000 C 
ATOM     23  O   UNL     1       1.489  10.433  19.325  0.00  0.00    +0.000 OA
ENDBRANCH   1  23
BRANCH  13  24
ATOM     24  C   UNL     1       3.280   1.815  18.782  0.00  0.00    +0.000 C 
ATOM     25  N   UNL     1       4.095   1.538  17.861  0.00  0.00    +0.000 NA
ENDBRANCH  13  24
TORSDOF 3
ENDMDL
MODEL 5
REMARK VINA RESULT:      -6.1      7.177      8.992
REMARK  Name = 
REMARK  4 active torsions:
REMARK  status: ('A' for Active; 'I' for Inactive)
REMARK    1  A    between atoms: C_1  and  O_2
REMARK    2  A    between atoms: O_2  and  C_3
REMARK    3  A    between atoms: C_12  and  C_13
REMARK    4  A    between atoms: C_22  and  C_23
REMARK                            x       y       z     vdW  Elec       q    Type
REMARK                         _______ _______ _______ _____ _____    ______ ____
ROOT
ATOM      1  C   UNL     1      -3.448  10.805  16.501  0.00  0.00    +0.000 A 
ATOM      2  C   UNL     1      -3.806  11.728  17.489  0.00  0.00    +0.000 A 
ATOM      3  C   UNL     1      -3.206  11.725  18.797  0.00  0.00    +0.000 A 
ATOM      4  C   UNL     1      -2.136  10.875  19.086  0.00  0.00    +0.000 A 
ATOM      5  C   UNL     1      -1.736  10.097  17.968  0.00  0.00    +0.000 A 
ATOM      6  C   UNL     1      -2.467   9.882  16.796  0.00  0.00    +0.000 A 
ATOM      7  S   UNL     1       0.017  10.384  17.697  0.00  0.00    +0.000 S 
ATOM      8  C   UNL     1       0.163  10.882  19.428  0.00  0.00    +0.000 C 
ATOM      9  N   UNL     1       1.211  10.334  19.952  0.00  0.00    +0.000 NA
ATOM     10  C   UNL     1       0.824   9.023  20.238  0.00  0.00    +0.000 C 
ATOM     11  C   UNL     1      -0.383   8.915  20.927  0.00  0.00    +0.000 C 
ATOM     12  C   UNL     1      -1.147  10.383  21.492  0.00  0.00    +0.000 C 
ATOM     13  C   UNL     1      -0.792  10.913  22.951  0.00  0.00    +0.000 C 
ATOM     14  N   UNL     1      -1.091  11.152  20.134  0.00  0.00    +0.000 N 
ENDROOT
BRANCH  10  15
ATOM     15  C   UNL     1       1.818   7.972  19.672  0.00  0.00    +0.000 A 
ATOM     16  C   UNL     1       2.059   6.736  20.276  0.00  0.00    +0.000 A 
ATOM     17  C   UNL     1       2.924   5.762  19.682  0.00  0.00    +0.000 A 
ATOM     18  C   UNL     1       3.562   6.012  18.475  0.00  0.00    +0.000 A 
ATOM     19 CL   UNL     1       4.625   4.828  17.787  0.00  0.00    +0.000 Cl
ATOM     20  C   UNL     1       3.335   7.204  17.825  0.00  0.00    +0.000 A 
ATOM     21  C   UNL     1       2.463   8.172  18.419  0.00  0.00    +0.000 A 
ENDBRANCH  10  15
BRANCH   1  23
ATOM     22  C   UNL     1      -3.047  10.006  14.256  0.00  0.00    +0.000 C 
ATOM     23  O   UNL     1      -3.829  10.737  15.182  0.00  0.00    +0.000 OA
ENDBRANCH   1  23
BRANCH  13  24
ATOM     24  C   UNL     1       0.425  10.007  22.872  0.00  0.00    +0.000 C 
ATOM     25  N   UNL     1       1.435   9.254  22.806  0.00  0.00    +0.000 NA
ENDBRANCH  13  24
TORSDOF 3
ENDMDL
MODEL 6
REMARK VINA RESULT:      -5.8     11.155     13.335
REMARK  Name = 
REMARK  4 active torsions:
REMARK  status: ('A' for Active; 'I' for Inactive)
REMARK    1  A    between atoms: C_1  and  O_2
REMARK    2  A    between atoms: O_2  and  C_3
REMARK    3  A    between atoms: C_12  and  C_13
REMARK    4  A    between atoms: C_22  and  C_23
REMARK                            x       y       z     vdW  Elec       q    Type
REMARK                         _______ _______ _______ _____ _____    ______ ____
ROOT
ATOM      1  C   UNL     1      -0.911  17.342  18.820  0.00  0.00    +0.000 A 
ATOM      2  C   UNL     1      -1.818  18.054  19.613  0.00  0.00    +0.000 A 
ATOM      3  C   UNL     1      -2.605  17.420  20.638  0.00  0.00    +0.000 A 
ATOM      4  C   UNL     1      -2.390  16.081  20.973  0.00  0.00    +0.000 A 
ATOM      5  C   UNL     1      -1.333  15.493  20.228  0.00  0.00    +0.000 A 
ATOM      6  C   UNL     1      -0.757  15.992  19.057  0.00  0.00    +0.000 A 
ATOM      7  S   UNL     1      -0.149  14.814  21.398  0.00  0.00    +0.000 S 
ATOM      8  C   UNL     1      -1.469  14.736  22.630  0.00  0.00    +0.000 C 
ATOM      9  N   UNL     1      -1.426  13.598  23.243  0.00  0.00    +0.000 NA
ATOM     10  C   UNL     1      -2.030  12.697  22.364  0.00  0.00    +0.000 C 
ATOM     11  C   UNL     1      -3.258  13.121  21.857  0.00  0.00    +0.000 C 
ATOM     12  C   UNL     1      -3.955  14.590  22.500  0.00  0.00    +0.000 C 
ATOM     13  C   UNL     1      -4.932  14.484  23.753  0.00  0.00    +0.000 C 
ATOM     14  N   UNL     1      -2.689  15.485  22.323  0.00  0.00    +0.000 N 
ENDROOT
BRANCH  10  15
ATOM     15  C   UNL     1      -1.161  11.434  22.114  0.00  0.00    +0.000 A 
ATOM     16  C   UNL     1      -0.843  10.508  23.109  0.00  0.00    +0.000 A 
ATOM     17  C   UNL     1      -0.103   9.316  22.822  0.00  0.00    +0.000 A 
ATOM     18  C   UNL     1       0.328   9.034  21.534  0.00  0.00    +0.000 A 
ATOM     19 CL   UNL     1       1.244   7.597  21.214  0.00  0.00    +0.000 Cl
ATOM     20  C   UNL     1       0.016   9.901  20.511  0.00  0.00    +0.000 A 
ATOM     21  C   UNL     1      -0.731  11.088  20.802  0.00  0.00    +0.000 A 
ENDBRANCH  10  15
BRANCH   1  23
ATOM     22  C   UNL     1       1.381  17.668  18.125  0.00  0.00    +0.000 C 
ATOM     23  O   UNL     1      -0.009  17.800  17.889  0.00  0.00    +0.000 OA
ENDBRANCH   1  23
BRANCH  13  24
ATOM     24  C   UNL     1      -4.337  13.103  23.970  0.00  0.00    +0.000 C 
ATOM     25  N   UNL     1      -3.843  11.957  24.149  0.00  0.00    +0.000 NA
ENDBRANCH  13  24
TORSDOF 3
ENDMDL
MODEL 7
REMARK VINA RESULT:      -5.8     10.809     13.073
REMARK  Name = 
REMARK  4 active torsions:
REMARK  status: ('A' for Active; 'I' for Inactive)
REMARK    1  A    between atoms: C_1  and  O_2
REMARK    2  A    between atoms: O_2  and  C_3
REMARK    3  A    between atoms: C_12  and  C_13
REMARK    4  A    between atoms: C_22  and  C_23
REMARK                            x       y       z     vdW  Elec       q    Type
REMARK                         _______ _______ _______ _____ _____    ______ ____
ROOT
ATOM      1  C   UNL     1      -0.305  17.190  18.644  0.00  0.00    +0.000 A 
ATOM      2  C   UNL     1      -1.131  17.965  19.466  0.00  0.00    +0.000 A 
ATOM      3  C   UNL     1      -1.957  17.384  20.491  0.00  0.00    +0.000 A 
ATOM      4  C   UNL     1      -1.861  16.024  20.795  0.00  0.00    +0.000 A 
ATOM      5  C   UNL     1      -0.874  15.357  20.021  0.00  0.00    +0.000 A 
ATOM      6  C   UNL     1      -0.272  15.827  18.851  0.00  0.00    +0.000 A 
ATOM      7  S   UNL     1       0.260  14.548  21.157  0.00  0.00    +0.000 S 
ATOM      8  C   UNL     1      -1.042  14.564  22.409  0.00  0.00    +0.000 C 
ATOM      9  N   UNL     1      -1.096  13.414  22.998  0.00  0.00    +0.000 NA
ATOM     10  C   UNL     1      -1.793  12.591  22.111  0.00  0.00    +0.000 C 
ATOM     11  C   UNL     1      -2.984  13.137  21.634  0.00  0.00    +0.000 C 
ATOM     12  C   UNL     1      -3.534  14.649  22.318  0.00  0.00    +0.000 C 
ATOM     13  C   UNL     1      -4.498  14.607  23.584  0.00  0.00    +0.000 C 
ATOM     14  N   UNL     1      -2.193  15.428  22.138  0.00  0.00    +0.000 N 
ENDROOT
BRANCH  10  15
ATOM     15  C   UNL     1      -1.048  11.260  21.821  0.00  0.00    +0.000 A 
ATOM     16  C   UNL     1      -0.671  10.850  20.541  0.00  0.00    +0.000 A 
ATOM     17  C   UNL     1       0.083   9.653  20.323  0.00  0.00    +0.000 A 
ATOM     18  C   UNL     1       0.473   8.849  21.385  0.00  0.00    +0.000 A 
ATOM     19 CL   UNL     1       1.365   7.391  21.096  0.00  0.00    +0.000 Cl
ATOM     20  C   UNL     1       0.152   9.224  22.670  0.00  0.00    +0.000 A 
ATOM     21  C   UNL     1      -0.597  10.426  22.883  0.00  0.00    +0.000 A 
ENDBRANCH  10  15
BRANCH   1  23
ATOM     22  C   UNL     1       1.970  17.169  17.827  0.00  0.00    +0.000 C 
ATOM     23  O   UNL     1       0.622  17.583  17.707  0.00  0.00    +0.000 OA
ENDBRANCH   1  23
BRANCH  13  24
ATOM     24  C   UNL     1      -4.029  13.172  23.764  0.00  0.00    +0.000 C 
ATOM     25  N   UNL     1      -3.639  11.982  23.912  0.00  0.00    +0.000 NA
ENDBRANCH  13  24
TORSDOF 3
ENDMDL
MODEL 8
REMARK VINA RESULT:      -5.8     10.448     11.974
REMARK  Name = 
REMARK  4 active torsions:
REMARK  status: ('A' for Active; 'I' for Inactive)
REMARK    1  A    between atoms: C_1  and  O_2
REMARK    2  A    between atoms: O_2  and  C_3
REMARK    3  A    between atoms: C_12  and  C_13
REMARK    4  A    between atoms: C_22  and  C_23
REMARK                            x       y       z     vdW  Elec       q    Type
REMARK                         _______ _______ _______ _____ _____    ______ ____
ROOT
ATOM      1  C   UNL     1       0.696   9.513  21.395  0.00  0.00    +0.000 A 
ATOM      2  C   UNL     1      -0.165   9.344  22.485  0.00  0.00    +0.000 A 
ATOM      3  C   UNL     1      -0.851  10.449  23.101  0.00  0.00    +0.000 A 
ATOM      4  C   UNL     1      -0.784  11.728  22.543  0.00  0.00    +0.000 A 
ATOM      5  C   UNL     1      -0.022  11.763  21.344  0.00  0.00    +0.000 A 
ATOM      6  C   UNL     1       0.866  10.785  20.889  0.00  0.00    +0.000 A 
ATOM      7  S   UNL     1      -1.058  12.471  20.057  0.00  0.00    +0.000 S 
ATOM      8  C   UNL     1      -2.046  13.267  21.343  0.00  0.00    +0.000 C 
ATOM      9  N   UNL     1      -2.283  14.495  21.013  0.00  0.00    +0.000 NA
ATOM     10  C   UNL     1      -1.107  15.181  21.324  0.00  0.00    +0.000 C 
ATOM     11  C   UNL     1      -0.616  14.932  22.604  0.00  0.00    +0.000 C 
ATOM     12  C   UNL     1      -1.591  13.971  23.692  0.00  0.00    +0.000 C 
ATOM     13  C   UNL     1      -2.630  14.715  24.642  0.00  0.00    +0.000 C 
ATOM     14  N   UNL     1      -1.843  12.785  22.710  0.00  0.00    +0.000 N 
ENDROOT
BRANCH  10  15
ATOM     15  C   UNL     1      -0.587  16.039  20.138  0.00  0.00    +0.000 A 
ATOM     16  C   UNL     1       0.705  15.934  19.619  0.00  0.00    +0.000 A 
ATOM     17  C   UNL     1       1.123  16.687  18.476  0.00  0.00    +0.000 A 
ATOM     18  C   UNL     1       0.252  17.557  17.834  0.00  0.00    +0.000 A 
ATOM     19 CL   UNL     1       0.787  18.478  16.466  0.00  0.00    +0.000 Cl
ATOM     20  C   UNL     1      -1.042  17.675  18.289  0.00  0.00    +0.000 A 
ATOM     21  C   UNL     1      -1.457  16.914  19.428  0.00  0.00    +0.000 A 
ENDBRANCH  10  15
BRANCH   1  23
ATOM     22  C   UNL     1       1.550   8.813  19.245  0.00  0.00    +0.000 C 
ATOM     23  O   UNL     1       1.332   8.570  20.623  0.00  0.00    +0.000 OA
ENDBRANCH   1  23
BRANCH  13  24
ATOM     24  C   UNL     1      -2.483  15.901  23.702  0.00  0.00    +0.000 C 
ATOM     25  N   UNL     1      -2.361  16.884  22.922  0.00  0.00    +0.000 NA
ENDBRANCH  13  24
TORSDOF 3
ENDMDL
MODEL 9
REMARK VINA RESULT:      -5.7      8.823     10.214
REMARK  Name = 
REMARK  4 active torsions:
REMARK  status: ('A' for Active; 'I' for Inactive)
REMARK    1  A    between atoms: C_1  and  O_2
REMARK    2  A    between atoms: O_2  and  C_3
REMARK    3  A    between atoms: C_12  and  C_13
REMARK    4  A    between atoms: C_22  and  C_23
REMARK                            x       y       z     vdW  Elec       q    Type
REMARK                         _______ _______ _______ _____ _____    ______ ____
ROOT
ATOM      1  C   UNL     1      -3.254  12.717  23.497  0.00  0.00    +0.000 A 
ATOM      2  C   UNL     1      -3.212  14.066  23.128  0.00  0.00    +0.000 A 
ATOM      3  C   UNL     1      -2.211  14.587  22.236  0.00  0.00    +0.000 A 
ATOM      4  C   UNL     1      -1.314  13.729  21.595  0.00  0.00    +0.000 A 
ATOM      5  C   UNL     1      -1.545  12.363  21.905  0.00  0.00    +0.000 A 
ATOM      6  C   UNL     1      -2.311  11.865  22.963  0.00  0.00    +0.000 A 
ATOM      7  S   UNL     1      -1.766  11.477  20.357  0.00  0.00    +0.000 S 
ATOM      8  C   UNL     1      -0.848  12.790  19.520  0.00  0.00    +0.000 C 
ATOM      9  N   UNL     1       0.008  12.269  18.702  0.00  0.00    +0.000 NA
ATOM     10  C   UNL     1       1.077  11.872  19.508  0.00  0.00    +0.000 C 
ATOM     11  C   UNL     1       1.529  12.852  20.390  0.00  0.00    +0.000 C 
ATOM     12  C   UNL     1       0.852  14.459  20.259  0.00  0.00    +0.000 C 
ATOM     13  C   UNL     1       1.572  15.513  19.308  0.00  0.00    +0.000 C 
ATOM     14  N   UNL     1      -0.648  14.027  20.277  0.00  0.00    +0.000 N 
ENDROOT
BRANCH  10  15
ATOM     15  C   UNL     1       1.489  10.395  19.265  0.00  0.00    +0.000 A 
ATOM     16  C   UNL     1       1.379   9.393  20.232  0.00  0.00    +0.000 A 
ATOM     17  C   UNL     1       1.697   8.028  19.944  0.00  0.00    +0.000 A 
ATOM     18  C   UNL     1       2.131   7.644  18.683  0.00  0.00    +0.000 A 
ATOM     19 CL   UNL     1       2.535   5.988  18.364  0.00  0.00    +0.000 Cl
ATOM     20  C   UNL     1       2.230   8.588  17.686  0.00  0.00    +0.000 A 
ATOM     21  C   UNL     1       1.902   9.951  17.976  0.00  0.00    +0.000 A 
ENDBRANCH  10  15
BRANCH   1  23
ATOM     22  C   UNL     1      -5.476  12.600  24.441  0.00  0.00    +0.000 C 
ATOM     23  O   UNL     1      -4.194  12.036  24.235  0.00  0.00    +0.000 OA
ENDBRANCH   1  23
BRANCH  13  24
ATOM     24  C   UNL     1       2.257  14.315  18.671  0.00  0.00    +0.000 C 
ATOM     25  N   UNL     1       2.826  13.322  18.143  0.00  0.00    +0.000 NA
ENDBRANCH  13  24
TORSDOF 3
ENDMDL
