MODEL 1
REMARK VINA RESULT:      -8.5      0.000      0.000
REMARK  Name = 
REMARK  12 active torsions:
REMARK  status: ('A' for Active; 'I' for Inactive)
REMARK    1  A    between atoms: C_4  and  C_5
REMARK    2  A    between atoms: C_5  and  C_6
REMARK    3  A    between atoms: C_6  and  C_7
REMARK    4  A    between atoms: C_7  and  C_8
REMARK    5  A    between atoms: C_8  and  C_9
REMARK    6  A    between atoms: C_9  and  N_10
REMARK    7  A    between atoms: C_20  and  C_21
REMARK    8  A    between atoms: C_21  and  C_22
REMARK    9  A    between atoms: C_22  and  C_23
REMARK   10  A    between atoms: C_23  and  C_24
REMARK   11  A    between atoms: C_24  and  C_25
REMARK   12  A    between atoms: C_25  and  N_26
REMARK                            x       y       z     vdW  Elec       q    Type
REMARK                         _______ _______ _______ _____ _____    ______ ____
ROOT
ATOM      1  C   UNL     1      -2.750   9.996  15.852  0.00  0.00    +0.000 A 
ATOM      2  C   UNL     1      -3.831  10.829  16.038  0.00  0.00    +0.000 A 
ATOM      3  C   UNL     1      -4.019  11.448  17.271  0.00  0.00    +0.000 A 
ATOM      4  C   UNL     1      -3.118  11.323  18.361  0.00  0.00    +0.000 A 
ATOM      5  C   UNL     1      -2.007  10.413  18.176  0.00  0.00    +0.000 A 
ATOM      6  C   UNL     1      -1.868   9.776  16.909  0.00  0.00    +0.000 A 
ENDROOT
BRANCH   4   7
ATOM      7  C   UNL     1      -3.492  12.180  19.619  0.00  0.00    +0.000 C 
BRANCH   7   8
ATOM      8  C   UNL     1      -2.308  13.097  20.246  0.00  0.00    +0.000 C 
BRANCH   8   9
ATOM      9  C   UNL     1      -2.640  14.285  21.194  0.00  0.00    +0.000 C 
BRANCH   9  10
ATOM     10  C   UNL     1      -3.115  13.955  22.698  0.00  0.00    +0.000 C 
BRANCH  10  11
ATOM     11  C   UNL     1      -4.240  12.886  22.969  0.00  0.00    +0.000 C 
BRANCH  11  12
ATOM     12  N   UNL     1      -5.734  13.284  22.620  0.00  0.00    +0.000 N 
ATOM     13  C   UNL     1      -6.634  12.874  23.584  0.00  0.00    +0.000 A 
ATOM     14  C   UNL     1      -7.724  12.114  23.263  0.00  0.00    +0.000 A 
ATOM     15  C   UNL     1      -7.916  11.693  21.956  0.00  0.00    +0.000 A 
ATOM     16  C   UNL     1      -7.138  12.241  20.957  0.00  0.00    +0.000 A 
ATOM     17  C   UNL     1      -7.524  12.008  19.628  0.00  0.00    +0.000 A 
ATOM     18  C   UNL     1      -7.330  13.007  18.688  0.00  0.00    +0.000 A 
ATOM     19  C   UNL     1      -6.740  14.193  19.113  0.00  0.00    +0.000 A 
ATOM     20  C   UNL     1      -6.116  14.286  20.390  0.00  0.00    +0.000 A 
ATOM     21  C   UNL     1      -6.190  13.225  21.312  0.00  0.00    +0.000 A 
ENDBRANCH  11  12
ENDBRANCH  10  11
ENDBRANCH   9  10
ENDBRANCH   8   9
ENDBRANCH   7   8
ENDBRANCH   4   7
BRANCH   5  22
ATOM     22  C   UNL     1      -0.802  10.140  19.093  0.00  0.00    +0.000 C 
BRANCH  22  23
ATOM     23  C   UNL     1       0.654  10.588  18.749  0.00  0.00    +0.000 C 
BRANCH  23  24
ATOM     24  C   UNL     1       1.615   9.823  17.795  0.00  0.00    +0.000 C 
BRANCH  24  25
ATOM     25  C   UNL     1       2.213   8.383  18.020  0.00  0.00    +0.000 C 
BRANCH  25  26
ATOM     26  C   UNL     1       2.270   7.537  19.364  0.00  0.00    +0.000 C 
BRANCH  26  27
ATOM     27  N   UNL     1       2.945   6.169  19.345  0.00  0.00    +0.000 N 
ATOM     28  C   UNL     1       3.951   6.053  18.465  0.00  0.00    +0.000 A 
ATOM     29  C   UNL     1       3.861   5.078  17.473  0.00  0.00    +0.000 A 
ATOM     30  C   UNL     1       2.832   4.150  17.510  0.00  0.00    +0.000 A 
ATOM     31  C   UNL     1       1.971   4.121  18.596  0.00  0.00    +0.000 A 
ATOM     32  C   UNL     1       1.107   3.037  18.731  0.00  0.00    +0.000 A 
ATOM     33  C   UNL     1       0.849   2.577  20.004  0.00  0.00    +0.000 A 
ATOM     34  C   UNL     1       1.424   3.228  21.088  0.00  0.00    +0.000 A 
ATOM     35  C   UNL     1       2.045   4.490  20.924  0.00  0.00    +0.000 A 
ATOM     36  C   UNL     1       2.223   5.026  19.639  0.00  0.00    +0.000 A 
ENDBRANCH  26  27
ENDBRANCH  25  26
ENDBRANCH  24  25
ENDBRANCH  23  24
ENDBRANCH  22  23
ENDBRANCH   5  22
TORSDOF 12
ENDMDL
MODEL 2
REMARK VINA RESULT:      -7.8      1.996      3.243
REMARK  Name = 
REMARK  12 active torsions:
REMARK  status: ('A' for Active; 'I' for Inactive)
REMARK    1  A    between atoms: C_4  and  C_5
REMARK    2  A    between atoms: C_5  and  C_6
REMARK    3  A    between atoms: C_6  and  C_7
REMARK    4  A    between atoms: C_7  and  C_8
REMARK    5  A    between atoms: C_8  and  C_9
REMARK    6  A    between atoms: C_9  and  N_10
REMARK    7  A    between atoms: C_20  and  C_21
REMARK    8  A    between atoms: C_21  and  C_22
REMARK    9  A    between atoms: C_22  and  C_23
REMARK   10  A    between atoms: C_23  and  C_24
REMARK   11  A    between atoms: C_24  and  C_25
REMARK   12  A    between atoms: C_25  and  N_26
REMARK                            x       y       z     vdW  Elec       q    Type
REMARK                         _______ _______ _______ _____ _____    ______ ____
ROOT
ATOM      1  C   UNL     1       2.582  12.530  18.522  0.00  0.00    +0.000 A 
ATOM      2  C   UNL     1       1.872  12.927  19.634  0.00  0.00    +0.000 A 
ATOM      3  C   UNL     1       0.892  12.090  20.161  0.00  0.00    +0.000 A 
ATOM      4  C   UNL     1       0.606  10.795  19.653  0.00  0.00    +0.000 A 
ATOM      5  C   UNL     1       1.323  10.400  18.459  0.00  0.00    +0.000 A 
ATOM      6  C   UNL     1       2.296  11.299  17.934  0.00  0.00    +0.000 A 
ENDROOT
BRANCH   4   7
ATOM      7  C   UNL     1      -0.478  10.003  20.461  0.00  0.00    +0.000 C 
BRANCH   7   8
ATOM      8  C   UNL     1      -0.125   9.672  22.011  0.00  0.00    +0.000 C 
BRANCH   8   9
ATOM      9  C   UNL     1      -0.700  10.547  23.162  0.00  0.00    +0.000 C 
BRANCH   9  10
ATOM     10  C   UNL     1      -1.553  11.858  22.773  0.00  0.00    +0.000 C 
BRANCH  10  11
ATOM     11  C   UNL     1      -2.980  12.101  23.395  0.00  0.00    +0.000 C 
BRANCH  11  12
ATOM     12  N   UNL     1      -3.928  13.150  22.677  0.00  0.00    +0.000 N 
ATOM     13  C   UNL     1      -4.289  14.196  23.503  0.00  0.00    +0.000 A 
ATOM     14  C   UNL     1      -5.600  14.521  23.708  0.00  0.00    +0.000 A 
ATOM     15  C   UNL     1      -6.603  13.763  23.122  0.00  0.00    +0.000 A 
ATOM     16  C   UNL     1      -6.263  12.840  22.155  0.00  0.00    +0.000 A 
ATOM     17  C   UNL     1      -7.301  12.283  21.391  0.00  0.00    +0.000 A 
ATOM     18  C   UNL     1      -7.071  11.994  20.057  0.00  0.00    +0.000 A 
ATOM     19  C   UNL     1      -5.805  12.255  19.544  0.00  0.00    +0.000 A 
ATOM     20  C   UNL     1      -4.711  12.555  20.406  0.00  0.00    +0.000 A 
ATOM     21  C   UNL     1      -4.904  12.723  21.791  0.00  0.00    +0.000 A 
ENDBRANCH  11  12
ENDBRANCH  10  11
ENDBRANCH   9  10
ENDBRANCH   8   9
ENDBRANCH   7   8
ENDBRANCH   4   7
BRANCH   5  22
ATOM     22  C   UNL     1       1.340   9.044  17.732  0.00  0.00    +0.000 C 
BRANCH  22  23
ATOM     23  C   UNL     1       2.613   8.143  17.630  0.00  0.00    +0.000 C 
BRANCH  23  24
ATOM     24  C   UNL     1       2.957   6.981  18.605  0.00  0.00    +0.000 C 
BRANCH  24  25
ATOM     25  C   UNL     1       4.397   6.468  18.983  0.00  0.00    +0.000 C 
BRANCH  25  26
ATOM     26  C   UNL     1       5.049   5.049  18.690  0.00  0.00    +0.000 C 
BRANCH  26  27
ATOM     27  N   UNL     1       4.141   3.827  18.589  0.00  0.00    +0.000 N 
ATOM     28  C   UNL     1       3.787   3.494  17.338  0.00  0.00    +0.000 A 
ATOM     29  C   UNL     1       2.433   3.470  17.010  0.00  0.00    +0.000 A 
ATOM     30  C   UNL     1       1.481   3.627  18.005  0.00  0.00    +0.000 A 
ATOM     31  C   UNL     1       1.875   3.683  19.333  0.00  0.00    +0.000 A 
ATOM     32  C   UNL     1       0.900   3.593  20.322  0.00  0.00    +0.000 A 
ATOM     33  C   UNL     1       1.216   2.909  21.475  0.00  0.00    +0.000 A 
ATOM     34  C   UNL     1       2.491   2.376  21.618  0.00  0.00    +0.000 A 
ATOM     35  C   UNL     1       3.529   2.746  20.729  0.00  0.00    +0.000 A 
ATOM     36  C   UNL     1       3.245   3.533  19.602  0.00  0.00    +0.000 A 
ENDBRANCH  26  27
ENDBRANCH  25  26
ENDBRANCH  24  25
ENDBRANCH  23  24
ENDBRANCH  22  23
ENDBRANCH   5  22
TORSDOF 12
ENDMDL
MODEL 3
REMARK VINA RESULT:      -7.8      5.696     10.151
REMARK  Name = 
REMARK  12 active torsions:
REMARK  status: ('A' for Active; 'I' for Inactive)
REMARK    1  A    between atoms: C_4  and  C_5
REMARK    2  A    between atoms: C_5  and  C_6
REMARK    3  A    between atoms: C_6  and  C_7
REMARK    4  A    between atoms: C_7  and  C_8
REMARK    5  A    between atoms: C_8  and  C_9
REMARK    6  A    between atoms: C_9  and  N_10
REMARK    7  A    between atoms: C_20  and  C_21
REMARK    8  A    between atoms: C_21  and  C_22
REMARK    9  A    between atoms: C_22  and  C_23
REMARK   10  A    between atoms: C_23  and  C_24
REMARK   11  A    between atoms: C_24  and  C_25
REMARK   12  A    between atoms: C_25  and  N_26
REMARK                            x       y       z     vdW  Elec       q    Type
REMARK                         _______ _______ _______ _____ _____    ______ ____
ROOT
ATOM      1  C   UNL     1       1.059  16.598  19.490  0.00  0.00    +0.000 A 
ATOM      2  C   UNL     1      -0.207  16.058  19.435  0.00  0.00    +0.000 A 
ATOM      3  C   UNL     1      -0.378  14.744  19.007  0.00  0.00    +0.000 A 
ATOM      4  C   UNL     1       0.697  13.880  18.667  0.00  0.00    +0.000 A 
ATOM      5  C   UNL     1       2.022  14.465  18.683  0.00  0.00    +0.000 A 
ATOM      6  C   UNL     1       2.149  15.822  19.100  0.00  0.00    +0.000 A 
ENDROOT
BRANCH   4   7
ATOM      7  C   UNL     1       0.267  12.420  18.295  0.00  0.00    +0.000 C 
BRANCH   7   8
ATOM      8  C   UNL     1       1.137  11.220  18.959  0.00  0.00    +0.000 C 
BRANCH   8   9
ATOM      9  C   UNL     1       2.073  10.338  18.083  0.00  0.00    +0.000 C 
BRANCH   9  10
ATOM     10  C   UNL     1       1.866   8.740  18.113  0.00  0.00    +0.000 C 
BRANCH  10  11
ATOM     11  C   UNL     1       2.046   7.932  19.453  0.00  0.00    +0.000 C 
BRANCH  11  12
ATOM     12  N   UNL     1       2.831   6.557  19.385  0.00  0.00    +0.000 N 
ATOM     13  C   UNL     1       3.709   6.496  18.320  0.00  0.00    +0.000 A 
ATOM     14  C   UNL     1       3.664   5.469  17.419  0.00  0.00    +0.000 A 
ATOM     15  C   UNL     1       2.690   4.488  17.532  0.00  0.00    +0.000 A 
ATOM     16  C   UNL     1       1.931   4.431  18.682  0.00  0.00    +0.000 A 
ATOM     17  C   UNL     1       1.148   3.285  18.891  0.00  0.00    +0.000 A 
ATOM     18  C   UNL     1       0.985   2.810  20.182  0.00  0.00    +0.000 A 
ATOM     19  C   UNL     1       1.595   3.513  21.215  0.00  0.00    +0.000 A 
ATOM     20  C   UNL     1       2.141   4.811  20.997  0.00  0.00    +0.000 A 
ATOM     21  C   UNL     1       2.196   5.368  19.705  0.00  0.00    +0.000 A 
ENDBRANCH  11  12
ENDBRANCH  10  11
ENDBRANCH   9  10
ENDBRANCH   8   9
ENDBRANCH   7   8
ENDBRANCH   4   7
BRANCH   5  22
ATOM     22  C   UNL     1       3.391  13.791  18.489  0.00  0.00    +0.000 C 
BRANCH  22  23
ATOM     23  C   UNL     1       4.637  14.535  17.911  0.00  0.00    +0.000 C 
BRANCH  23  24
ATOM     24  C   UNL     1       5.840  15.040  18.758  0.00  0.00    +0.000 C 
BRANCH  24  25
ATOM     25  C   UNL     1       7.345  15.120  18.298  0.00  0.00    +0.000 C 
BRANCH  25  26
ATOM     26  C   UNL     1       8.625  15.479  19.166  0.00  0.00    +0.000 C 
BRANCH  26  27
ATOM     27  N   UNL     1       9.806  14.514  19.173  0.00  0.00    +0.000 N 
ATOM     28  C   UNL     1      10.857  14.908  18.437  0.00  0.00    +0.000 A 
ATOM     29  C   UNL     1      11.287  14.091  17.394  0.00  0.00    +0.000 A 
ATOM     30  C   UNL     1      10.740  12.827  17.239  0.00  0.00    +0.000 A 
ATOM     31  C   UNL     1       9.859  12.336  18.190  0.00  0.00    +0.000 A 
ATOM     32  C   UNL     1       9.515  10.988  18.148  0.00  0.00    +0.000 A 
ATOM     33  C   UNL     1       9.338  10.332  19.346  0.00  0.00    +0.000 A 
ATOM     34  C   UNL     1       9.472  11.043  20.532  0.00  0.00    +0.000 A 
ATOM     35  C   UNL     1       9.524  12.458  20.521  0.00  0.00    +0.000 A 
ATOM     36  C   UNL     1       9.598  13.151  19.303  0.00  0.00    +0.000 A 
ENDBRANCH  26  27
ENDBRANCH  25  26
ENDBRANCH  24  25
ENDBRANCH  23  24
ENDBRANCH  22  23
ENDBRANCH   5  22
TORSDOF 12
ENDMDL
MODEL 4
REMARK VINA RESULT:      -7.8      1.926      9.942
REMARK  Name = 
REMARK  12 active torsions:
REMARK  status: ('A' for Active; 'I' for Inactive)
REMARK    1  A    between atoms: C_4  and  C_5
REMARK    2  A    between atoms: C_5  and  C_6
REMARK    3  A    between atoms: C_6  and  C_7
REMARK    4  A    between atoms: C_7  and  C_8
REMARK    5  A    between atoms: C_8  and  C_9
REMARK    6  A    between atoms: C_9  and  N_10
REMARK    7  A    between atoms: C_20  and  C_21
REMARK    8  A    between atoms: C_21  and  C_22
REMARK    9  A    between atoms: C_22  and  C_23
REMARK   10  A    between atoms: C_23  and  C_24
REMARK   11  A    between atoms: C_24  and  C_25
REMARK   12  A    between atoms: C_25  and  N_26
REMARK                            x       y       z     vdW  Elec       q    Type
REMARK                         _______ _______ _______ _____ _____    ______ ____
ROOT
ATOM      1  C   UNL     1       0.269   9.319  23.438  0.00  0.00    +0.000 A 
ATOM      2  C   UNL     1       0.976   8.936  22.320  0.00  0.00    +0.000 A 
ATOM      3  C   UNL     1       0.726   9.558  21.100  0.00  0.00    +0.000 A 
ATOM      4  C   UNL     1      -0.194  10.627  20.935  0.00  0.00    +0.000 A 
ATOM      5  C   UNL     1      -0.968  10.996  22.102  0.00  0.00    +0.000 A 
ATOM      6  C   UNL     1      -0.700  10.315  23.324  0.00  0.00    +0.000 A 
ENDROOT
BRANCH   4   7
ATOM      7  C   UNL     1      -0.246  11.225  19.487  0.00  0.00    +0.000 C 
BRANCH   7   8
ATOM      8  C   UNL     1       0.311  10.276  18.294  0.00  0.00    +0.000 C 
BRANCH   8   9
ATOM      9  C   UNL     1       1.815  10.296  17.897  0.00  0.00    +0.000 C 
BRANCH   9  10
ATOM     10  C   UNL     1       2.619   8.900  17.872  0.00  0.00    +0.000 C 
BRANCH  10  11
ATOM     11  C   UNL     1       1.863   7.535  18.086  0.00  0.00    +0.000 C 
BRANCH  11  12
ATOM     12  N   UNL     1       2.713   6.291  18.581  0.00  0.00    +0.000 N 
ATOM     13  C   UNL     1       3.872   6.113  17.851  0.00  0.00    +0.000 A 
ATOM     14  C   UNL     1       4.161   4.917  17.256  0.00  0.00    +0.000 A 
ATOM     15  C   UNL     1       3.258   3.867  17.332  0.00  0.00    +0.000 A 
ATOM     16  C   UNL     1       2.193   3.966  18.203  0.00  0.00    +0.000 A 
ATOM     17  C   UNL     1       1.453   2.801  18.462  0.00  0.00    +0.000 A 
ATOM     18  C   UNL     1       0.937   2.603  19.732  0.00  0.00    +0.000 A 
ATOM     19  C   UNL     1       1.166   3.588  20.688  0.00  0.00    +0.000 A 
ATOM     20  C   UNL     1       1.674   4.866  20.317  0.00  0.00    +0.000 A 
ATOM     21  C   UNL     1       2.082   5.129  18.995  0.00  0.00    +0.000 A 
ENDBRANCH  11  12
ENDBRANCH  10  11
ENDBRANCH   9  10
ENDBRANCH   8   9
ENDBRANCH   7   8
ENDBRANCH   4   7
BRANCH   5  22
ATOM     22  C   UNL     1      -1.945  12.168  22.297  0.00  0.00    +0.000 C 
BRANCH  22  23
ATOM     23  C   UNL     1      -2.327  13.164  21.155  0.00  0.00    +0.000 C 
BRANCH  23  24
ATOM     24  C   UNL     1      -3.414  12.898  20.075  0.00  0.00    +0.000 C 
BRANCH  24  25
ATOM     25  C   UNL     1      -4.894  13.438  20.078  0.00  0.00    +0.000 C 
BRANCH  25  26
ATOM     26  C   UNL     1      -5.970  13.378  18.911  0.00  0.00    +0.000 C 
BRANCH  26  27
ATOM     27  N   UNL     1      -6.128  12.083  18.120  0.00  0.00    +0.000 N 
ATOM     28  C   UNL     1      -7.120  11.285  18.545  0.00  0.00    +0.000 A 
ATOM     29  C   UNL     1      -6.804   9.993  18.963  0.00  0.00    +0.000 A 
ATOM     30  C   UNL     1      -5.520   9.504  18.781  0.00  0.00    +0.000 A 
ATOM     31  C   UNL     1      -4.592  10.254  18.077  0.00  0.00    +0.000 A 
ATOM     32  C   UNL     1      -3.397   9.649  17.696  0.00  0.00    +0.000 A 
ATOM     33  C   UNL     1      -2.862   9.996  16.475  0.00  0.00    +0.000 A 
ATOM     34  C   UNL     1      -3.508  10.951  15.700  0.00  0.00    +0.000 A 
ATOM     35  C   UNL     1      -4.540  11.747  16.252  0.00  0.00    +0.000 A 
ATOM     36  C   UNL     1      -5.028  11.476  17.540  0.00  0.00    +0.000 A 
ENDBRANCH  26  27
ENDBRANCH  25  26
ENDBRANCH  24  25
ENDBRANCH  23  24
ENDBRANCH  22  23
ENDBRANCH   5  22
TORSDOF 12
ENDMDL
MODEL 5
REMARK VINA RESULT:      -7.7      2.188      4.540
REMARK  Name = 
REMARK  12 active torsions:
REMARK  status: ('A' for Active; 'I' for Inactive)
REMARK    1  A    between atoms: C_4  and  C_5
REMARK    2  A    between atoms: C_5  and  C_6
REMARK    3  A    between atoms: C_6  and  C_7
REMARK    4  A    between atoms: C_7  and  C_8
REMARK    5  A    between atoms: C_8  and  C_9
REMARK    6  A    between atoms: C_9  and  N_10
REMARK    7  A    between atoms: C_20  and  C_21
REMARK    8  A    between atoms: C_21  and  C_22
REMARK    9  A    between atoms: C_22  and  C_23
REMARK   10  A    between atoms: C_23  and  C_24
REMARK   11  A    between atoms: C_24  and  C_25
REMARK   12  A    between atoms: C_25  and  N_26
REMARK                            x       y       z     vdW  Elec       q    Type
REMARK                         _______ _______ _______ _____ _____    ______ ____
ROOT
ATOM      1  C   UNL     1       2.659   8.421  17.531  0.00  0.00    +0.000 A 
ATOM      2  C   UNL     1       1.956   9.590  17.720  0.00  0.00    +0.000 A 
ATOM      3  C   UNL     1       1.200   9.759  18.877  0.00  0.00    +0.000 A 
ATOM      4  C   UNL     1       1.149   8.808  19.931  0.00  0.00    +0.000 A 
ATOM      5  C   UNL     1       1.854   7.563  19.708  0.00  0.00    +0.000 A 
ATOM      6  C   UNL     1       2.590   7.419  18.497  0.00  0.00    +0.000 A 
ENDROOT
BRANCH   4   7
ATOM      7  C   UNL     1       0.300   9.253  21.171  0.00  0.00    +0.000 C 
BRANCH   7   8
ATOM      8  C   UNL     1      -0.403  10.713  21.077  0.00  0.00    +0.000 C 
BRANCH   8   9
ATOM      9  C   UNL     1      -0.674  11.550  22.361  0.00  0.00    +0.000 C 
BRANCH   9  10
ATOM     10  C   UNL     1      -2.000  11.228  23.218  0.00  0.00    +0.000 C 
BRANCH  10  11
ATOM     11  C   UNL     1      -2.817  12.391  23.899  0.00  0.00    +0.000 C 
BRANCH  11  12
ATOM     12  N   UNL     1      -3.536  13.439  22.952  0.00  0.00    +0.000 N 
ATOM     13  C   UNL     1      -3.631  14.694  23.521  0.00  0.00    +0.000 A 
ATOM     14  C   UNL     1      -4.832  15.338  23.627  0.00  0.00    +0.000 A 
ATOM     15  C   UNL     1      -5.995  14.711  23.206  0.00  0.00    +0.000 A 
ATOM     16  C   UNL     1      -5.898  13.547  22.473  0.00  0.00    +0.000 A 
ATOM     17  C   UNL     1      -7.058  13.079  21.835  0.00  0.00    +0.000 A 
ATOM     18  C   UNL     1      -6.941  12.461  20.601  0.00  0.00    +0.000 A 
ATOM     19  C   UNL     1      -5.666  12.317  20.063  0.00  0.00    +0.000 A 
ATOM     20  C   UNL     1      -4.505  12.550  20.856  0.00  0.00    +0.000 A 
ATOM     21  C   UNL     1      -4.611  13.056  22.166  0.00  0.00    +0.000 A 
ENDBRANCH  11  12
ENDBRANCH  10  11
ENDBRANCH   9  10
ENDBRANCH   8   9
ENDBRANCH   7   8
ENDBRANCH   4   7
BRANCH   5  22
ATOM     22  C   UNL     1       2.098   6.391  20.674  0.00  0.00    +0.000 C 
BRANCH  22  23
ATOM     23  C   UNL     1       1.138   5.163  20.790  0.00  0.00    +0.000 C 
BRANCH  23  24
ATOM     24  C   UNL     1       1.092   3.975  19.787  0.00  0.00    +0.000 C 
BRANCH  24  25
ATOM     25  C   UNL     1       1.612   3.981  18.300  0.00  0.00    +0.000 C 
BRANCH  25  26
ATOM     26  C   UNL     1       2.653   2.995  17.614  0.00  0.00    +0.000 C 
BRANCH  26  27
ATOM     27  N   UNL     1       4.143   3.296  17.735  0.00  0.00    +0.000 N 
ATOM     28  C   UNL     1       4.569   3.525  18.986  0.00  0.00    +0.000 A 
ATOM     29  C   UNL     1       5.165   4.751  19.276  0.00  0.00    +0.000 A 
ATOM     30  C   UNL     1       5.454   5.636  18.249  0.00  0.00    +0.000 A 
ATOM     31  C   UNL     1       5.262   5.249  16.932  0.00  0.00    +0.000 A 
ATOM     32  C   UNL     1       5.783   6.050  15.919  0.00  0.00    +0.000 A 
ATOM     33  C   UNL     1       6.289   5.423  14.802  0.00  0.00    +0.000 A 
ATOM     34  C   UNL     1       6.227   4.038  14.715  0.00  0.00    +0.000 A 
ATOM     35  C   UNL     1       5.428   3.296  15.620  0.00  0.00    +0.000 A 
ATOM     36  C   UNL     1       4.815   3.937  16.708  0.00  0.00    +0.000 A 
ENDBRANCH  26  27
ENDBRANCH  25  26
ENDBRANCH  24  25
ENDBRANCH  23  24
ENDBRANCH  22  23
ENDBRANCH   5  22
TORSDOF 12
ENDMDL
MODEL 6
REMARK VINA RESULT:      -7.7      5.728      9.952
REMARK  Name = 
REMARK  12 active torsions:
REMARK  status: ('A' for Active; 'I' for Inactive)
REMARK    1  A    between atoms: C_4  and  C_5
REMARK    2  A    between atoms: C_5  and  C_6
REMARK    3  A    between atoms: C_6  and  C_7
REMARK    4  A    between atoms: C_7  and  C_8
REMARK    5  A    between atoms: C_8  and  C_9
REMARK    6  A    between atoms: C_9  and  N_10
REMARK    7  A    between atoms: C_20  and  C_21
REMARK    8  A    between atoms: C_21  and  C_22
REMARK    9  A    between atoms: C_22  and  C_23
REMARK   10  A    between atoms: C_23  and  C_24
REMARK   11  A    between atoms: C_24  and  C_25
REMARK   12  A    between atoms: C_25  and  N_26
REMARK                            x       y       z     vdW  Elec       q    Type
REMARK                         _______ _______ _______ _____ _____    ______ ____
ROOT
ATOM      1  C   UNL     1       6.569   4.567  15.236  0.00  0.00    +0.000 A 
ATOM      2  C   UNL     1       5.233   4.295  15.426  0.00  0.00    +0.000 A 
ATOM      3  C   UNL     1       4.592   4.759  16.571  0.00  0.00    +0.000 A 
ATOM      4  C   UNL     1       5.222   5.566  17.555  0.00  0.00    +0.000 A 
ATOM      5  C   UNL     1       6.638   5.813  17.374  0.00  0.00    +0.000 A 
ATOM      6  C   UNL     1       7.262   5.294  16.203  0.00  0.00    +0.000 A 
ENDROOT
BRANCH   4   7
ATOM      7  C   UNL     1       4.279   6.040  18.713  0.00  0.00    +0.000 C 
BRANCH   7   8
ATOM      8  C   UNL     1       2.866   6.705  18.266  0.00  0.00    +0.000 C 
BRANCH   8   9
ATOM      9  C   UNL     1       2.806   8.169  17.743  0.00  0.00    +0.000 C 
BRANCH   9  10
ATOM     10  C   UNL     1       1.933   9.242  18.569  0.00  0.00    +0.000 C 
BRANCH  10  11
ATOM     11  C   UNL     1       0.604   9.832  17.964  0.00  0.00    +0.000 C 
BRANCH  11  12
ATOM     12  N   UNL     1      -0.657   9.936  18.919  0.00  0.00    +0.000 N 
ATOM     13  C   UNL     1      -1.629  10.787  18.428  0.00  0.00    +0.000 A 
ATOM     14  C   UNL     1      -2.115  11.820  19.179  0.00  0.00    +0.000 A 
ATOM     15  C   UNL     1      -1.596  12.065  20.442  0.00  0.00    +0.000 A 
ATOM     16  C   UNL     1      -0.766  11.124  21.016  0.00  0.00    +0.000 A 
ATOM     17  C   UNL     1      -0.472  11.261  22.382  0.00  0.00    +0.000 A 
ATOM     18  C   UNL     1      -0.328  10.121  23.154  0.00  0.00    +0.000 A 
ATOM     19  C   UNL     1      -0.465   8.888  22.525  0.00  0.00    +0.000 A 
ATOM     20  C   UNL     1      -0.485   8.788  21.104  0.00  0.00    +0.000 A 
ATOM     21  C   UNL     1      -0.499   9.941  20.296  0.00  0.00    +0.000 A 
ENDBRANCH  11  12
ENDBRANCH  10  11
ENDBRANCH   9  10
ENDBRANCH   8   9
ENDBRANCH   7   8
ENDBRANCH   4   7
BRANCH   5  22
ATOM     22  C   UNL     1       7.581   6.727  18.173  0.00  0.00    +0.000 C 
BRANCH  22  23
ATOM     23  C   UNL     1       7.872   8.212  17.780  0.00  0.00    +0.000 C 
BRANCH  23  24
ATOM     24  C   UNL     1       8.660   9.224  18.659  0.00  0.00    +0.000 C 
BRANCH  24  25
ATOM     25  C   UNL     1       9.428  10.504  18.157  0.00  0.00    +0.000 C 
BRANCH  25  26
ATOM     26  C   UNL     1       9.458  11.955  18.804  0.00  0.00    +0.000 C 
BRANCH  26  27
ATOM     27  N   UNL     1       9.407  13.173  17.887  0.00  0.00    +0.000 N 
ATOM     28  C   UNL     1      10.532  13.398  17.191  0.00  0.00    +0.000 A 
ATOM     29  C   UNL     1      11.191  14.614  17.361  0.00  0.00    +0.000 A 
ATOM     30  C   UNL     1      10.597  15.621  18.106  0.00  0.00    +0.000 A 
ATOM     31  C   UNL     1       9.303  15.459  18.574  0.00  0.00    +0.000 A 
ATOM     32  C   UNL     1       8.642  16.565  19.102  0.00  0.00    +0.000 A 
ATOM     33  C   UNL     1       7.290  16.681  18.860  0.00  0.00    +0.000 A 
ATOM     34  C   UNL     1       6.644  15.684  18.141  0.00  0.00    +0.000 A 
ATOM     35  C   UNL     1       7.286  14.448  17.886  0.00  0.00    +0.000 A 
ATOM     36  C   UNL     1       8.638  14.273  18.223  0.00  0.00    +0.000 A 
ENDBRANCH  26  27
ENDBRANCH  25  26
ENDBRANCH  24  25
ENDBRANCH  23  24
ENDBRANCH  22  23
ENDBRANCH   5  22
TORSDOF 12
ENDMDL
MODEL 7
REMARK VINA RESULT:      -7.6      1.428     10.920
REMARK  Name = 
REMARK  12 active torsions:
REMARK  status: ('A' for Active; 'I' for Inactive)
REMARK    1  A    between atoms: C_4  and  C_5
REMARK    2  A    between atoms: C_5  and  C_6
REMARK    3  A    between atoms: C_6  and  C_7
REMARK    4  A    between atoms: C_7  and  C_8
REMARK    5  A    between atoms: C_8  and  C_9
REMARK    6  A    between atoms: C_9  and  N_10
REMARK    7  A    between atoms: C_20  and  C_21
REMARK    8  A    between atoms: C_21  and  C_22
REMARK    9  A    between atoms: C_22  and  C_23
REMARK   10  A    between atoms: C_23  and  C_24
REMARK   11  A    between atoms: C_24  and  C_25
REMARK   12  A    between atoms: C_25  and  N_26
REMARK                            x       y       z     vdW  Elec       q    Type
REMARK                         _______ _______ _______ _____ _____    ______ ____
ROOT
ATOM      1  C   UNL     1      -3.906  11.561  17.576  0.00  0.00    +0.000 A 
ATOM      2  C   UNL     1      -3.572  10.682  16.570  0.00  0.00    +0.000 A 
ATOM      3  C   UNL     1      -2.378   9.970  16.646  0.00  0.00    +0.000 A 
ATOM      4  C   UNL     1      -1.484  10.047  17.747  0.00  0.00    +0.000 A 
ATOM      5  C   UNL     1      -1.817  11.004  18.781  0.00  0.00    +0.000 A 
ATOM      6  C   UNL     1      -3.034  11.734  18.649  0.00  0.00    +0.000 A 
ENDROOT
BRANCH   4   7
ATOM      7  C   UNL     1      -0.246   9.090  17.650  0.00  0.00    +0.000 C 
BRANCH   7   8
ATOM      8  C   UNL     1       1.209   9.766  17.895  0.00  0.00    +0.000 C 
BRANCH   8   9
ATOM      9  C   UNL     1       2.362   8.955  18.555  0.00  0.00    +0.000 C 
BRANCH   9  10
ATOM     10  C   UNL     1       1.989   7.907  19.721  0.00  0.00    +0.000 C 
BRANCH  10  11
ATOM     11  C   UNL     1       2.410   6.393  19.603  0.00  0.00    +0.000 C 
BRANCH  11  12
ATOM     12  N   UNL     1       2.585   5.788  18.149  0.00  0.00    +0.000 N 
ATOM     13  C   UNL     1       1.736   4.725  17.907  0.00  0.00    +0.000 A 
ATOM     14  C   UNL     1       2.211   3.517  17.479  0.00  0.00    +0.000 A 
ATOM     15  C   UNL     1       3.575   3.322  17.329  0.00  0.00    +0.000 A 
ATOM     16  C   UNL     1       4.416   4.414  17.385  0.00  0.00    +0.000 A 
ATOM     17  C   UNL     1       5.745   4.236  16.967  0.00  0.00    +0.000 A 
ATOM     18  C   UNL     1       6.386   5.274  16.312  0.00  0.00    +0.000 A 
ATOM     19  C   UNL     1       5.679   6.456  16.118  0.00  0.00    +0.000 A 
ATOM     20  C   UNL     1       4.447   6.693  16.793  0.00  0.00    +0.000 A 
ATOM     21  C   UNL     1       3.843   5.690  17.574  0.00  0.00    +0.000 A 
ENDBRANCH  11  12
ENDBRANCH  10  11
ENDBRANCH   9  10
ENDBRANCH   8   9
ENDBRANCH   7   8
ENDBRANCH   4   7
BRANCH   5  22
ATOM     22  C   UNL     1      -1.142  11.250  20.141  0.00  0.00    +0.000 C 
BRANCH  22  23
ATOM     23  C   UNL     1      -1.696  12.252  21.204  0.00  0.00    +0.000 C 
BRANCH  23  24
ATOM     24  C   UNL     1      -2.018  11.889  22.682  0.00  0.00    +0.000 C 
BRANCH  24  25
ATOM     25  C   UNL     1      -3.316  12.280  23.484  0.00  0.00    +0.000 C 
BRANCH  25  26
ATOM     26  C   UNL     1      -3.953  13.721  23.690  0.00  0.00    +0.000 C 
BRANCH  26  27
ATOM     27  N   UNL     1      -5.269  14.051  22.992  0.00  0.00    +0.000 N 
ATOM     28  C   UNL     1      -6.029  14.956  23.628  0.00  0.00    +0.000 A 
ATOM     29  C   UNL     1      -7.313  14.589  24.025  0.00  0.00    +0.000 A 
ATOM     30  C   UNL     1      -7.839  13.372  23.618  0.00  0.00    +0.000 A 
ATOM     31  C   UNL     1      -7.135  12.584  22.721  0.00  0.00    +0.000 A 
ATOM     32  C   UNL     1      -7.781  11.496  22.140  0.00  0.00    +0.000 A 
ATOM     33  C   UNL     1      -7.487  11.201  20.827  0.00  0.00    +0.000 A 
ATOM     34  C   UNL     1      -6.542  11.967  20.157  0.00  0.00    +0.000 A 
ATOM     35  C   UNL     1      -5.703  12.859  20.867  0.00  0.00    +0.000 A 
ATOM     36  C   UNL     1      -5.921  13.094  22.234  0.00  0.00    +0.000 A 
ENDBRANCH  26  27
ENDBRANCH  25  26
ENDBRANCH  24  25
ENDBRANCH  23  24
ENDBRANCH  22  23
ENDBRANCH   5  22
TORSDOF 12
ENDMDL
MODEL 8
REMARK VINA RESULT:      -7.6      2.258      5.336
REMARK  Name = 
REMARK  12 active torsions:
REMARK  status: ('A' for Active; 'I' for Inactive)
REMARK    1  A    between atoms: C_4  and  C_5
REMARK    2  A    between atoms: C_5  and  C_6
REMARK    3  A    between atoms: C_6  and  C_7
REMARK    4  A    between atoms: C_7  and  C_8
REMARK    5  A    between atoms: C_8  and  C_9
REMARK    6  A    between atoms: C_9  and  N_10
REMARK    7  A    between atoms: C_20  and  C_21
REMARK    8  A    between atoms: C_21  and  C_22
REMARK    9  A    between atoms: C_22  and  C_23
REMARK   10  A    between atoms: C_23  and  C_24
REMARK   11  A    between atoms: C_24  and  C_25
REMARK   12  A    between atoms: C_25  and  N_26
REMARK                            x       y       z     vdW  Elec       q    Type
REMARK                         _______ _______ _______ _____ _____    ______ ____
ROOT
ATOM      1  C   UNL     1       2.782   7.075  17.808  0.00  0.00    +0.000 A 
ATOM      2  C   UNL     1       2.578   8.431  17.934  0.00  0.00    +0.000 A 
ATOM      3  C   UNL     1       1.959   8.932  19.076  0.00  0.00    +0.000 A 
ATOM      4  C   UNL     1       1.563   8.125  20.175  0.00  0.00    +0.000 A 
ATOM      5  C   UNL     1       1.738   6.696  20.020  0.00  0.00    +0.000 A 
ATOM      6  C   UNL     1       2.350   6.223  18.823  0.00  0.00    +0.000 A 
ENDROOT
BRANCH   4   7
ATOM      7  C   UNL     1       0.963   8.919  21.385  0.00  0.00    +0.000 C 
BRANCH   7   8
ATOM      8  C   UNL     1       1.172  10.529  21.367  0.00  0.00    +0.000 C 
BRANCH   8   9
ATOM      9  C   UNL     1      -0.025  11.484  21.092  0.00  0.00    +0.000 C 
BRANCH   9  10
ATOM     10  C   UNL     1      -0.880  11.271  19.743  0.00  0.00    +0.000 C 
BRANCH  10  11
ATOM     11  C   UNL     1      -2.300  11.933  19.578  0.00  0.00    +0.000 C 
BRANCH  11  12
ATOM     12  N   UNL     1      -3.421  11.098  18.831  0.00  0.00    +0.000 N 
ATOM     13  C   UNL     1      -2.914  10.321  17.808  0.00  0.00    +0.000 A 
ATOM     14  C   UNL     1      -3.412  10.404  16.537  0.00  0.00    +0.000 A 
ATOM     15  C   UNL     1      -4.411  11.320  16.242  0.00  0.00    +0.000 A 
ATOM     16  C   UNL     1      -5.052  11.966  17.279  0.00  0.00    +0.000 A 
ATOM     17  C   UNL     1      -6.225  12.675  16.979  0.00  0.00    +0.000 A 
ATOM     18  C   UNL     1      -7.251  12.697  17.909  0.00  0.00    +0.000 A 
ATOM     19  C   UNL     1      -7.054  12.025  19.111  0.00  0.00    +0.000 A 
ATOM     20  C   UNL     1      -5.762  11.559  19.488  0.00  0.00    +0.000 A 
ATOM     21  C   UNL     1      -4.672  11.649  18.601  0.00  0.00    +0.000 A 
ENDBRANCH  11  12
ENDBRANCH  10  11
ENDBRANCH   9  10
ENDBRANCH   8   9
ENDBRANCH   7   8
ENDBRANCH   4   7
BRANCH   5  22
ATOM     22  C   UNL     1       1.530   5.568  21.045  0.00  0.00    +0.000 C 
BRANCH  22  23
ATOM     23  C   UNL     1       1.295   4.077  20.642  0.00  0.00    +0.000 C 
BRANCH  23  24
ATOM     24  C   UNL     1       2.067   2.865  21.237  0.00  0.00    +0.000 C 
BRANCH  24  25
ATOM     25  C   UNL     1       3.414   2.253  20.696  0.00  0.00    +0.000 C 
BRANCH  25  26
ATOM     26  C   UNL     1       3.930   2.171  19.195  0.00  0.00    +0.000 C 
BRANCH  26  27
ATOM     27  N   UNL     1       4.159   3.466  18.423  0.00  0.00    +0.000 N 
ATOM     28  C   UNL     1       3.507   3.542  17.252  0.00  0.00    +0.000 A 
ATOM     29  C   UNL     1       4.249   3.711  16.085  0.00  0.00    +0.000 A 
ATOM     30  C   UNL     1       5.611   3.961  16.163  0.00  0.00    +0.000 A 
ATOM     31  C   UNL     1       6.203   4.161  17.400  0.00  0.00    +0.000 A 
ATOM     32  C   UNL     1       7.507   4.648  17.444  0.00  0.00    +0.000 A 
ATOM     33  C   UNL     1       7.830   5.527  18.454  0.00  0.00    +0.000 A 
ATOM     34  C   UNL     1       6.866   5.858  19.397  0.00  0.00    +0.000 A 
ATOM     35  C   UNL     1       5.663   5.117  19.487  0.00  0.00    +0.000 A 
ATOM     36  C   UNL     1       5.363   4.141  18.525  0.00  0.00    +0.000 A 
ENDBRANCH  26  27
ENDBRANCH  25  26
ENDBRANCH  24  25
ENDBRANCH  23  24
ENDBRANCH  22  23
ENDBRANCH   5  22
TORSDOF 12
ENDMDL
MODEL 9
REMARK VINA RESULT:      -7.6      2.087     11.556
REMARK  Name = 
REMARK  12 active torsions:
REMARK  status: ('A' for Active; 'I' for Inactive)
REMARK    1  A    between atoms: C_4  and  C_5
REMARK    2  A    between atoms: C_5  and  C_6
REMARK    3  A    between atoms: C_6  and  C_7
REMARK    4  A    between atoms: C_7  and  C_8
REMARK    5  A    between atoms: C_8  and  C_9
REMARK    6  A    between atoms: C_9  and  N_10
REMARK    7  A    between atoms: C_20  and  C_21
REMARK    8  A    between atoms: C_21  and  C_22
REMARK    9  A    between atoms: C_22  and  C_23
REMARK   10  A    between atoms: C_23  and  C_24
REMARK   11  A    between atoms: C_24  and  C_25
REMARK   12  A    between atoms: C_25  and  N_26
REMARK                            x       y       z     vdW  Elec       q    Type
REMARK                         _______ _______ _______ _____ _____    ______ ____
ROOT
ATOM      1  C   UNL     1       2.544   8.780  17.622  0.00  0.00    +0.000 A 
ATOM      2  C   UNL     1       3.053   7.511  17.782  0.00  0.00    +0.000 A 
ATOM      3  C   UNL     1       2.743   6.783  18.928  0.00  0.00    +0.000 A 
ATOM      4  C   UNL     1       1.867   7.249  19.943  0.00  0.00    +0.000 A 
ATOM      5  C   UNL     1       1.368   8.600  19.793  0.00  0.00    +0.000 A 
ATOM      6  C   UNL     1       1.735   9.321  18.620  0.00  0.00    +0.000 A 
ENDROOT
BRANCH   4   7
ATOM      7  C   UNL     1       1.600   6.222  21.097  0.00  0.00    +0.000 C 
BRANCH   7   8
ATOM      8  C   UNL     1       2.226   4.737  20.900  0.00  0.00    +0.000 C 
BRANCH   8   9
ATOM      9  C   UNL     1       1.582   3.727  19.908  0.00  0.00    +0.000 C 
BRANCH   9  10
ATOM     10  C   UNL     1       2.368   2.355  19.595  0.00  0.00    +0.000 C 
BRANCH  10  11
ATOM     11  C   UNL     1       3.654   2.356  18.685  0.00  0.00    +0.000 C 
BRANCH  11  12
ATOM     12  N   UNL     1       4.121   3.741  18.072  0.00  0.00    +0.000 N 
ATOM     13  C   UNL     1       3.663   3.935  16.783  0.00  0.00    +0.000 A 
ATOM     14  C   UNL     1       4.520   4.231  15.760  0.00  0.00    +0.000 A 
ATOM     15  C   UNL     1       5.885   4.290  15.994  0.00  0.00    +0.000 A 
ATOM     16  C   UNL     1       6.341   4.283  17.296  0.00  0.00    +0.000 A 
ATOM     17  C   UNL     1       7.688   4.611  17.518  0.00  0.00    +0.000 A 
ATOM     18  C   UNL     1       8.026   5.318  18.659  0.00  0.00    +0.000 A 
ATOM     19  C   UNL     1       7.006   5.652  19.544  0.00  0.00    +0.000 A 
ATOM     20  C   UNL     1       5.712   5.067  19.426  0.00  0.00    +0.000 A 
ATOM     21  C   UNL     1       5.388   4.236  18.336  0.00  0.00    +0.000 A 
ENDBRANCH  11  12
ENDBRANCH  10  11
ENDBRANCH   9  10
ENDBRANCH   8   9
ENDBRANCH   7   8
ENDBRANCH   4   7
BRANCH   5  22
ATOM     22  C   UNL     1       0.325   9.357  20.632  0.00  0.00    +0.000 C 
BRANCH  22  23
ATOM     23  C   UNL     1      -0.270  10.741  20.215  0.00  0.00    +0.000 C 
BRANCH  23  24
ATOM     24  C   UNL     1       0.381  12.117  20.531  0.00  0.00    +0.000 C 
BRANCH  24  25
ATOM     25  C   UNL     1      -0.282  13.534  20.345  0.00  0.00    +0.000 C 
BRANCH  25  26
ATOM     26  C   UNL     1      -1.820  13.923  20.424  0.00  0.00    +0.000 C 
BRANCH  26  27
ATOM     27  N   UNL     1      -2.840  12.838  20.754  0.00  0.00    +0.000 N 
ATOM     28  C   UNL     1      -3.479  12.328  19.690  0.00  0.00    +0.000 A 
ATOM     29  C   UNL     1      -4.868  12.426  19.635  0.00  0.00    +0.000 A 
ATOM     30  C   UNL     1      -5.570  12.891  20.736  0.00  0.00    +0.000 A 
ATOM     31  C   UNL     1      -4.901  13.140  21.924  0.00  0.00    +0.000 A 
ATOM     32  C   UNL     1      -5.650  13.367  23.075  0.00  0.00    +0.000 A 
ATOM     33  C   UNL     1      -5.163  12.874  24.266  0.00  0.00    +0.000 A 
ATOM     34  C   UNL     1      -3.943  12.211  24.275  0.00  0.00    +0.000 A 
ATOM     35  C   UNL     1      -3.085  12.266  23.149  0.00  0.00    +0.000 A 
ATOM     36  C   UNL     1      -3.525  12.860  21.956  0.00  0.00    +0.000 A 
ENDBRANCH  26  27
ENDBRANCH  25  26
ENDBRANCH  24  25
ENDBRANCH  23  24
ENDBRANCH  22  23
ENDBRANCH   5  22
TORSDOF 12
ENDMDL
