MODEL 1
REMARK VINA RESULT:      -6.8      0.000      0.000
REMARK  Name = 
REMARK  3 active torsions:
REMARK  status: ('A' for Active; 'I' for Inactive)
REMARK    1  A    between atoms: O_1  and  C_2
REMARK    2  A    between atoms: C_9  and  C_10
REMARK    3  A    between atoms: N_11  and  C_12
REMARK                            x       y       z     vdW  Elec       q    Type
REMARK                         _______ _______ _______ _____ _____    ______ ____
ROOT
ATOM      1  C   UNL     1       3.155   4.281  19.212  0.00  0.00    +0.000 A 
ATOM      2  C   UNL     1       2.352   4.335  20.358  0.00  0.00    +0.000 A 
ATOM      3 BR   UNL     1       1.995   2.771  21.366  0.00  0.00    +0.000 Br
ATOM      4  C   UNL     1       1.808   5.548  20.786  0.00  0.00    +0.000 A 
ATOM      5  C   UNL     1       2.065   6.706  20.057  0.00  0.00    +0.000 A 
ATOM      6 BR   UNL     1       1.336   8.354  20.633  0.00  0.00    +0.000 Br
ATOM      7  C   UNL     1       2.862   6.668  18.914  0.00  0.00    +0.000 A 
ATOM      8  C   UNL     1       3.415   5.452  18.493  0.00  0.00    +0.000 A 
ENDROOT
BRANCH   1   9
ATOM      9  O   UNL     1       3.696   3.095  18.793  0.00  0.00    +0.000 OA
ATOM     10  H   UNL     1       4.150   2.680  19.549  0.00  0.00    +0.000 HD
ENDBRANCH   1   9
BRANCH   8  11
ATOM     11  C   UNL     1       4.303   5.420  17.308  0.00  0.00    +0.000 C 
ATOM     12  N   UNL     1       5.567   5.147  17.425  0.00  0.00    +0.000 NA
BRANCH  12  13
ATOM     13  C   UNL     1       6.246   5.091  16.257  0.00  0.00    +0.000 A 
ATOM     14  N   UNL     1       7.318   5.713  15.804  0.00  0.00    +0.000 NA
ATOM     15  N   UNL     1       7.542   5.310  14.504  0.00  0.00    +0.000 NA
ATOM     16  C   UNL     1       6.603   4.450  14.194  0.00  0.00    +0.000 A 
ATOM     17  N   UNL     1       5.785   4.271  15.263  0.00  0.00    +0.000 N 
ATOM     18  H   UNL     1       4.974   3.680  15.335  0.00  0.00    +0.000 HD
ENDBRANCH  12  13
ENDBRANCH   8  11
TORSDOF 3
ENDMDL
MODEL 2
REMARK VINA RESULT:      -6.6      1.167      2.612
REMARK  Name = 
REMARK  3 active torsions:
REMARK  status: ('A' for Active; 'I' for Inactive)
REMARK    1  A    between atoms: O_1  and  C_2
REMARK    2  A    between atoms: C_9  and  C_10
REMARK    3  A    between atoms: N_11  and  C_12
REMARK                            x       y       z     vdW  Elec       q    Type
REMARK                         _______ _______ _______ _____ _____    ______ ____
ROOT
ATOM      1  C   UNL     1       2.940   6.476  18.897  0.00  0.00    +0.000 A 
ATOM      2  C   UNL     1       2.075   6.616  19.990  0.00  0.00    +0.000 A 
ATOM      3 BR   UNL     1       1.355   8.309  20.445  0.00  0.00    +0.000 Br
ATOM      4  C   UNL     1       1.718   5.506  20.757  0.00  0.00    +0.000 A 
ATOM      5  C   UNL     1       2.236   4.255  20.431  0.00  0.00    +0.000 A 
ATOM      6 BR   UNL     1       1.751   2.745  21.463  0.00  0.00    +0.000 Br
ATOM      7  C   UNL     1       3.099   4.101  19.347  0.00  0.00    +0.000 A 
ATOM      8  C   UNL     1       3.447   5.214  18.573  0.00  0.00    +0.000 A 
ENDROOT
BRANCH   1   9
ATOM      9  O   UNL     1       3.288   7.561  18.137  0.00  0.00    +0.000 OA
ATOM     10  H   UNL     1       4.249   7.700  18.222  0.00  0.00    +0.000 HD
ENDBRANCH   1   9
BRANCH   8  11
ATOM     11  C   UNL     1       4.323   5.041  17.390  0.00  0.00    +0.000 C 
ATOM     12  N   UNL     1       5.396   5.756  17.241  0.00  0.00    +0.000 NA
BRANCH  12  13
ATOM     13  C   UNL     1       6.134   5.451  16.149  0.00  0.00    +0.000 A 
ATOM     14  N   UNL     1       7.331   5.821  15.735  0.00  0.00    +0.000 NA
ATOM     15  N   UNL     1       7.567   5.241  14.506  0.00  0.00    +0.000 NA
ATOM     16  C   UNL     1       6.511   4.529  14.200  0.00  0.00    +0.000 A 
ATOM     17  N   UNL     1       5.601   4.618  15.203  0.00  0.00    +0.000 N 
ATOM     18  H   UNL     1       4.693   4.189  15.260  0.00  0.00    +0.000 HD
ENDBRANCH  12  13
ENDBRANCH   8  11
TORSDOF 3
ENDMDL
MODEL 3
REMARK VINA RESULT:      -6.2      4.118      6.117
REMARK  Name = 
REMARK  3 active torsions:
REMARK  status: ('A' for Active; 'I' for Inactive)
REMARK    1  A    between atoms: O_1  and  C_2
REMARK    2  A    between atoms: C_9  and  C_10
REMARK    3  A    between atoms: N_11  and  C_12
REMARK                            x       y       z     vdW  Elec       q    Type
REMARK                         _______ _______ _______ _____ _____    ______ ____
ROOT
ATOM      1  C   UNL     1       5.563   4.181  16.978  0.00  0.00    +0.000 A 
ATOM      2  C   UNL     1       6.260   4.799  15.932  0.00  0.00    +0.000 A 
ATOM      3 BR   UNL     1       6.248   4.055  14.189  0.00  0.00    +0.000 Br
ATOM      4  C   UNL     1       6.966   5.983  16.152  0.00  0.00    +0.000 A 
ATOM      5  C   UNL     1       6.979   6.543  17.428  0.00  0.00    +0.000 A 
ATOM      6 BR   UNL     1       7.930   8.149  17.732  0.00  0.00    +0.000 Br
ATOM      7  C   UNL     1       6.291   5.939  18.479  0.00  0.00    +0.000 A 
ATOM      8  C   UNL     1       5.575   4.757  18.253  0.00  0.00    +0.000 A 
ENDROOT
BRANCH   1   9
ATOM      9  O   UNL     1       4.863   3.024  16.766  0.00  0.00    +0.000 OA
ATOM     10  H   UNL     1       4.525   3.033  15.851  0.00  0.00    +0.000 HD
ENDBRANCH   1   9
BRANCH   8  11
ATOM     11  C   UNL     1       4.803   4.144  19.358  0.00  0.00    +0.000 C 
ATOM     12  N   UNL     1       3.506   4.106  19.328  0.00  0.00    +0.000 NA
BRANCH  12  13
ATOM     13  C   UNL     1       2.932   3.463  20.371  0.00  0.00    +0.000 A 
ATOM     14  N   UNL     1       3.401   2.657  21.304  0.00  0.00    +0.000 NA
ATOM     15  N   UNL     1       2.348   2.240  22.092  0.00  0.00    +0.000 NA
ATOM     16  C   UNL     1       1.262   2.805  21.624  0.00  0.00    +0.000 A 
ATOM     17  N   UNL     1       1.583   3.589  20.563  0.00  0.00    +0.000 N 
ATOM     18  H   UNL     1       0.970   4.145  19.992  0.00  0.00    +0.000 HD
ENDBRANCH  12  13
ENDBRANCH   8  11
TORSDOF 3
ENDMDL
MODEL 4
REMARK VINA RESULT:      -6.2      4.143      6.371
REMARK  Name = 
REMARK  3 active torsions:
REMARK  status: ('A' for Active; 'I' for Inactive)
REMARK    1  A    between atoms: O_1  and  C_2
REMARK    2  A    between atoms: C_9  and  C_10
REMARK    3  A    between atoms: N_11  and  C_12
REMARK                            x       y       z     vdW  Elec       q    Type
REMARK                         _______ _______ _______ _____ _____    ______ ____
ROOT
ATOM      1  C   UNL     1       5.584   5.553  18.027  0.00  0.00    +0.000 A 
ATOM      2  C   UNL     1       6.557   6.030  17.140  0.00  0.00    +0.000 A 
ATOM      3 BR   UNL     1       7.776   7.379  17.673  0.00  0.00    +0.000 Br
ATOM      4  C   UNL     1       6.654   5.511  15.847  0.00  0.00    +0.000 A 
ATOM      5  C   UNL     1       5.767   4.516  15.443  0.00  0.00    +0.000 A 
ATOM      6 BR   UNL     1       5.896   3.804  13.696  0.00  0.00    +0.000 Br
ATOM      7  C   UNL     1       4.793   4.031  16.315  0.00  0.00    +0.000 A 
ATOM      8  C   UNL     1       4.705   4.547  17.614  0.00  0.00    +0.000 A 
ENDROOT
BRANCH   1   9
ATOM      9  O   UNL     1       5.490   6.054  19.298  0.00  0.00    +0.000 OA
ATOM     10  H   UNL     1       5.908   5.420  19.910  0.00  0.00    +0.000 HD
ENDBRANCH   1   9
BRANCH   8  11
ATOM     11  C   UNL     1       3.704   3.995  18.556  0.00  0.00    +0.000 C 
ATOM     12  N   UNL     1       4.043   3.626  19.754  0.00  0.00    +0.000 NA
BRANCH  12  13
ATOM     13  C   UNL     1       3.019   3.200  20.528  0.00  0.00    +0.000 A 
ATOM     14  N   UNL     1       2.962   2.605  21.704  0.00  0.00    +0.000 NA
ATOM     15  N   UNL     1       1.640   2.343  21.998  0.00  0.00    +0.000 NA
ATOM     16  C   UNL     1       0.921   2.786  20.996  0.00  0.00    +0.000 A 
ATOM     17  N   UNL     1       1.738   3.343  20.066  0.00  0.00    +0.000 N 
ATOM     18  H   UNL     1       1.487   3.763  19.188  0.00  0.00    +0.000 HD
ENDBRANCH  12  13
ENDBRANCH   8  11
TORSDOF 3
ENDMDL
MODEL 5
REMARK VINA RESULT:      -6.1      1.198      1.552
REMARK  Name = 
REMARK  3 active torsions:
REMARK  status: ('A' for Active; 'I' for Inactive)
REMARK    1  A    between atoms: O_1  and  C_2
REMARK    2  A    between atoms: C_9  and  C_10
REMARK    3  A    between atoms: N_11  and  C_12
REMARK                            x       y       z     vdW  Elec       q    Type
REMARK                         _______ _______ _______ _____ _____    ______ ____
ROOT
ATOM      1  C   UNL     1       3.872   4.124  17.972  0.00  0.00    +0.000 A 
ATOM      2  C   UNL     1       2.874   4.092  18.954  0.00  0.00    +0.000 A 
ATOM      3 BR   UNL     1       2.325   2.449  19.723  0.00  0.00    +0.000 Br
ATOM      4  C   UNL     1       2.273   5.272  19.393  0.00  0.00    +0.000 A 
ATOM      5  C   UNL     1       2.671   6.488  18.840  0.00  0.00    +0.000 A 
ATOM      6 BR   UNL     1       1.865   8.092  19.434  0.00  0.00    +0.000 Br
ATOM      7  C   UNL     1       3.662   6.535  17.861  0.00  0.00    +0.000 A 
ATOM      8  C   UNL     1       4.270   5.350  17.429  0.00  0.00    +0.000 A 
ENDROOT
BRANCH   1   9
ATOM      9  O   UNL     1       4.469   2.969  17.543  0.00  0.00    +0.000 OA
ATOM     10  H   UNL     1       4.295   2.868  16.589  0.00  0.00    +0.000 HD
ENDBRANCH   1   9
BRANCH   8  11
ATOM     11  C   UNL     1       5.359   5.407  16.427  0.00  0.00    +0.000 C 
ATOM     12  N   UNL     1       5.400   4.570  15.435  0.00  0.00    +0.000 NA
BRANCH  12  13
ATOM     13  C   UNL     1       6.413   4.774  14.562  0.00  0.00    +0.000 A 
ATOM     14  N   UNL     1       7.499   5.522  14.597  0.00  0.00    +0.000 NA
ATOM     15  N   UNL     1       8.160   5.390  13.393  0.00  0.00    +0.000 NA
ATOM     16  C   UNL     1       7.464   4.562  12.653  0.00  0.00    +0.000 A 
ATOM     17  N   UNL     1       6.377   4.141  13.349  0.00  0.00    +0.000 N 
ATOM     18  H   UNL     1       5.653   3.509  13.051  0.00  0.00    +0.000 HD
ENDBRANCH  12  13
ENDBRANCH   8  11
TORSDOF 3
ENDMDL
MODEL 6
REMARK VINA RESULT:      -6.0      4.547      6.592
REMARK  Name = 
REMARK  3 active torsions:
REMARK  status: ('A' for Active; 'I' for Inactive)
REMARK    1  A    between atoms: O_1  and  C_2
REMARK    2  A    between atoms: C_9  and  C_10
REMARK    3  A    between atoms: N_11  and  C_12
REMARK                            x       y       z     vdW  Elec       q    Type
REMARK                         _______ _______ _______ _____ _____    ______ ____
ROOT
ATOM      1  C   UNL     1       2.003   4.623  19.445  0.00  0.00    +0.000 A 
ATOM      2  C   UNL     1       2.570   3.857  18.418  0.00  0.00    +0.000 A 
ATOM      3 BR   UNL     1       2.120   2.028  18.214  0.00  0.00    +0.000 Br
ATOM      4  C   UNL     1       3.469   4.432  17.519  0.00  0.00    +0.000 A 
ATOM      5  C   UNL     1       3.805   5.777  17.655  0.00  0.00    +0.000 A 
ATOM      6 BR   UNL     1       5.018   6.564  16.436  0.00  0.00    +0.000 Br
ATOM      7  C   UNL     1       3.250   6.552  18.672  0.00  0.00    +0.000 A 
ATOM      8  C   UNL     1       2.340   5.975  19.567  0.00  0.00    +0.000 A 
ENDROOT
BRANCH   1   9
ATOM      9  O   UNL     1       1.115   4.065  20.326  0.00  0.00    +0.000 OA
ATOM     10  H   UNL     1       1.540   3.294  20.744  0.00  0.00    +0.000 HD
ENDBRANCH   1   9
BRANCH   8  11
ATOM     11  C   UNL     1       1.712   6.811  20.616  0.00  0.00    +0.000 C 
ATOM     12  N   UNL     1       1.809   8.105  20.588  0.00  0.00    +0.000 NA
BRANCH  12  13
ATOM     13  C   UNL     1       1.136   8.746  21.571  0.00  0.00    +0.000 A 
ATOM     14  N   UNL     1       1.513   9.538  22.556  0.00  0.00    +0.000 NA
ATOM     15  N   UNL     1       0.401   9.865  23.305  0.00  0.00    +0.000 NA
ATOM     16  C   UNL     1      -0.629   9.269  22.757  0.00  0.00    +0.000 A 
ATOM     17  N   UNL     1      -0.219   8.575  21.664  0.00  0.00    +0.000 N 
ATOM     18  H   UNL     1      -0.773   8.014  21.038  0.00  0.00    +0.000 HD
ENDBRANCH  12  13
ENDBRANCH   8  11
TORSDOF 3
ENDMDL
MODEL 7
REMARK VINA RESULT:      -6.0      4.328      5.997
REMARK  Name = 
REMARK  3 active torsions:
REMARK  status: ('A' for Active; 'I' for Inactive)
REMARK    1  A    between atoms: O_1  and  C_2
REMARK    2  A    between atoms: C_9  and  C_10
REMARK    3  A    between atoms: N_11  and  C_12
REMARK                            x       y       z     vdW  Elec       q    Type
REMARK                         _______ _______ _______ _____ _____    ______ ____
ROOT
ATOM      1  C   UNL     1       3.956   5.903  17.363  0.00  0.00    +0.000 A 
ATOM      2  C   UNL     1       4.285   4.597  16.977  0.00  0.00    +0.000 A 
ATOM      3 BR   UNL     1       5.811   4.260  15.905  0.00  0.00    +0.000 Br
ATOM      4  C   UNL     1       3.499   3.518  17.385  0.00  0.00    +0.000 A 
ATOM      5  C   UNL     1       2.377   3.752  18.177  0.00  0.00    +0.000 A 
ATOM      6 BR   UNL     1       1.311   2.294  18.739  0.00  0.00    +0.000 Br
ATOM      7  C   UNL     1       2.037   5.045  18.569  0.00  0.00    +0.000 A 
ATOM      8  C   UNL     1       2.832   6.125  18.166  0.00  0.00    +0.000 A 
ENDROOT
BRANCH   1   9
ATOM      9  O   UNL     1       4.728   6.964  16.971  0.00  0.00    +0.000 OA
ATOM     10  H   UNL     1       4.515   7.725  17.541  0.00  0.00    +0.000 HD
ENDBRANCH   1   9
BRANCH   8  11
ATOM     11  C   UNL     1       2.500   7.493  18.625  0.00  0.00    +0.000 C 
ATOM     12  N   UNL     1       1.963   8.358  17.820  0.00  0.00    +0.000 NA
BRANCH  12  13
ATOM     13  C   UNL     1       1.655   9.547  18.386  0.00  0.00    +0.000 A 
ATOM     14  N   UNL     1       0.925   9.889  19.430  0.00  0.00    +0.000 NA
ATOM     15  N   UNL     1       0.906  11.265  19.521  0.00  0.00    +0.000 NA
ATOM     16  C   UNL     1       1.629  11.732  18.532  0.00  0.00    +0.000 A 
ATOM     17  N   UNL     1       2.129  10.696  17.811  0.00  0.00    +0.000 N 
ATOM     18  H   UNL     1       2.714  10.731  16.994  0.00  0.00    +0.000 HD
ENDBRANCH  12  13
ENDBRANCH   8  11
TORSDOF 3
ENDMDL
MODEL 8
REMARK VINA RESULT:      -5.9      1.510      2.780
REMARK  Name = 
REMARK  3 active torsions:
REMARK  status: ('A' for Active; 'I' for Inactive)
REMARK    1  A    between atoms: O_1  and  C_2
REMARK    2  A    between atoms: C_9  and  C_10
REMARK    3  A    between atoms: N_11  and  C_12
REMARK                            x       y       z     vdW  Elec       q    Type
REMARK                         _______ _______ _______ _____ _____    ______ ____
ROOT
ATOM      1  C   UNL     1       3.324   6.367  18.271  0.00  0.00    +0.000 A 
ATOM      2  C   UNL     1       2.405   6.262  19.322  0.00  0.00    +0.000 A 
ATOM      3 BR   UNL     1       1.772   7.810  20.214  0.00  0.00    +0.000 Br
ATOM      4  C   UNL     1       1.929   5.013  19.726  0.00  0.00    +0.000 A 
ATOM      5  C   UNL     1       2.382   3.867  19.076  0.00  0.00    +0.000 A 
ATOM      6 BR   UNL     1       1.737   2.172  19.613  0.00  0.00    +0.000 Br
ATOM      7  C   UNL     1       3.297   3.956  18.028  0.00  0.00    +0.000 A 
ATOM      8  C   UNL     1       3.766   5.211  17.619  0.00  0.00    +0.000 A 
ENDROOT
BRANCH   1   9
ATOM      9  O   UNL     1       3.788   7.590  17.867  0.00  0.00    +0.000 OA
ATOM     10  H   UNL     1       3.457   8.265  18.488  0.00  0.00    +0.000 HD
ENDBRANCH   1   9
BRANCH   8  11
ATOM     11  C   UNL     1       4.698   5.308  16.472  0.00  0.00    +0.000 C 
ATOM     12  N   UNL     1       5.881   4.776  16.524  0.00  0.00    +0.000 NA
BRANCH  12  13
ATOM     13  C   UNL     1       6.603   4.887  15.386  0.00  0.00    +0.000 A 
ATOM     14  N   UNL     1       7.642   5.625  15.042  0.00  0.00    +0.000 NA
ATOM     15  N   UNL     1       7.940   5.372  13.719  0.00  0.00    +0.000 NA
ATOM     16  C   UNL     1       7.079   4.484  13.287  0.00  0.00    +0.000 A 
ATOM     17  N   UNL     1       6.239   4.141  14.297  0.00  0.00    +0.000 N 
ATOM     18  H   UNL     1       5.473   3.490  14.276  0.00  0.00    +0.000 HD
ENDBRANCH  12  13
ENDBRANCH   8  11
TORSDOF 3
ENDMDL
MODEL 9
REMARK VINA RESULT:      -5.8      1.377      2.007
REMARK  Name = 
REMARK  3 active torsions:
REMARK  status: ('A' for Active; 'I' for Inactive)
REMARK    1  A    between atoms: O_1  and  C_2
REMARK    2  A    between atoms: C_9  and  C_10
REMARK    3  A    between atoms: N_11  and  C_12
REMARK                            x       y       z     vdW  Elec       q    Type
REMARK                         _______ _______ _______ _____ _____    ______ ____
ROOT
ATOM      1  C   UNL     1       4.208   4.225  18.018  0.00  0.00    +0.000 A 
ATOM      2  C   UNL     1       3.391   4.326  19.151  0.00  0.00    +0.000 A 
ATOM      3 BR   UNL     1       3.168   2.850  20.319  0.00  0.00    +0.000 Br
ATOM      4  C   UNL     1       2.733   5.521  19.448  0.00  0.00    +0.000 A 
ATOM      5  C   UNL     1       2.892   6.615  18.600  0.00  0.00    +0.000 A 
ATOM      6 BR   UNL     1       2.009   8.240  18.998  0.00  0.00    +0.000 Br
ATOM      7  C   UNL     1       3.701   6.530  17.468  0.00  0.00    +0.000 A 
ATOM      8  C   UNL     1       4.367   5.333  17.179  0.00  0.00    +0.000 A 
ENDROOT
BRANCH   1   9
ATOM      9  O   UNL     1       4.860   3.057  17.728  0.00  0.00    +0.000 OA
ATOM     10  H   UNL     1       4.356   2.318  18.116  0.00  0.00    +0.000 HD
ENDBRANCH   1   9
BRANCH   8  11
ATOM     11  C   UNL     1       5.267   5.258  16.006  0.00  0.00    +0.000 C 
ATOM     12  N   UNL     1       5.240   4.237  15.204  0.00  0.00    +0.000 NA
BRANCH  12  13
ATOM     13  C   UNL     1       6.070   4.328  14.140  0.00  0.00    +0.000 A 
ATOM     14  N   UNL     1       6.154   3.670  13.000  0.00  0.00    +0.000 NA
ATOM     15  N   UNL     1       7.242   4.146  12.298  0.00  0.00    +0.000 NA
ATOM     16  C   UNL     1       7.795   5.086  13.024  0.00  0.00    +0.000 A 
ATOM     17  N   UNL     1       7.087   5.244  14.172  0.00  0.00    +0.000 N 
ATOM     18  H   UNL     1       7.263   5.882  14.930  0.00  0.00    +0.000 HD
ENDBRANCH  12  13
ENDBRANCH   8  11
TORSDOF 3
ENDMDL
