MODEL 1
REMARK VINA RESULT:      -8.1      0.000      0.000
REMARK  Name = 
REMARK  6 active torsions:
REMARK  status: ('A' for Active; 'I' for Inactive)
REMARK    1  A    between atoms: C_1  and  C_2
REMARK    2  A    between atoms: C_6  and  C_7
REMARK    3  A    between atoms: C_10  and  C_11
REMARK    4  A    between atoms: C_11  and  N_12
REMARK    5  A    between atoms: C_15  and  C_16
REMARK    6  A    between atoms: N_18  and  C_19
REMARK                            x       y       z     vdW  Elec       q    Type
REMARK                         _______ _______ _______ _____ _____    ______ ____
ROOT
ATOM      1  C   UNL     1       6.363   5.477  15.709  0.00  0.00    +0.000 A 
ATOM      2  N   UNL     1       7.268   5.969  16.573  0.00  0.00    +0.000 NA
ATOM      3  O   UNL     1       6.518   6.235  17.722  0.00  0.00    +0.000 OA
ATOM      4  C   UNL     1       5.234   5.874  17.441  0.00  0.00    +0.000 A 
ATOM      5  N   UNL     1       5.077   5.432  16.217  0.00  0.00    +0.000 NA
ENDROOT
BRANCH   1  11
ATOM      6  C   UNL     1       5.275   2.503  11.882  0.00  0.00    +0.000 C 
ATOM      7  C   UNL     1       6.141   3.554  12.504  0.00  0.00    +0.000 A 
ATOM      8  C   UNL     1       7.258   4.069  11.849  0.00  0.00    +0.000 A 
ATOM      9  C   UNL     1       8.016   5.039  12.488  0.00  0.00    +0.000 A 
ATOM     10  N   UNL     1       7.738   5.528  13.717  0.00  0.00    +0.000 NA
ATOM     11  C   UNL     1       6.653   5.015  14.352  0.00  0.00    +0.000 A 
ATOM     12  C   UNL     1       5.842   4.036  13.780  0.00  0.00    +0.000 A 
ENDBRANCH   1  11
BRANCH   4  13
ATOM     13  C   UNL     1       4.236   5.986  18.536  0.00  0.00    +0.000 C 
BRANCH  13  14
ATOM     14  N   UNL     1       3.760   4.664  18.916  0.00  0.00    +0.000 N 
ATOM     15  C   UNL     1       2.469   4.329  18.557  0.00  0.00    +0.000 A 
ATOM     16  O   UNL     1       1.708   5.101  17.977  0.00  0.00    +0.000 OA
ATOM     17  C   UNL     1       2.014   2.965  18.913  0.00  0.00    +0.000 A 
ATOM     18  C   UNL     1       0.621   2.548  18.564  0.00  0.00    +0.000 C 
ATOM     19  C   UNL     1       2.876   2.153  19.531  0.00  0.00    +0.000 A 
ATOM     20  N   UNL     1       4.149   2.545  19.863  0.00  0.00    +0.000 N 
ATOM     21  C   UNL     1       5.043   1.607  20.524  0.00  0.00    +0.000 C 
ATOM     22  C   UNL     1       4.638   3.822  19.589  0.00  0.00    +0.000 A 
ATOM     23  O   UNL     1       5.767   4.172  19.930  0.00  0.00    +0.000 OA
ENDBRANCH  13  14
ENDBRANCH   4  13
TORSDOF 3
ENDMDL
MODEL 2
REMARK VINA RESULT:      -8.1      1.413      2.108
REMARK  Name = 
REMARK  6 active torsions:
REMARK  status: ('A' for Active; 'I' for Inactive)
REMARK    1  A    between atoms: C_1  and  C_2
REMARK    2  A    between atoms: C_6  and  C_7
REMARK    3  A    between atoms: C_10  and  C_11
REMARK    4  A    between atoms: C_11  and  N_12
REMARK    5  A    between atoms: C_15  and  C_16
REMARK    6  A    between atoms: N_18  and  C_19
REMARK                            x       y       z     vdW  Elec       q    Type
REMARK                         _______ _______ _______ _____ _____    ______ ____
ROOT
ATOM      1  C   UNL     1       6.758   4.792  15.992  0.00  0.00    +0.000 A 
ATOM      2  N   UNL     1       7.454   5.624  16.787  0.00  0.00    +0.000 NA
ATOM      3  O   UNL     1       6.993   5.318  18.070  0.00  0.00    +0.000 OA
ATOM      4  C   UNL     1       6.066   4.329  17.926  0.00  0.00    +0.000 A 
ATOM      5  N   UNL     1       5.862   3.991  16.675  0.00  0.00    +0.000 NA
ENDROOT
BRANCH   1  11
ATOM      6  C   UNL     1       5.479   2.629  11.708  0.00  0.00    +0.000 C 
ATOM      7  C   UNL     1       6.294   3.633  12.462  0.00  0.00    +0.000 A 
ATOM      8  C   UNL     1       7.228   4.449  11.827  0.00  0.00    +0.000 A 
ATOM      9  C   UNL     1       7.949   5.355  12.591  0.00  0.00    +0.000 A 
ATOM     10  N   UNL     1       7.801   5.504  13.926  0.00  0.00    +0.000 NA
ATOM     11  C   UNL     1       6.895   4.700  14.539  0.00  0.00    +0.000 A 
ATOM     12  C   UNL     1       6.134   3.762  13.843  0.00  0.00    +0.000 A 
ENDBRANCH   1  11
BRANCH   4  13
ATOM     13  C   UNL     1       5.470   3.762  19.163  0.00  0.00    +0.000 C 
BRANCH  13  14
ATOM     14  N   UNL     1       4.047   4.059  19.214  0.00  0.00    +0.000 N 
ATOM     15  C   UNL     1       3.173   3.019  18.965  0.00  0.00    +0.000 A 
ATOM     16  O   UNL     1       3.542   1.884  18.669  0.00  0.00    +0.000 OA
ATOM     17  C   UNL     1       1.727   3.327  19.063  0.00  0.00    +0.000 A 
ATOM     18  C   UNL     1       0.732   2.245  18.790  0.00  0.00    +0.000 C 
ATOM     19  C   UNL     1       1.369   4.569  19.400  0.00  0.00    +0.000 A 
ATOM     20  N   UNL     1       2.286   5.563  19.634  0.00  0.00    +0.000 N 
ATOM     21  C   UNL     1       1.828   6.892  20.011  0.00  0.00    +0.000 C 
ATOM     22  C   UNL     1       3.661   5.357  19.532  0.00  0.00    +0.000 A 
ATOM     23  O   UNL     1       4.469   6.268  19.704  0.00  0.00    +0.000 OA
ENDBRANCH  13  14
ENDBRANCH   4  13
TORSDOF 3
ENDMDL
MODEL 3
REMARK VINA RESULT:      -8.0      0.572      2.230
REMARK  Name = 
REMARK  6 active torsions:
REMARK  status: ('A' for Active; 'I' for Inactive)
REMARK    1  A    between atoms: C_1  and  C_2
REMARK    2  A    between atoms: C_6  and  C_7
REMARK    3  A    between atoms: C_10  and  C_11
REMARK    4  A    between atoms: C_11  and  N_12
REMARK    5  A    between atoms: C_15  and  C_16
REMARK    6  A    between atoms: N_18  and  C_19
REMARK                            x       y       z     vdW  Elec       q    Type
REMARK                         _______ _______ _______ _____ _____    ______ ____
ROOT
ATOM      1  C   UNL     1       6.307   5.525  15.680  0.00  0.00    +0.000 A 
ATOM      2  N   UNL     1       7.172   6.143  16.503  0.00  0.00    +0.000 NA
ATOM      3  O   UNL     1       6.420   6.376  17.658  0.00  0.00    +0.000 OA
ATOM      4  C   UNL     1       5.176   5.873  17.421  0.00  0.00    +0.000 A 
ATOM      5  N   UNL     1       5.043   5.368  16.219  0.00  0.00    +0.000 NA
ENDROOT
BRANCH   1  11
ATOM      6  C   UNL     1       5.252   2.521  11.868  0.00  0.00    +0.000 C 
ATOM      7  C   UNL     1       6.122   3.565  12.495  0.00  0.00    +0.000 A 
ATOM      8  C   UNL     1       7.260   4.055  11.857  0.00  0.00    +0.000 A 
ATOM      9  C   UNL     1       8.019   5.021  12.500  0.00  0.00    +0.000 A 
ATOM     10  N   UNL     1       7.724   5.529  13.716  0.00  0.00    +0.000 NA
ATOM     11  C   UNL     1       6.618   5.042  14.335  0.00  0.00    +0.000 A 
ATOM     12  C   UNL     1       5.804   4.068  13.758  0.00  0.00    +0.000 A 
ENDBRANCH   1  11
BRANCH   4  13
ATOM     13  C   UNL     1       4.192   5.924  18.534  0.00  0.00    +0.000 C 
BRANCH  13  14
ATOM     14  N   UNL     1       3.735   4.582  18.859  0.00  0.00    +0.000 N 
ATOM     15  C   UNL     1       4.625   3.750  19.509  0.00  0.00    +0.000 A 
ATOM     16  O   UNL     1       5.778   4.078  19.783  0.00  0.00    +0.000 OA
ATOM     17  C   UNL     1       4.131   2.401  19.872  0.00  0.00    +0.000 A 
ATOM     18  C   UNL     1       5.053   1.450  20.564  0.00  0.00    +0.000 C 
ATOM     19  C   UNL     1       2.868   2.090  19.568  0.00  0.00    +0.000 A 
ATOM     20  N   UNL     1       2.030   2.961  18.918  0.00  0.00    +0.000 N 
ATOM     21  C   UNL     1       0.661   2.563  18.629  0.00  0.00    +0.000 C 
ATOM     22  C   UNL     1       2.432   4.235  18.518  0.00  0.00    +0.000 A 
ATOM     23  O   UNL     1       1.683   4.988  17.900  0.00  0.00    +0.000 OA
ENDBRANCH  13  14
ENDBRANCH   4  13
TORSDOF 3
ENDMDL
MODEL 4
REMARK VINA RESULT:      -8.0      1.560      2.281
REMARK  Name = 
REMARK  6 active torsions:
REMARK  status: ('A' for Active; 'I' for Inactive)
REMARK    1  A    between atoms: C_1  and  C_2
REMARK    2  A    between atoms: C_6  and  C_7
REMARK    3  A    between atoms: C_10  and  C_11
REMARK    4  A    between atoms: C_11  and  N_12
REMARK    5  A    between atoms: C_15  and  C_16
REMARK    6  A    between atoms: N_18  and  C_19
REMARK                            x       y       z     vdW  Elec       q    Type
REMARK                         _______ _______ _______ _____ _____    ______ ____
ROOT
ATOM      1  C   UNL     1       7.068   4.578  16.108  0.00  0.00    +0.000 A 
ATOM      2  N   UNL     1       8.124   4.295  16.891  0.00  0.00    +0.000 NA
ATOM      3  O   UNL     1       7.607   4.377  18.187  0.00  0.00    +0.000 OA
ATOM      4  C   UNL     1       6.289   4.699  18.060  0.00  0.00    +0.000 A 
ATOM      5  N   UNL     1       5.914   4.862  16.814  0.00  0.00    +0.000 NA
ENDROOT
BRANCH   1  11
ATOM      6  C   UNL     1       5.398   2.762  11.797  0.00  0.00    +0.000 C 
ATOM      7  C   UNL     1       6.290   3.698  12.553  0.00  0.00    +0.000 A 
ATOM      8  C   UNL     1       7.180   4.551  11.904  0.00  0.00    +0.000 A 
ATOM      9  C   UNL     1       7.977   5.388  12.671  0.00  0.00    +0.000 A 
ATOM     10  N   UNL     1       7.945   5.437  14.020  0.00  0.00    +0.000 NA
ATOM     11  C   UNL     1       7.081   4.596  14.646  0.00  0.00    +0.000 A 
ATOM     12  C   UNL     1       6.249   3.722  13.949  0.00  0.00    +0.000 A 
ENDBRANCH   1  11
BRANCH   4  13
ATOM     13  C   UNL     1       5.479   4.773  19.303  0.00  0.00    +0.000 C 
BRANCH  13  14
ATOM     14  N   UNL     1       4.065   4.863  18.974  0.00  0.00    +0.000 N 
ATOM     15  C   UNL     1       3.579   6.099  18.596  0.00  0.00    +0.000 A 
ATOM     16  O   UNL     1       4.272   7.115  18.565  0.00  0.00    +0.000 OA
ATOM     17  C   UNL     1       2.147   6.166  18.223  0.00  0.00    +0.000 A 
ATOM     18  C   UNL     1       1.561   7.480  17.819  0.00  0.00    +0.000 C 
ATOM     19  C   UNL     1       1.434   5.037  18.257  0.00  0.00    +0.000 A 
ATOM     20  N   UNL     1       1.973   3.835  18.644  0.00  0.00    +0.000 N 
ATOM     21  C   UNL     1       1.143   2.640  18.646  0.00  0.00    +0.000 C 
ATOM     22  C   UNL     1       3.304   3.700  19.038  0.00  0.00    +0.000 A 
ATOM     23  O   UNL     1       3.762   2.625  19.421  0.00  0.00    +0.000 OA
ENDBRANCH  13  14
ENDBRANCH   4  13
TORSDOF 3
ENDMDL
MODEL 5
REMARK VINA RESULT:      -7.9      4.569      6.669
REMARK  Name = 
REMARK  6 active torsions:
REMARK  status: ('A' for Active; 'I' for Inactive)
REMARK    1  A    between atoms: C_1  and  C_2
REMARK    2  A    between atoms: C_6  and  C_7
REMARK    3  A    between atoms: C_10  and  C_11
REMARK    4  A    between atoms: C_11  and  N_12
REMARK    5  A    between atoms: C_15  and  C_16
REMARK    6  A    between atoms: N_18  and  C_19
REMARK                            x       y       z     vdW  Elec       q    Type
REMARK                         _______ _______ _______ _____ _____    ______ ____
ROOT
ATOM      1  C   UNL     1       8.405   8.918  18.290  0.00  0.00    +0.000 A 
ATOM      2  N   UNL     1       7.593   8.843  17.220  0.00  0.00    +0.000 NA
ATOM      3  O   UNL     1       7.209   7.500  17.189  0.00  0.00    +0.000 OA
ATOM      4  C   UNL     1       7.824   6.894  18.244  0.00  0.00    +0.000 A 
ATOM      5  N   UNL     1       8.589   7.707  18.933  0.00  0.00    +0.000 NA
ENDROOT
BRANCH   1  11
ATOM      6  C   UNL     1      10.828  13.143  17.320  0.00  0.00    +0.000 C 
ATOM      7  C   UNL     1      10.254  12.173  18.305  0.00  0.00    +0.000 A 
ATOM      8  C   UNL     1      10.372  12.365  19.681  0.00  0.00    +0.000 A 
ATOM      9  C   UNL     1       9.818  11.421  20.533  0.00  0.00    +0.000 A 
ATOM     10  N   UNL     1       9.159  10.318  20.116  0.00  0.00    +0.000 NA
ATOM     11  C   UNL     1       9.055  10.134  18.774  0.00  0.00    +0.000 A 
ATOM     12  C   UNL     1       9.588  11.033  17.851  0.00  0.00    +0.000 A 
ENDBRANCH   1  11
BRANCH   4  13
ATOM     13  C   UNL     1       7.518   5.461  18.487  0.00  0.00    +0.000 C 
BRANCH  13  14
ATOM     14  N   UNL     1       6.401   5.040  17.655  0.00  0.00    +0.000 N 
ATOM     15  C   UNL     1       6.687   4.643  16.363  0.00  0.00    +0.000 A 
ATOM     16  O   UNL     1       7.820   4.668  15.886  0.00  0.00    +0.000 OA
ATOM     17  C   UNL     1       5.545   4.178  15.543  0.00  0.00    +0.000 A 
ATOM     18  C   UNL     1       5.790   3.749  14.132  0.00  0.00    +0.000 C 
ATOM     19  C   UNL     1       4.333   4.154  16.104  0.00  0.00    +0.000 A 
ATOM     20  N   UNL     1       4.111   4.564  17.395  0.00  0.00    +0.000 N 
ATOM     21  C   UNL     1       2.767   4.501  17.950  0.00  0.00    +0.000 C 
ATOM     22  C   UNL     1       5.129   5.043  18.218  0.00  0.00    +0.000 A 
ATOM     23  O   UNL     1       4.907   5.446  19.359  0.00  0.00    +0.000 OA
ENDBRANCH  13  14
ENDBRANCH   4  13
TORSDOF 3
ENDMDL
MODEL 6
REMARK VINA RESULT:      -7.8      1.741      2.761
REMARK  Name = 
REMARK  6 active torsions:
REMARK  status: ('A' for Active; 'I' for Inactive)
REMARK    1  A    between atoms: C_1  and  C_2
REMARK    2  A    between atoms: C_6  and  C_7
REMARK    3  A    between atoms: C_10  and  C_11
REMARK    4  A    between atoms: C_11  and  N_12
REMARK    5  A    between atoms: C_15  and  C_16
REMARK    6  A    between atoms: N_18  and  C_19
REMARK                            x       y       z     vdW  Elec       q    Type
REMARK                         _______ _______ _______ _____ _____    ______ ____
ROOT
ATOM      1  C   UNL     1       6.599   4.380  14.280  0.00  0.00    +0.000 A 
ATOM      2  N   UNL     1       7.462   5.411  14.328  0.00  0.00    +0.000 NA
ATOM      3  O   UNL     1       7.507   5.742  15.685  0.00  0.00    +0.000 OA
ATOM      4  C   UNL     1       6.671   4.876  16.325  0.00  0.00    +0.000 A 
ATOM      5  N   UNL     1       6.069   4.043  15.512  0.00  0.00    +0.000 NA
ENDROOT
BRANCH   1  11
ATOM      6  C   UNL     1       3.170   3.213  10.882  0.00  0.00    +0.000 C 
ATOM      7  C   UNL     1       4.553   3.060  11.437  0.00  0.00    +0.000 A 
ATOM      8  C   UNL     1       5.482   2.192  10.867  0.00  0.00    +0.000 A 
ATOM      9  C   UNL     1       6.743   2.101  11.437  0.00  0.00    +0.000 A 
ATOM     10  N   UNL     1       7.138   2.809  12.518  0.00  0.00    +0.000 NA
ATOM     11  C   UNL     1       6.224   3.648  13.072  0.00  0.00    +0.000 A 
ATOM     12  C   UNL     1       4.935   3.794  12.562  0.00  0.00    +0.000 A 
ENDBRANCH   1  11
BRANCH   4  13
ATOM     13  C   UNL     1       6.595   4.964  17.807  0.00  0.00    +0.000 C 
BRANCH  13  14
ATOM     14  N   UNL     1       5.216   5.156  18.226  0.00  0.00    +0.000 N 
ATOM     15  C   UNL     1       4.604   6.342  17.868  0.00  0.00    +0.000 A 
ATOM     16  O   UNL     1       5.179   7.239  17.254  0.00  0.00    +0.000 OA
ATOM     17  C   UNL     1       3.186   6.505  18.266  0.00  0.00    +0.000 A 
ATOM     18  C   UNL     1       2.474   7.772  17.918  0.00  0.00    +0.000 C 
ATOM     19  C   UNL     1       2.595   5.501  18.919  0.00  0.00    +0.000 A 
ATOM     20  N   UNL     1       3.258   4.345  19.249  0.00  0.00    +0.000 N 
ATOM     21  C   UNL     1       2.551   3.284  19.950  0.00  0.00    +0.000 C 
ATOM     22  C   UNL     1       4.600   4.131  18.936  0.00  0.00    +0.000 A 
ATOM     23  O   UNL     1       5.191   3.108  19.275  0.00  0.00    +0.000 OA
ENDBRANCH  13  14
ENDBRANCH   4  13
TORSDOF 3
ENDMDL
MODEL 7
REMARK VINA RESULT:      -7.7      4.620      6.605
REMARK  Name = 
REMARK  6 active torsions:
REMARK  status: ('A' for Active; 'I' for Inactive)
REMARK    1  A    between atoms: C_1  and  C_2
REMARK    2  A    between atoms: C_6  and  C_7
REMARK    3  A    between atoms: C_10  and  C_11
REMARK    4  A    between atoms: C_11  and  N_12
REMARK    5  A    between atoms: C_15  and  C_16
REMARK    6  A    between atoms: N_18  and  C_19
REMARK                            x       y       z     vdW  Elec       q    Type
REMARK                         _______ _______ _______ _____ _____    ______ ____
ROOT
ATOM      1  C   UNL     1       8.475   8.954  18.402  0.00  0.00    +0.000 A 
ATOM      2  N   UNL     1       7.692   8.829  17.316  0.00  0.00    +0.000 NA
ATOM      3  O   UNL     1       7.339   7.477  17.316  0.00  0.00    +0.000 OA
ATOM      4  C   UNL     1       7.941   6.918  18.404  0.00  0.00    +0.000 A 
ATOM      5  N   UNL     1       8.669   7.768  19.085  0.00  0.00    +0.000 NA
ENDROOT
BRANCH   1  11
ATOM      6  C   UNL     1      10.084  13.548  17.416  0.00  0.00    +0.000 C 
ATOM      7  C   UNL     1       9.891  12.420  18.381  0.00  0.00    +0.000 A 
ATOM      8  C   UNL     1      10.330  12.498  19.701  0.00  0.00    +0.000 A 
ATOM      9  C   UNL     1      10.118  11.411  20.537  0.00  0.00    +0.000 A 
ATOM     10  N   UNL     1       9.504  10.271  20.155  0.00  0.00    +0.000 NA
ATOM     11  C   UNL     1       9.086  10.200  18.864  0.00  0.00    +0.000 A 
ATOM     12  C   UNL     1       9.264  11.245  17.960  0.00  0.00    +0.000 A 
ENDBRANCH   1  11
BRANCH   4  13
ATOM     13  C   UNL     1       7.660   5.485  18.682  0.00  0.00    +0.000 C 
BRANCH  13  14
ATOM     14  N   UNL     1       6.540   5.029  17.875  0.00  0.00    +0.000 N 
ATOM     15  C   UNL     1       5.280   5.109  18.436  0.00  0.00    +0.000 A 
ATOM     16  O   UNL     1       5.077   5.506  19.582  0.00  0.00    +0.000 OA
ATOM     17  C   UNL     1       4.145   4.680  17.586  0.00  0.00    +0.000 A 
ATOM     18  C   UNL     1       2.759   4.731  18.143  0.00  0.00    +0.000 C 
ATOM     19  C   UNL     1       4.409   4.269  16.343  0.00  0.00    +0.000 A 
ATOM     20  N   UNL     1       5.685   4.210  15.840  0.00  0.00    +0.000 N 
ATOM     21  C   UNL     1       5.901   3.764  14.472  0.00  0.00    +0.000 C 
ATOM     22  C   UNL     1       6.805   4.567  16.590  0.00  0.00    +0.000 A 
ATOM     23  O   UNL     1       7.946   4.469  16.140  0.00  0.00    +0.000 OA
ENDBRANCH  13  14
ENDBRANCH   4  13
TORSDOF 3
ENDMDL
MODEL 8
REMARK VINA RESULT:      -7.7      3.349      7.254
REMARK  Name = 
REMARK  6 active torsions:
REMARK  status: ('A' for Active; 'I' for Inactive)
REMARK    1  A    between atoms: C_1  and  C_2
REMARK    2  A    between atoms: C_6  and  C_7
REMARK    3  A    between atoms: C_10  and  C_11
REMARK    4  A    between atoms: C_11  and  N_12
REMARK    5  A    between atoms: C_15  and  C_16
REMARK    6  A    between atoms: N_18  and  C_19
REMARK                            x       y       z     vdW  Elec       q    Type
REMARK                         _______ _______ _______ _____ _____    ______ ____
ROOT
ATOM      1  C   UNL     1       2.209   6.155  20.186  0.00  0.00    +0.000 A 
ATOM      2  N   UNL     1       1.709   5.082  20.825  0.00  0.00    +0.000 NA
ATOM      3  O   UNL     1       2.593   4.054  20.485  0.00  0.00    +0.000 OA
ATOM      4  C   UNL     1       3.541   4.606  19.677  0.00  0.00    +0.000 A 
ATOM      5  N   UNL     1       3.339   5.880  19.438  0.00  0.00    +0.000 NA
ENDROOT
BRANCH   1  11
ATOM      6  C   UNL     1      -0.376   9.613  22.641  0.00  0.00    +0.000 C 
ATOM      7  C   UNL     1       0.377   9.177  21.422  0.00  0.00    +0.000 A 
ATOM      8  C   UNL     1       0.517  10.003  20.309  0.00  0.00    +0.000 A 
ATOM      9  C   UNL     1       1.226   9.530  19.215  0.00  0.00    +0.000 A 
ATOM     10  N   UNL     1       1.801   8.309  19.157  0.00  0.00    +0.000 NA
ATOM     11  C   UNL     1       1.653   7.506  20.243  0.00  0.00    +0.000 A 
ATOM     12  C   UNL     1       0.952   7.905  21.379  0.00  0.00    +0.000 A 
ENDBRANCH   1  11
BRANCH   4  13
ATOM     13  C   UNL     1       4.657   3.732  19.232  0.00  0.00    +0.000 C 
BRANCH  13  14
ATOM     14  N   UNL     1       5.527   4.457  18.319  0.00  0.00    +0.000 N 
ATOM     15  C   UNL     1       5.332   4.259  16.966  0.00  0.00    +0.000 A 
ATOM     16  O   UNL     1       4.495   3.480  16.512  0.00  0.00    +0.000 OA
ATOM     17  C   UNL     1       6.197   5.037  16.048  0.00  0.00    +0.000 A 
ATOM     18  C   UNL     1       6.042   4.854  14.573  0.00  0.00    +0.000 C 
ATOM     19  C   UNL     1       7.083   5.881  16.582  0.00  0.00    +0.000 A 
ATOM     20  N   UNL     1       7.232   6.035  17.938  0.00  0.00    +0.000 N 
ATOM     21  C   UNL     1       8.208   6.982  18.453  0.00  0.00    +0.000 C 
ATOM     22  C   UNL     1       6.477   5.316  18.863  0.00  0.00    +0.000 A 
ATOM     23  O   UNL     1       6.650   5.433  20.075  0.00  0.00    +0.000 OA
ENDBRANCH  13  14
ENDBRANCH   4  13
TORSDOF 3
ENDMDL
MODEL 9
REMARK VINA RESULT:      -7.7      4.569      6.639
REMARK  Name = 
REMARK  6 active torsions:
REMARK  status: ('A' for Active; 'I' for Inactive)
REMARK    1  A    between atoms: C_1  and  C_2
REMARK    2  A    between atoms: C_6  and  C_7
REMARK    3  A    between atoms: C_10  and  C_11
REMARK    4  A    between atoms: C_11  and  N_12
REMARK    5  A    between atoms: C_15  and  C_16
REMARK    6  A    between atoms: N_18  and  C_19
REMARK                            x       y       z     vdW  Elec       q    Type
REMARK                         _______ _______ _______ _____ _____    ______ ____
ROOT
ATOM      1  C   UNL     1       8.451   8.968  18.280  0.00  0.00    +0.000 A 
ATOM      2  N   UNL     1       7.545   8.877  17.291  0.00  0.00    +0.000 NA
ATOM      3  O   UNL     1       7.129   7.543  17.345  0.00  0.00    +0.000 OA
ATOM      4  C   UNL     1       7.822   6.961  18.364  0.00  0.00    +0.000 A 
ATOM      5  N   UNL     1       8.664   7.777  18.949  0.00  0.00    +0.000 NA
ENDROOT
BRANCH   1  11
ATOM      6  C   UNL     1       9.674  12.310  21.744  0.00  0.00    +0.000 C 
ATOM      7  C   UNL     1       9.744  11.820  20.331  0.00  0.00    +0.000 A 
ATOM      8  C   UNL     1      10.432  12.522  19.342  0.00  0.00    +0.000 A 
ATOM      9  C   UNL     1      10.452  12.008  18.054  0.00  0.00    +0.000 A 
ATOM     10  N   UNL     1       9.846  10.857  17.689  0.00  0.00    +0.000 NA
ATOM     11  C   UNL     1       9.171  10.184  18.656  0.00  0.00    +0.000 A 
ATOM     12  C   UNL     1       9.100  10.634  19.973  0.00  0.00    +0.000 A 
ENDBRANCH   1  11
BRANCH   4  13
ATOM     13  C   UNL     1       7.505   5.545  18.688  0.00  0.00    +0.000 C 
BRANCH  13  14
ATOM     14  N   UNL     1       6.427   5.067  17.836  0.00  0.00    +0.000 N 
ATOM     15  C   UNL     1       5.143   5.139  18.338  0.00  0.00    +0.000 A 
ATOM     16  O   UNL     1       4.883   5.547  19.469  0.00  0.00    +0.000 OA
ATOM     17  C   UNL     1       4.052   4.687  17.443  0.00  0.00    +0.000 A 
ATOM     18  C   UNL     1       2.642   4.728  17.937  0.00  0.00    +0.000 C 
ATOM     19  C   UNL     1       4.376   4.265  16.218  0.00  0.00    +0.000 A 
ATOM     20  N   UNL     1       5.675   4.214  15.775  0.00  0.00    +0.000 N 
ATOM     21  C   UNL     1       5.958   3.755  14.424  0.00  0.00    +0.000 C 
ATOM     22  C   UNL     1       6.756   4.593  16.570  0.00  0.00    +0.000 A 
ATOM     23  O   UNL     1       7.916   4.503  16.174  0.00  0.00    +0.000 OA
ENDBRANCH  13  14
ENDBRANCH   4  13
TORSDOF 3
ENDMDL
