MODEL 1
REMARK VINA RESULT:      -7.8      0.000      0.000
REMARK  Name = 
REMARK  7 active torsions:
REMARK  status: ('A' for Active; 'I' for Inactive)
REMARK    1  A    between atoms: C_1  and  O_2
REMARK    2  A    between atoms: O_2  and  C_3
REMARK    3  A    between atoms: C_6  and  C_7
REMARK    4  A    between atoms: C_11  and  N_12
REMARK    5  A    between atoms: N_12  and  C_13
REMARK    6  A    between atoms: C_24  and  O_25
REMARK    7  A    between atoms: O_25  and  C_26
REMARK                            x       y       z     vdW  Elec       q    Type
REMARK                         _______ _______ _______ _____ _____    ______ ____
ROOT
ATOM      1  C   UNL     1       1.775   7.452  20.052  0.00  0.00    +0.000 A 
ATOM      2  C   UNL     1       2.328   7.572  18.746  0.00  0.00    +0.000 A 
ATOM      3  N   UNL     1       2.953   6.623  17.972  0.00  0.00    +0.000 NA
ATOM      4  C   UNL     1       3.035   5.417  18.614  0.00  0.00    +0.000 A 
ATOM      5  C   UNL     1       3.631   4.298  18.053  0.00  0.00    +0.000 A 
ATOM      6  S   UNL     1       3.505   3.059  19.251  0.00  0.00    +0.000 S 
ATOM      7  N   UNL     1       2.687   3.924  20.384  0.00  0.00    +0.000 NA
ATOM      8  C   UNL     1       2.500   5.175  19.956  0.00  0.00    +0.000 A 
ATOM      9  C   UNL     1       1.851   6.196  20.682  0.00  0.00    +0.000 A 
ENDROOT
BRANCH   1  13
ATOM     10  C   UNL     1       0.039  10.856  22.091  0.00  0.00    +0.000 A 
ATOM     11  C   UNL     1       0.090   9.598  22.705  0.00  0.00    +0.000 A 
ATOM     12  C   UNL     1       0.652   8.493  22.054  0.00  0.00    +0.000 A 
ATOM     13  C   UNL     1       1.132   8.594  20.742  0.00  0.00    +0.000 A 
ATOM     14  C   UNL     1       0.992   9.843  20.113  0.00  0.00    +0.000 A 
ATOM     15  C   UNL     1       0.463  10.974  20.761  0.00  0.00    +0.000 A 
BRANCH  10  17
ATOM     16  C   UNL     1      -1.820  11.920  23.117  0.00  0.00    +0.000 C 
ATOM     17  O   UNL     1      -0.443  11.955  22.746  0.00  0.00    +0.000 OA
ENDBRANCH  10  17
BRANCH  15  18
ATOM     18  O   UNL     1       0.461  12.074  19.946  0.00  0.00    +0.000 OA
ATOM     19  C   UNL     1      -0.701  12.381  19.194  0.00  0.00    +0.000 C 
ENDBRANCH  15  18
ENDBRANCH   1  13
BRANCH   5  20
ATOM     20  N   UNL     1       4.225   4.166  16.816  0.00  0.00    +0.000 N 
ATOM     21  H   UNL     1       3.625   3.830  16.065  0.00  0.00    +0.000 HD
BRANCH  20  22
ATOM     22  C   UNL     1       5.653   3.846  16.686  0.00  0.00    +0.000 C 
ATOM     23  C   UNL     1       6.520   4.806  17.508  0.00  0.00    +0.000 C 
ATOM     24  C   UNL     1       7.009   6.028  16.743  0.00  0.00    +0.000 C 
ATOM     25  N   UNL     1       7.585   5.669  15.450  0.00  0.00    +0.000 NA
ATOM     26  C   UNL     1       6.569   5.039  14.611  0.00  0.00    +0.000 C 
ATOM     27  C   UNL     1       6.061   3.736  15.213  0.00  0.00    +0.000 C 
ATOM     28  H   UNL     1       8.370   5.032  15.581  0.00  0.00    +0.000 HD
ENDBRANCH  20  22
ENDBRANCH   5  20
TORSDOF 5
ENDMDL
MODEL 2
REMARK VINA RESULT:      -7.7      0.944      1.399
REMARK  Name = 
REMARK  7 active torsions:
REMARK  status: ('A' for Active; 'I' for Inactive)
REMARK    1  A    between atoms: C_1  and  O_2
REMARK    2  A    between atoms: O_2  and  C_3
REMARK    3  A    between atoms: C_6  and  C_7
REMARK    4  A    between atoms: C_11  and  N_12
REMARK    5  A    between atoms: N_12  and  C_13
REMARK    6  A    between atoms: C_24  and  O_25
REMARK    7  A    between atoms: O_25  and  C_26
REMARK                            x       y       z     vdW  Elec       q    Type
REMARK                         _______ _______ _______ _____ _____    ______ ____
ROOT
ATOM      1  C   UNL     1       1.314   7.998  20.387  0.00  0.00    +0.000 A 
ATOM      2  C   UNL     1       1.849   8.190  19.082  0.00  0.00    +0.000 A 
ATOM      3  N   UNL     1       2.536   7.309  18.283  0.00  0.00    +0.000 NA
ATOM      4  C   UNL     1       2.710   6.097  18.894  0.00  0.00    +0.000 A 
ATOM      5  C   UNL     1       3.384   5.038  18.303  0.00  0.00    +0.000 A 
ATOM      6  S   UNL     1       3.356   3.765  19.471  0.00  0.00    +0.000 S 
ATOM      7  N   UNL     1       2.483   4.539  20.628  0.00  0.00    +0.000 NA
ATOM      8  C   UNL     1       2.203   5.783  20.232  0.00  0.00    +0.000 A 
ATOM      9  C   UNL     1       1.486   6.736  20.986  0.00  0.00    +0.000 A 
ENDROOT
BRANCH   1  13
ATOM     10  C   UNL     1      -0.658  11.226  22.497  0.00  0.00    +0.000 A 
ATOM     11  C   UNL     1      -0.361  10.018  23.143  0.00  0.00    +0.000 A 
ATOM     12  C   UNL     1       0.279   8.972  22.469  0.00  0.00    +0.000 A 
ATOM     13  C   UNL     1       0.593   9.073  21.108  0.00  0.00    +0.000 A 
ATOM     14  C   UNL     1       0.208  10.257  20.457  0.00  0.00    +0.000 A 
ATOM     15  C   UNL     1      -0.404  11.335  21.124  0.00  0.00    +0.000 A 
BRANCH  10  17
ATOM     16  C   UNL     1      -2.643  12.297  23.242  0.00  0.00    +0.000 C 
ATOM     17  O   UNL     1      -1.219  12.278  23.166  0.00  0.00    +0.000 OA
ENDBRANCH  10  17
BRANCH  15  18
ATOM     18  O   UNL     1      -0.652  12.383  20.278  0.00  0.00    +0.000 OA
ATOM     19  C   UNL     1      -1.696  12.274  19.325  0.00  0.00    +0.000 C 
ENDBRANCH  15  18
ENDBRANCH   1  13
BRANCH   5  20
ATOM     20  N   UNL     1       3.978   4.980  17.061  0.00  0.00    +0.000 N 
ATOM     21  H   UNL     1       3.914   4.087  16.575  0.00  0.00    +0.000 HD
BRANCH  20  22
ATOM     22  C   UNL     1       5.153   5.802  16.738  0.00  0.00    +0.000 C 
ATOM     23  C   UNL     1       5.619   5.573  15.297  0.00  0.00    +0.000 C 
ATOM     24  C   UNL     1       6.679   4.492  15.138  0.00  0.00    +0.000 C 
ATOM     25  N   UNL     1       7.770   4.652  16.096  0.00  0.00    +0.000 NA
ATOM     26  C   UNL     1       7.258   4.529  17.458  0.00  0.00    +0.000 C 
ATOM     27  C   UNL     1       6.254   5.624  17.790  0.00  0.00    +0.000 C 
ATOM     28  H   UNL     1       8.213   5.561  15.973  0.00  0.00    +0.000 HD
ENDBRANCH  20  22
ENDBRANCH   5  20
TORSDOF 5
ENDMDL
MODEL 3
REMARK VINA RESULT:      -7.6      0.911      1.015
REMARK  Name = 
REMARK  7 active torsions:
REMARK  status: ('A' for Active; 'I' for Inactive)
REMARK    1  A    between atoms: C_1  and  O_2
REMARK    2  A    between atoms: O_2  and  C_3
REMARK    3  A    between atoms: C_6  and  C_7
REMARK    4  A    between atoms: C_11  and  N_12
REMARK    5  A    between atoms: N_12  and  C_13
REMARK    6  A    between atoms: C_24  and  O_25
REMARK    7  A    between atoms: O_25  and  C_26
REMARK                            x       y       z     vdW  Elec       q    Type
REMARK                         _______ _______ _______ _____ _____    ______ ____
ROOT
ATOM      1  C   UNL     1       1.194   8.270  20.491  0.00  0.00    +0.000 A 
ATOM      2  C   UNL     1       1.815   8.465  19.225  0.00  0.00    +0.000 A 
ATOM      3  N   UNL     1       2.520   7.573  18.453  0.00  0.00    +0.000 NA
ATOM      4  C   UNL     1       2.614   6.346  19.050  0.00  0.00    +0.000 A 
ATOM      5  C   UNL     1       3.286   5.274  18.482  0.00  0.00    +0.000 A 
ATOM      6  S   UNL     1       3.141   3.983  19.621  0.00  0.00    +0.000 S 
ATOM      7  N   UNL     1       2.226   4.768  20.737  0.00  0.00    +0.000 NA
ATOM      8  C   UNL     1       2.013   6.028  20.348  0.00  0.00    +0.000 A 
ATOM      9  C   UNL     1       1.284   6.994  21.075  0.00  0.00    +0.000 A 
ENDROOT
BRANCH   1  13
ATOM     10  C   UNL     1      -0.789  11.515  22.564  0.00  0.00    +0.000 A 
ATOM     11  C   UNL     1      -0.778  10.219  23.097  0.00  0.00    +0.000 A 
ATOM     12  C   UNL     1      -0.137   9.166  22.435  0.00  0.00    +0.000 A 
ATOM     13  C   UNL     1       0.467   9.358  21.186  0.00  0.00    +0.000 A 
ATOM     14  C   UNL     1       0.369  10.644  20.628  0.00  0.00    +0.000 A 
ATOM     15  C   UNL     1      -0.240  11.724  21.292  0.00  0.00    +0.000 A 
BRANCH  10  17
ATOM     16  C   UNL     1      -2.769  12.695  23.140  0.00  0.00    +0.000 C 
ATOM     17  O   UNL     1      -1.352  12.563  23.237  0.00  0.00    +0.000 OA
ENDBRANCH  10  17
BRANCH  15  18
ATOM     18  O   UNL     1      -0.180  12.876  20.554  0.00  0.00    +0.000 OA
ATOM     19  C   UNL     1      -1.027  13.023  19.426  0.00  0.00    +0.000 C 
ENDBRANCH  15  18
ENDBRANCH   1  13
BRANCH   5  20
ATOM     20  N   UNL     1       3.954   5.215  17.278  0.00  0.00    +0.000 N 
ATOM     21  H   UNL     1       3.375   5.264  16.442  0.00  0.00    +0.000 HD
BRANCH  20  22
ATOM     22  C   UNL     1       5.215   4.473  17.141  0.00  0.00    +0.000 C 
ATOM     23  C   UNL     1       6.381   5.224  17.793  0.00  0.00    +0.000 C 
ATOM     24  C   UNL     1       7.144   6.147  16.854  0.00  0.00    +0.000 C 
ATOM     25  N   UNL     1       7.494   5.482  15.601  0.00  0.00    +0.000 NA
ATOM     26  C   UNL     1       6.280   5.088  14.892  0.00  0.00    +0.000 C 
ATOM     27  C   UNL     1       5.463   4.074  15.682  0.00  0.00    +0.000 C 
ATOM     28  H   UNL     1       8.069   4.662  15.788  0.00  0.00    +0.000 HD
ENDBRANCH  20  22
ENDBRANCH   5  20
TORSDOF 5
ENDMDL
MODEL 4
REMARK VINA RESULT:      -7.4      4.144      8.592
REMARK  Name = 
REMARK  7 active torsions:
REMARK  status: ('A' for Active; 'I' for Inactive)
REMARK    1  A    between atoms: C_1  and  O_2
REMARK    2  A    between atoms: O_2  and  C_3
REMARK    3  A    between atoms: C_6  and  C_7
REMARK    4  A    between atoms: C_11  and  N_12
REMARK    5  A    between atoms: N_12  and  C_13
REMARK    6  A    between atoms: C_24  and  O_25
REMARK    7  A    between atoms: O_25  and  C_26
REMARK                            x       y       z     vdW  Elec       q    Type
REMARK                         _______ _______ _______ _____ _____    ______ ____
ROOT
ATOM      1  C   UNL     1       2.734   7.365  18.507  0.00  0.00    +0.000 A 
ATOM      2  C   UNL     1       2.260   8.525  17.835  0.00  0.00    +0.000 A 
ATOM      3  N   UNL     1       1.425   9.518  18.290  0.00  0.00    +0.000 NA
ATOM      4  C   UNL     1       1.015   9.288  19.575  0.00  0.00    +0.000 A 
ATOM      5  C   UNL     1       0.157  10.134  20.261  0.00  0.00    +0.000 A 
ATOM      6  S   UNL     1      -0.072   9.402  21.809  0.00  0.00    +0.000 S 
ATOM      7  N   UNL     1       0.921   8.109  21.597  0.00  0.00    +0.000 NA
ATOM      8  C   UNL     1       1.439   8.130  20.366  0.00  0.00    +0.000 A 
ATOM      9  C   UNL     1       2.317   7.161  19.836  0.00  0.00    +0.000 A 
ENDROOT
BRANCH   1  13
ATOM     10  C   UNL     1       5.356   4.593  16.456  0.00  0.00    +0.000 A 
ATOM     11  C   UNL     1       4.102   4.183  16.928  0.00  0.00    +0.000 A 
ATOM     12  C   UNL     1       3.248   5.074  17.589  0.00  0.00    +0.000 A 
ATOM     13  C   UNL     1       3.640   6.391  17.854  0.00  0.00    +0.000 A 
ATOM     14  C   UNL     1       4.936   6.757  17.451  0.00  0.00    +0.000 A 
ATOM     15  C   UNL     1       5.797   5.889  16.754  0.00  0.00    +0.000 A 
BRANCH  10  17
ATOM     16  C   UNL     1       6.190   3.929  14.334  0.00  0.00    +0.000 C 
ATOM     17  O   UNL     1       6.167   3.750  15.748  0.00  0.00    +0.000 OA
ENDBRANCH  10  17
BRANCH  15  18
ATOM     18  O   UNL     1       6.988   6.490  16.448  0.00  0.00    +0.000 OA
ATOM     19  C   UNL     1       7.567   7.397  17.371  0.00  0.00    +0.000 C 
ENDBRANCH  15  18
ENDBRANCH   1  13
BRANCH   5  20
ATOM     20  N   UNL     1      -0.424  11.308  19.830  0.00  0.00    +0.000 N 
ATOM     21  H   UNL     1      -0.667  11.351  18.843  0.00  0.00    +0.000 HD
BRANCH  20  22
ATOM     22  C   UNL     1      -0.109  12.593  20.469  0.00  0.00    +0.000 C 
ATOM     23  C   UNL     1      -0.845  13.753  19.789  0.00  0.00    +0.000 C 
ATOM     24  C   UNL     1      -0.062  14.431  18.673  0.00  0.00    +0.000 C 
ATOM     25  N   UNL     1       1.302  14.754  19.082  0.00  0.00    +0.000 NA
ATOM     26  C   UNL     1       2.027  13.528  19.405  0.00  0.00    +0.000 C 
ATOM     27  C   UNL     1       1.406  12.794  20.585  0.00  0.00    +0.000 C 
ATOM     28  H   UNL     1       1.289  15.373  19.891  0.00  0.00    +0.000 HD
ENDBRANCH  20  22
ENDBRANCH   5  20
TORSDOF 5
ENDMDL
MODEL 5
REMARK VINA RESULT:      -7.4      4.216      8.651
REMARK  Name = 
REMARK  7 active torsions:
REMARK  status: ('A' for Active; 'I' for Inactive)
REMARK    1  A    between atoms: C_1  and  O_2
REMARK    2  A    between atoms: O_2  and  C_3
REMARK    3  A    between atoms: C_6  and  C_7
REMARK    4  A    between atoms: C_11  and  N_12
REMARK    5  A    between atoms: N_12  and  C_13
REMARK    6  A    between atoms: C_24  and  O_25
REMARK    7  A    between atoms: O_25  and  C_26
REMARK                            x       y       z     vdW  Elec       q    Type
REMARK                         _______ _______ _______ _____ _____    ______ ____
ROOT
ATOM      1  C   UNL     1       2.829   7.241  18.428  0.00  0.00    +0.000 A 
ATOM      2  C   UNL     1       2.564   8.574  18.007  0.00  0.00    +0.000 A 
ATOM      3  N   UNL     1       1.869   9.570  18.649  0.00  0.00    +0.000 NA
ATOM      4  C   UNL     1       1.375   9.150  19.854  0.00  0.00    +0.000 A 
ATOM      5  C   UNL     1       0.625   9.962  20.693  0.00  0.00    +0.000 A 
ATOM      6  S   UNL     1       0.223   8.974  22.052  0.00  0.00    +0.000 S 
ATOM      7  N   UNL     1       1.018   7.613  21.585  0.00  0.00    +0.000 NA
ATOM      8  C   UNL     1       1.585   7.803  20.392  0.00  0.00    +0.000 A 
ATOM      9  C   UNL     1       2.330   6.838  19.681  0.00  0.00    +0.000 A 
ENDROOT
BRANCH   1  13
ATOM     10  C   UNL     1       5.196   4.439  16.124  0.00  0.00    +0.000 A 
ATOM     11  C   UNL     1       5.278   5.818  15.886  0.00  0.00    +0.000 A 
ATOM     12  C   UNL     1       4.518   6.729  16.628  0.00  0.00    +0.000 A 
ATOM     13  C   UNL     1       3.606   6.292  17.596  0.00  0.00    +0.000 A 
ATOM     14  C   UNL     1       3.475   4.902  17.759  0.00  0.00    +0.000 A 
ATOM     15  C   UNL     1       4.254   3.970  17.048  0.00  0.00    +0.000 A 
BRANCH  10  17
ATOM     16  C   UNL     1       6.269   3.851  14.088  0.00  0.00    +0.000 C 
ATOM     17  O   UNL     1       5.985   3.547  15.452  0.00  0.00    +0.000 OA
ENDBRANCH  10  17
BRANCH  15  18
ATOM     18  O   UNL     1       3.960   2.682  17.406  0.00  0.00    +0.000 OA
ATOM     19  C   UNL     1       2.617   2.330  17.697  0.00  0.00    +0.000 C 
ENDBRANCH  15  18
ENDBRANCH   1  13
BRANCH   5  20
ATOM     20  N   UNL     1       0.246  11.274  20.509  0.00  0.00    +0.000 N 
ATOM     21  H   UNL     1       0.686  11.957  21.123  0.00  0.00    +0.000 HD
BRANCH  20  22
ATOM     22  C   UNL     1      -1.098  11.619  20.026  0.00  0.00    +0.000 C 
ATOM     23  C   UNL     1      -1.646  10.545  19.080  0.00  0.00    +0.000 C 
ATOM     24  C   UNL     1      -1.355  10.792  17.606  0.00  0.00    +0.000 C 
ATOM     25  N   UNL     1      -1.684  12.158  17.206  0.00  0.00    +0.000 NA
ATOM     26  C   UNL     1      -0.859  13.106  17.952  0.00  0.00    +0.000 C 
ATOM     27  C   UNL     1      -1.128  13.039  19.449  0.00  0.00    +0.000 C 
ATOM     28  H   UNL     1      -2.671  12.346  17.379  0.00  0.00    +0.000 HD
ENDBRANCH  20  22
ENDBRANCH   5  20
TORSDOF 5
ENDMDL
MODEL 6
REMARK VINA RESULT:      -7.4      2.104      3.869
REMARK  Name = 
REMARK  7 active torsions:
REMARK  status: ('A' for Active; 'I' for Inactive)
REMARK    1  A    between atoms: C_1  and  O_2
REMARK    2  A    between atoms: O_2  and  C_3
REMARK    3  A    between atoms: C_6  and  C_7
REMARK    4  A    between atoms: C_11  and  N_12
REMARK    5  A    between atoms: N_12  and  C_13
REMARK    6  A    between atoms: C_24  and  O_25
REMARK    7  A    between atoms: O_25  and  C_26
REMARK                            x       y       z     vdW  Elec       q    Type
REMARK                         _______ _______ _______ _____ _____    ______ ____
ROOT
ATOM      1  C   UNL     1       2.186   7.909  19.035  0.00  0.00    +0.000 A 
ATOM      2  C   UNL     1       2.338   6.878  20.004  0.00  0.00    +0.000 A 
ATOM      3  N   UNL     1       3.137   5.760  19.971  0.00  0.00    +0.000 NA
ATOM      4  C   UNL     1       3.850   5.679  18.806  0.00  0.00    +0.000 A 
ATOM      5  C   UNL     1       4.721   4.638  18.520  0.00  0.00    +0.000 A 
ATOM      6  S   UNL     1       5.343   4.978  16.944  0.00  0.00    +0.000 S 
ATOM      7  N   UNL     1       4.562   6.403  16.695  0.00  0.00    +0.000 NA
ATOM      8  C   UNL     1       3.777   6.681  17.740  0.00  0.00    +0.000 A 
ATOM      9  C   UNL     1       2.947   7.816  17.855  0.00  0.00    +0.000 A 
ENDROOT
BRANCH   1  13
ATOM     10  C   UNL     1      -0.603  11.155  19.704  0.00  0.00    +0.000 A 
ATOM     11  C   UNL     1      -0.361  10.667  18.412  0.00  0.00    +0.000 A 
ATOM     12  C   UNL     1       0.536   9.617  18.188  0.00  0.00    +0.000 A 
ATOM     13  C   UNL     1       1.269   9.054  19.241  0.00  0.00    +0.000 A 
ATOM     14  C   UNL     1       1.077   9.616  20.515  0.00  0.00    +0.000 A 
ATOM     15  C   UNL     1       0.155  10.648  20.767  0.00  0.00    +0.000 A 
BRANCH  10  17
ATOM     16  C   UNL     1      -1.089  13.479  19.776  0.00  0.00    +0.000 C 
ATOM     17  O   UNL     1      -1.529  12.133  19.939  0.00  0.00    +0.000 OA
ENDBRANCH  10  17
BRANCH  15  18
ATOM     18  O   UNL     1       0.133  11.000  22.090  0.00  0.00    +0.000 OA
ATOM     19  C   UNL     1      -0.797  10.376  22.960  0.00  0.00    +0.000 C 
ENDBRANCH  15  18
ENDBRANCH   1  13
BRANCH   5  20
ATOM     20  N   UNL     1       5.037   3.541  19.292  0.00  0.00    +0.000 N 
ATOM     21  H   UNL     1       6.024   3.413  19.506  0.00  0.00    +0.000 HD
BRANCH  20  22
ATOM     22  C   UNL     1       4.228   2.315  19.241  0.00  0.00    +0.000 C 
ATOM     23  C   UNL     1       3.486   2.187  17.905  0.00  0.00    +0.000 C 
ATOM     24  C   UNL     1       2.085   2.781  17.900  0.00  0.00    +0.000 C 
ATOM     25  N   UNL     1       1.304   2.347  19.055  0.00  0.00    +0.000 NA
ATOM     26  C   UNL     1       1.940   2.807  20.287  0.00  0.00    +0.000 C 
ATOM     27  C   UNL     1       3.324   2.201  20.473  0.00  0.00    +0.000 C 
ATOM     28  H   UNL     1       1.226   1.330  19.064  0.00  0.00    +0.000 HD
ENDBRANCH  20  22
ENDBRANCH   5  20
TORSDOF 5
ENDMDL
MODEL 7
REMARK VINA RESULT:      -7.4      4.269      8.692
REMARK  Name = 
REMARK  7 active torsions:
REMARK  status: ('A' for Active; 'I' for Inactive)
REMARK    1  A    between atoms: C_1  and  O_2
REMARK    2  A    between atoms: O_2  and  C_3
REMARK    3  A    between atoms: C_6  and  C_7
REMARK    4  A    between atoms: C_11  and  N_12
REMARK    5  A    between atoms: N_12  and  C_13
REMARK    6  A    between atoms: C_24  and  O_25
REMARK    7  A    between atoms: O_25  and  C_26
REMARK                            x       y       z     vdW  Elec       q    Type
REMARK                         _______ _______ _______ _____ _____    ______ ____
ROOT
ATOM      1  C   UNL     1       2.588   7.494  18.397  0.00  0.00    +0.000 A 
ATOM      2  C   UNL     1       2.070   8.667  17.780  0.00  0.00    +0.000 A 
ATOM      3  N   UNL     1       1.299   9.668  18.320  0.00  0.00    +0.000 NA
ATOM      4  C   UNL     1       1.012   9.435  19.638  0.00  0.00    +0.000 A 
ATOM      5  C   UNL     1       0.239  10.290  20.410  0.00  0.00    +0.000 A 
ATOM      6  S   UNL     1       0.150   9.549  21.968  0.00  0.00    +0.000 S 
ATOM      7  N   UNL     1       1.096   8.243  21.652  0.00  0.00    +0.000 NA
ATOM      8  C   UNL     1       1.492   8.265  20.377  0.00  0.00    +0.000 A 
ATOM      9  C   UNL     1       2.299   7.287  19.758  0.00  0.00    +0.000 A 
ENDROOT
BRANCH   1  13
ATOM     10  C   UNL     1       5.072   4.589  16.358  0.00  0.00    +0.000 A 
ATOM     11  C   UNL     1       5.247   5.963  16.145  0.00  0.00    +0.000 A 
ATOM     12  C   UNL     1       4.450   6.908  16.802  0.00  0.00    +0.000 A 
ATOM     13  C   UNL     1       3.411   6.512  17.652  0.00  0.00    +0.000 A 
ATOM     14  C   UNL     1       3.195   5.129  17.785  0.00  0.00    +0.000 A 
ATOM     15  C   UNL     1       4.006   4.163  17.161  0.00  0.00    +0.000 A 
BRANCH  10  17
ATOM     16  C   UNL     1       6.354   3.962  14.459  0.00  0.00    +0.000 C 
ATOM     17  O   UNL     1       5.891   3.663  15.775  0.00  0.00    +0.000 OA
ENDBRANCH  10  17
BRANCH  15  18
ATOM     18  O   UNL     1       3.611   2.889  17.470  0.00  0.00    +0.000 OA
ATOM     19  C   UNL     1       2.263   2.650  17.838  0.00  0.00    +0.000 C 
ENDBRANCH  15  18
ENDBRANCH   1  13
BRANCH   5  20
ATOM     20  N   UNL     1      -0.362  11.475  20.044  0.00  0.00    +0.000 N 
ATOM     21  H   UNL     1      -0.759  11.506  19.107  0.00  0.00    +0.000 HD
BRANCH  20  22
ATOM     22  C   UNL     1       0.095  12.761  20.589  0.00  0.00    +0.000 C 
ATOM     23  C   UNL     1      -0.693  13.934  19.996  0.00  0.00    +0.000 C 
ATOM     24  C   UNL     1      -0.068  14.553  18.754  0.00  0.00    +0.000 C 
ATOM     25  N   UNL     1       1.355  14.829  18.939  0.00  0.00    +0.000 NA
ATOM     26  C   UNL     1       2.075  13.582  19.183  0.00  0.00    +0.000 C 
ATOM     27  C   UNL     1       1.616  12.901  20.466  0.00  0.00    +0.000 C 
ATOM     28  H   UNL     1       1.489  15.466  19.723  0.00  0.00    +0.000 HD
ENDBRANCH  20  22
ENDBRANCH   5  20
TORSDOF 5
ENDMDL
MODEL 8
REMARK VINA RESULT:      -7.3      0.987      1.921
REMARK  Name = 
REMARK  7 active torsions:
REMARK  status: ('A' for Active; 'I' for Inactive)
REMARK    1  A    between atoms: C_1  and  O_2
REMARK    2  A    between atoms: O_2  and  C_3
REMARK    3  A    between atoms: C_6  and  C_7
REMARK    4  A    between atoms: C_11  and  N_12
REMARK    5  A    between atoms: N_12  and  C_13
REMARK    6  A    between atoms: C_24  and  O_25
REMARK    7  A    between atoms: O_25  and  C_26
REMARK                            x       y       z     vdW  Elec       q    Type
REMARK                         _______ _______ _______ _____ _____    ______ ____
ROOT
ATOM      1  C   UNL     1       1.867   8.291  19.275  0.00  0.00    +0.000 A 
ATOM      2  C   UNL     1       2.416   8.080  17.980  0.00  0.00    +0.000 A 
ATOM      3  N   UNL     1       3.004   6.955  17.454  0.00  0.00    +0.000 NA
ATOM      4  C   UNL     1       3.048   5.932  18.362  0.00  0.00    +0.000 A 
ATOM      5  C   UNL     1       3.603   4.692  18.083  0.00  0.00    +0.000 A 
ATOM      6  S   UNL     1       3.441   3.777  19.540  0.00  0.00    +0.000 S 
ATOM      7  N   UNL     1       2.659   4.912  20.434  0.00  0.00    +0.000 NA
ATOM      8  C   UNL     1       2.513   6.032  19.722  0.00  0.00    +0.000 A 
ATOM      9  C   UNL     1       1.904   7.218  20.185  0.00  0.00    +0.000 A 
ENDROOT
BRANCH   1  13
ATOM     10  C   UNL     1      -0.034  12.003  20.444  0.00  0.00    +0.000 A 
ATOM     11  C   UNL     1       0.457  11.823  19.144  0.00  0.00    +0.000 A 
ATOM     12  C   UNL     1       1.070  10.626  18.758  0.00  0.00    +0.000 A 
ATOM     13  C   UNL     1       1.266   9.585  19.674  0.00  0.00    +0.000 A 
ATOM     14  C   UNL     1       0.846   9.819  20.995  0.00  0.00    +0.000 A 
ATOM     15  C   UNL     1       0.197  11.001  21.395  0.00  0.00    +0.000 A 
BRANCH  10  17
ATOM     16  C   UNL     1      -2.064  13.236  20.419  0.00  0.00    +0.000 C 
ATOM     17  O   UNL     1      -0.696  13.142  20.810  0.00  0.00    +0.000 OA
ENDBRANCH  10  17
BRANCH  15  18
ATOM     18  O   UNL     1      -0.139  10.974  22.723  0.00  0.00    +0.000 OA
ATOM     19  C   UNL     1      -0.277   9.725  23.379  0.00  0.00    +0.000 C 
ENDBRANCH  15  18
ENDBRANCH   1  13
BRANCH   5  20
ATOM     20  N   UNL     1       4.185   4.251  16.914  0.00  0.00    +0.000 N 
ATOM     21  H   UNL     1       3.584   3.721  16.286  0.00  0.00    +0.000 HD
BRANCH  20  22
ATOM     22  C   UNL     1       5.618   3.931  16.849  0.00  0.00    +0.000 C 
ATOM     23  C   UNL     1       6.457   4.955  17.622  0.00  0.00    +0.000 C 
ATOM     24  C   UNL     1       6.963   6.120  16.785  0.00  0.00    +0.000 C 
ATOM     25  N   UNL     1       7.578   5.670  15.538  0.00  0.00    +0.000 NA
ATOM     26  C   UNL     1       6.589   4.975  14.719  0.00  0.00    +0.000 C 
ATOM     27  C   UNL     1       6.069   3.716  15.400  0.00  0.00    +0.000 C 
ATOM     28  H   UNL     1       8.361   5.050  15.738  0.00  0.00    +0.000 HD
ENDBRANCH  20  22
ENDBRANCH   5  20
TORSDOF 5
ENDMDL
MODEL 9
REMARK VINA RESULT:      -7.3      4.258      8.809
REMARK  Name = 
REMARK  7 active torsions:
REMARK  status: ('A' for Active; 'I' for Inactive)
REMARK    1  A    between atoms: C_1  and  O_2
REMARK    2  A    between atoms: O_2  and  C_3
REMARK    3  A    between atoms: C_6  and  C_7
REMARK    4  A    between atoms: C_11  and  N_12
REMARK    5  A    between atoms: N_12  and  C_13
REMARK    6  A    between atoms: C_24  and  O_25
REMARK    7  A    between atoms: O_25  and  C_26
REMARK                            x       y       z     vdW  Elec       q    Type
REMARK                         _______ _______ _______ _____ _____    ______ ____
ROOT
ATOM      1  C   UNL     1       2.760   7.493  18.406  0.00  0.00    +0.000 A 
ATOM      2  C   UNL     1       2.322   8.649  17.701  0.00  0.00    +0.000 A 
ATOM      3  N   UNL     1       1.493   9.662  18.118  0.00  0.00    +0.000 NA
ATOM      4  C   UNL     1       1.049   9.463  19.397  0.00  0.00    +0.000 A 
ATOM      5  C   UNL     1       0.190  10.336  20.047  0.00  0.00    +0.000 A 
ATOM      6  S   UNL     1      -0.088   9.637  21.602  0.00  0.00    +0.000 S 
ATOM      7  N   UNL     1       0.887   8.324  21.437  0.00  0.00    +0.000 NA
ATOM      8  C   UNL     1       1.435   8.314  20.219  0.00  0.00    +0.000 A 
ATOM      9  C   UNL     1       2.309   7.321  19.727  0.00  0.00    +0.000 A 
ENDROOT
BRANCH   1  13
ATOM     10  C   UNL     1       5.386   4.644  16.470  0.00  0.00    +0.000 A 
ATOM     11  C   UNL     1       4.104   4.269  16.894  0.00  0.00    +0.000 A 
ATOM     12  C   UNL     1       3.249   5.185  17.518  0.00  0.00    +0.000 A 
ATOM     13  C   UNL     1       3.666   6.493  17.792  0.00  0.00    +0.000 A 
ATOM     14  C   UNL     1       4.985   6.823  17.438  0.00  0.00    +0.000 A 
ATOM     15  C   UNL     1       5.849   5.929  16.779  0.00  0.00    +0.000 A 
BRANCH  10  17
ATOM     16  C   UNL     1       6.205   3.879  14.375  0.00  0.00    +0.000 C 
ATOM     17  O   UNL     1       6.201   3.776  15.797  0.00  0.00    +0.000 OA
ENDBRANCH  10  17
BRANCH  15  18
ATOM     18  O   UNL     1       7.067   6.497  16.516  0.00  0.00    +0.000 OA
ATOM     19  C   UNL     1       7.572   7.493  17.390  0.00  0.00    +0.000 C 
ENDBRANCH  15  18
ENDBRANCH   1  13
BRANCH   5  20
ATOM     20  N   UNL     1      -0.361  11.511  19.581  0.00  0.00    +0.000 N 
ATOM     21  H   UNL     1      -1.159  11.414  18.956  0.00  0.00    +0.000 HD
BRANCH  20  22
ATOM     22  C   UNL     1       0.459  12.714  19.390  0.00  0.00    +0.000 C 
ATOM     23  C   UNL     1       1.281  13.039  20.642  0.00  0.00    +0.000 C 
ATOM     24  C   UNL     1       0.602  13.993  21.614  0.00  0.00    +0.000 C 
ATOM     25  N   UNL     1       0.065  15.171  20.937  0.00  0.00    +0.000 NA
ATOM     26  C   UNL     1      -0.958  14.767  19.976  0.00  0.00    +0.000 C 
ATOM     27  C   UNL     1      -0.389  13.883  18.876  0.00  0.00    +0.000 C 
ATOM     28  H   UNL     1       0.812  15.671  20.458  0.00  0.00    +0.000 HD
ENDBRANCH  20  22
ENDBRANCH   5  20
TORSDOF 5
ENDMDL
