MODEL 1
REMARK VINA RESULT:      -8.8      0.000      0.000
REMARK  Name = 
REMARK  4 active torsions:
REMARK  status: ('A' for Active; 'I' for Inactive)
REMARK    1  A    between atoms: C_1  and  C_2
REMARK    2  A    between atoms: N_8  and  C_9
REMARK    3  A    between atoms: C_9  and  C_10
REMARK    4  A    between atoms: C_17  and  C_18
REMARK                            x       y       z     vdW  Elec       q    Type
REMARK                         _______ _______ _______ _____ _____    ______ ____
ROOT
ATOM      1  C   UNL     1       5.054   2.764  11.499  0.00  0.00    +0.000 C 
ATOM      2  C   UNL     1       5.729   3.593  12.555  0.00  0.00    +0.000 A 
ATOM      3  C   UNL     1       6.909   4.283  12.260  0.00  0.00    +0.000 A 
ATOM      4  C   UNL     1       7.570   4.975  13.266  0.00  0.00    +0.000 A 
ATOM      5  C   UNL     1       7.067   4.972  14.570  0.00  0.00    +0.000 A 
ATOM      6  C   UNL     1       5.872   4.300  14.897  0.00  0.00    +0.000 A 
ATOM      7  C   UNL     1       5.207   3.630  13.862  0.00  0.00    +0.000 A 
ATOM      8  N   UNL     1       5.470   4.221  16.263  0.00  0.00    +0.000 N 
ATOM      9  C   UNL     1       6.337   4.713  17.236  0.00  0.00    +0.000 C 
ATOM     10  O   UNL     1       6.307   4.368  18.416  0.00  0.00    +0.000 OA
ATOM     11  C   UNL     1       7.235   5.828  16.728  0.00  0.00    +0.000 C 
ATOM     12  O   UNL     1       7.861   5.624  15.478  0.00  0.00    +0.000 OA
ENDROOT
BRANCH   8  13
ATOM     13  C   UNL     1       4.223   3.619  16.744  0.00  0.00    +0.000 C 
BRANCH  13  14
ATOM     14  C   UNL     1       3.548   4.560  17.780  0.00  0.00    +0.000 C 
ATOM     15  O   UNL     1       3.400   5.763  17.532  0.00  0.00    +0.000 OA
ATOM     16  N   UNL     1       3.084   4.019  18.982  0.00  0.00    +0.000 N 
ATOM     17  C   UNL     1       2.384   4.912  19.914  0.00  0.00    +0.000 C 
ATOM     18  C   UNL     1       0.985   4.385  20.217  0.00  0.00    +0.000 C 
ATOM     19  C   UNL     1       1.032   2.947  20.727  0.00  0.00    +0.000 C 
ATOM     20  C   UNL     1       1.815   2.051  19.764  0.00  0.00    +0.000 C 
ATOM     21  C   UNL     1       3.207   2.615  19.418  0.00  0.00    +0.000 C 
ATOM     22  C   UNL     1       4.173   2.466  20.601  0.00  0.00    +0.000 C 
ENDBRANCH  13  14
ENDBRANCH   8  13
TORSDOF 2
ENDMDL
MODEL 2
REMARK VINA RESULT:      -7.5      1.144      1.853
REMARK  Name = 
REMARK  4 active torsions:
REMARK  status: ('A' for Active; 'I' for Inactive)
REMARK    1  A    between atoms: C_1  and  C_2
REMARK    2  A    between atoms: N_8  and  C_9
REMARK    3  A    between atoms: C_9  and  C_10
REMARK    4  A    between atoms: C_17  and  C_18
REMARK                            x       y       z     vdW  Elec       q    Type
REMARK                         _______ _______ _______ _____ _____    ______ ____
ROOT
ATOM      1  C   UNL     1       5.448   2.805  11.994  0.00  0.00    +0.000 C 
ATOM      2  C   UNL     1       5.943   3.764  13.040  0.00  0.00    +0.000 A 
ATOM      3  C   UNL     1       7.187   4.383  12.894  0.00  0.00    +0.000 A 
ATOM      4  C   UNL     1       7.673   5.200  13.907  0.00  0.00    +0.000 A 
ATOM      5  C   UNL     1       6.928   5.391  15.074  0.00  0.00    +0.000 A 
ATOM      6  C   UNL     1       5.662   4.794  15.247  0.00  0.00    +0.000 A 
ATOM      7  C   UNL     1       5.180   3.995  14.202  0.00  0.00    +0.000 A 
ATOM      8  N   UNL     1       5.001   4.917  16.504  0.00  0.00    +0.000 N 
ATOM      9  C   UNL     1       5.685   5.526  17.553  0.00  0.00    +0.000 C 
ATOM     10  O   UNL     1       5.412   5.353  18.740  0.00  0.00    +0.000 OA
ATOM     11  C   UNL     1       6.713   6.542  17.086  0.00  0.00    +0.000 C 
ATOM     12  O   UNL     1       7.560   6.151  16.024  0.00  0.00    +0.000 OA
ENDROOT
BRANCH   8  13
ATOM     13  C   UNL     1       3.658   4.411  16.806  0.00  0.00    +0.000 C 
BRANCH  13  14
ATOM     14  C   UNL     1       3.759   3.173  17.739  0.00  0.00    +0.000 C 
ATOM     15  O   UNL     1       4.622   2.309  17.544  0.00  0.00    +0.000 OA
ATOM     16  N   UNL     1       2.878   3.068  18.819  0.00  0.00    +0.000 N 
ATOM     17  C   UNL     1       3.039   1.927  19.730  0.00  0.00    +0.000 C 
ATOM     18  C   UNL     1       3.261   2.408  21.161  0.00  0.00    +0.000 C 
ATOM     19  C   UNL     1       2.144   3.348  21.610  0.00  0.00    +0.000 C 
ATOM     20  C   UNL     1       1.962   4.495  20.613  0.00  0.00    +0.000 C 
ATOM     21  C   UNL     1       1.793   4.007  19.161  0.00  0.00    +0.000 C 
ATOM     22  C   UNL     1       0.407   3.384  18.946  0.00  0.00    +0.000 C 
ENDBRANCH  13  14
ENDBRANCH   8  13
TORSDOF 2
ENDMDL
MODEL 3
REMARK VINA RESULT:      -7.3      1.158      1.312
REMARK  Name = 
REMARK  4 active torsions:
REMARK  status: ('A' for Active; 'I' for Inactive)
REMARK    1  A    between atoms: C_1  and  C_2
REMARK    2  A    between atoms: N_8  and  C_9
REMARK    3  A    between atoms: C_9  and  C_10
REMARK    4  A    between atoms: C_17  and  C_18
REMARK                            x       y       z     vdW  Elec       q    Type
REMARK                         _______ _______ _______ _____ _____    ______ ____
ROOT
ATOM      1  C   UNL     1       5.967   2.556  11.971  0.00  0.00    +0.000 C 
ATOM      2  C   UNL     1       6.268   3.558  13.050  0.00  0.00    +0.000 A 
ATOM      3  C   UNL     1       7.076   4.665  12.776  0.00  0.00    +0.000 A 
ATOM      4  C   UNL     1       7.418   5.538  13.801  0.00  0.00    +0.000 A 
ATOM      5  C   UNL     1       6.969   5.303  15.104  0.00  0.00    +0.000 A 
ATOM      6  C   UNL     1       6.140   4.205  15.411  0.00  0.00    +0.000 A 
ATOM      7  C   UNL     1       5.785   3.352  14.357  0.00  0.00    +0.000 A 
ATOM      8  N   UNL     1       5.813   3.939  16.773  0.00  0.00    +0.000 N 
ATOM      9  C   UNL     1       6.423   4.709  17.760  0.00  0.00    +0.000 C 
ATOM     10  O   UNL     1       6.543   4.351  18.931  0.00  0.00    +0.000 OA
ATOM     11  C   UNL     1       6.802   6.101  17.283  0.00  0.00    +0.000 C 
ATOM     12  O   UNL     1       7.448   6.193  16.030  0.00  0.00    +0.000 OA
ENDROOT
BRANCH   8  13
ATOM     13  C   UNL     1       4.911   2.881  17.235  0.00  0.00    +0.000 C 
BRANCH  13  14
ATOM     14  C   UNL     1       3.438   3.369  17.151  0.00  0.00    +0.000 C 
ATOM     15  O   UNL     1       2.838   3.372  16.070  0.00  0.00    +0.000 OA
ATOM     16  N   UNL     1       2.794   3.776  18.323  0.00  0.00    +0.000 N 
ATOM     17  C   UNL     1       1.381   4.164  18.233  0.00  0.00    +0.000 C 
ATOM     18  C   UNL     1       0.527   3.313  19.168  0.00  0.00    +0.000 C 
ATOM     19  C   UNL     1       1.048   3.373  20.602  0.00  0.00    +0.000 C 
ATOM     20  C   UNL     1       2.536   3.019  20.659  0.00  0.00    +0.000 C 
ATOM     21  C   UNL     1       3.387   3.843  19.673  0.00  0.00    +0.000 C 
ATOM     22  C   UNL     1       3.546   5.290  20.157  0.00  0.00    +0.000 C 
ENDBRANCH  13  14
ENDBRANCH   8  13
TORSDOF 2
ENDMDL
MODEL 4
REMARK VINA RESULT:      -7.2      3.955      7.081
REMARK  Name = 
REMARK  4 active torsions:
REMARK  status: ('A' for Active; 'I' for Inactive)
REMARK    1  A    between atoms: C_1  and  C_2
REMARK    2  A    between atoms: N_8  and  C_9
REMARK    3  A    between atoms: C_9  and  C_10
REMARK    4  A    between atoms: C_17  and  C_18
REMARK                            x       y       z     vdW  Elec       q    Type
REMARK                         _______ _______ _______ _____ _____    ______ ____
ROOT
ATOM      1  C   UNL     1      -0.556   9.320  23.019  0.00  0.00    +0.000 C 
ATOM      2  C   UNL     1       0.110   9.364  21.672  0.00  0.00    +0.000 A 
ATOM      3  C   UNL     1      -0.221  10.367  20.757  0.00  0.00    +0.000 A 
ATOM      4  C   UNL     1       0.336  10.349  19.485  0.00  0.00    +0.000 A 
ATOM      5  C   UNL     1       1.212   9.324  19.115  0.00  0.00    +0.000 A 
ATOM      6  C   UNL     1       1.579   8.307  20.019  0.00  0.00    +0.000 A 
ATOM      7  C   UNL     1       1.026   8.359  21.306  0.00  0.00    +0.000 A 
ATOM      8  N   UNL     1       2.373   7.218  19.556  0.00  0.00    +0.000 N 
ATOM      9  C   UNL     1       2.661   7.142  18.195  0.00  0.00    +0.000 C 
ATOM     10  O   UNL     1       2.978   6.103  17.619  0.00  0.00    +0.000 OA
ATOM     11  C   UNL     1       2.686   8.500  17.514  0.00  0.00    +0.000 C 
ATOM     12  O   UNL     1       1.622   9.381  17.808  0.00  0.00    +0.000 OA
ENDROOT
BRANCH   8  13
ATOM     13  C   UNL     1       2.887   6.129  20.392  0.00  0.00    +0.000 C 
BRANCH  13  14
ATOM     14  C   UNL     1       1.924   4.912  20.323  0.00  0.00    +0.000 C 
ATOM     15  O   UNL     1       0.729   5.039  20.613  0.00  0.00    +0.000 OA
ATOM     16  N   UNL     1       2.424   3.677  19.898  0.00  0.00    +0.000 N 
ATOM     17  C   UNL     1       1.482   2.559  19.770  0.00  0.00    +0.000 C 
ATOM     18  C   UNL     1       1.498   2.001  18.350  0.00  0.00    +0.000 C 
ATOM     19  C   UNL     1       2.911   1.612  17.923  0.00  0.00    +0.000 C 
ATOM     20  C   UNL     1       3.882   2.778  18.120  0.00  0.00    +0.000 C 
ATOM     21  C   UNL     1       3.824   3.374  19.540  0.00  0.00    +0.000 C 
ATOM     22  C   UNL     1       4.485   2.438  20.560  0.00  0.00    +0.000 C 
ENDBRANCH  13  14
ENDBRANCH   8  13
TORSDOF 2
ENDMDL
MODEL 5
REMARK VINA RESULT:      -7.1      3.767      5.926
REMARK  Name = 
REMARK  4 active torsions:
REMARK  status: ('A' for Active; 'I' for Inactive)
REMARK    1  A    between atoms: C_1  and  C_2
REMARK    2  A    between atoms: N_8  and  C_9
REMARK    3  A    between atoms: C_9  and  C_10
REMARK    4  A    between atoms: C_17  and  C_18
REMARK                            x       y       z     vdW  Elec       q    Type
REMARK                         _______ _______ _______ _____ _____    ______ ____
ROOT
ATOM      1  C   UNL     1       7.872   7.959  17.428  0.00  0.00    +0.000 C 
ATOM      2  C   UNL     1       6.960   6.816  17.775  0.00  0.00    +0.000 A 
ATOM      3  C   UNL     1       7.480   5.532  17.957  0.00  0.00    +0.000 A 
ATOM      4  C   UNL     1       6.619   4.468  18.193  0.00  0.00    +0.000 A 
ATOM      5  C   UNL     1       5.237   4.677  18.234  0.00  0.00    +0.000 A 
ATOM      6  C   UNL     1       4.681   5.963  18.070  0.00  0.00    +0.000 A 
ATOM      7  C   UNL     1       5.570   7.025  17.860  0.00  0.00    +0.000 A 
ATOM      8  N   UNL     1       3.265   6.104  17.994  0.00  0.00    +0.000 N 
ATOM      9  C   UNL     1       2.486   4.949  17.968  0.00  0.00    +0.000 C 
ATOM     10  O   UNL     1       1.341   4.905  17.523  0.00  0.00    +0.000 OA
ATOM     11  C   UNL     1       3.139   3.773  18.676  0.00  0.00    +0.000 C 
ATOM     12  O   UNL     1       4.501   3.531  18.390  0.00  0.00    +0.000 OA
ENDROOT
BRANCH   8  13
ATOM     13  C   UNL     1       2.545   7.377  17.896  0.00  0.00    +0.000 C 
BRANCH  13  14
ATOM     14  C   UNL     1       1.938   7.748  19.277  0.00  0.00    +0.000 C 
ATOM     15  O   UNL     1       2.127   7.023  20.261  0.00  0.00    +0.000 OA
ATOM     16  N   UNL     1       1.201   8.929  19.396  0.00  0.00    +0.000 N 
ATOM     17  C   UNL     1       0.699   9.297  20.725  0.00  0.00    +0.000 C 
ATOM     18  C   UNL     1       1.211  10.676  21.132  0.00  0.00    +0.000 C 
ATOM     19  C   UNL     1       0.870  11.727  20.079  0.00  0.00    +0.000 C 
ATOM     20  C   UNL     1       1.355  11.292  18.695  0.00  0.00    +0.000 C 
ATOM     21  C   UNL     1       0.881   9.877  18.310  0.00  0.00    +0.000 C 
ATOM     22  C   UNL     1      -0.615   9.870  17.968  0.00  0.00    +0.000 C 
ENDBRANCH  13  14
ENDBRANCH   8  13
TORSDOF 2
ENDMDL
MODEL 6
REMARK VINA RESULT:      -7.0      2.125      6.713
REMARK  Name = 
REMARK  4 active torsions:
REMARK  status: ('A' for Active; 'I' for Inactive)
REMARK    1  A    between atoms: C_1  and  C_2
REMARK    2  A    between atoms: N_8  and  C_9
REMARK    3  A    between atoms: C_9  and  C_10
REMARK    4  A    between atoms: C_17  and  C_18
REMARK                            x       y       z     vdW  Elec       q    Type
REMARK                         _______ _______ _______ _____ _____    ______ ____
ROOT
ATOM      1  C   UNL     1       2.545   8.753  17.870  0.00  0.00    +0.000 C 
ATOM      2  C   UNL     1       2.294   7.606  18.808  0.00  0.00    +0.000 A 
ATOM      3  C   UNL     1       1.613   7.817  20.011  0.00  0.00    +0.000 A 
ATOM      4  C   UNL     1       1.462   6.768  20.909  0.00  0.00    +0.000 A 
ATOM      5  C   UNL     1       2.001   5.511  20.620  0.00  0.00    +0.000 A 
ATOM      6  C   UNL     1       2.680   5.261  19.410  0.00  0.00    +0.000 A 
ATOM      7  C   UNL     1       2.798   6.326  18.506  0.00  0.00    +0.000 A 
ATOM      8  N   UNL     1       3.319   4.001  19.218  0.00  0.00    +0.000 N 
ATOM      9  C   UNL     1       3.347   3.106  20.285  0.00  0.00    +0.000 C 
ATOM     10  O   UNL     1       4.166   2.195  20.393  0.00  0.00    +0.000 OA
ATOM     11  C   UNL     1       2.174   3.274  21.236  0.00  0.00    +0.000 C 
ATOM     12  O   UNL     1       1.852   4.593  21.627  0.00  0.00    +0.000 OA
ENDROOT
BRANCH   8  13
ATOM     13  C   UNL     1       3.999   3.575  17.991  0.00  0.00    +0.000 C 
BRANCH  13  14
ATOM     14  C   UNL     1       5.421   4.198  17.933  0.00  0.00    +0.000 C 
ATOM     15  O   UNL     1       6.208   4.055  18.876  0.00  0.00    +0.000 OA
ATOM     16  N   UNL     1       5.807   4.895  16.785  0.00  0.00    +0.000 N 
ATOM     17  C   UNL     1       7.180   5.412  16.721  0.00  0.00    +0.000 C 
ATOM     18  C   UNL     1       7.907   4.860  15.498  0.00  0.00    +0.000 C 
ATOM     19  C   UNL     1       7.128   5.142  14.216  0.00  0.00    +0.000 C 
ATOM     20  C   UNL     1       5.686   4.643  14.332  0.00  0.00    +0.000 C 
ATOM     21  C   UNL     1       4.972   5.159  15.596  0.00  0.00    +0.000 C 
ATOM     22  C   UNL     1       4.620   6.647  15.464  0.00  0.00    +0.000 C 
ENDBRANCH  13  14
ENDBRANCH   8  13
TORSDOF 2
ENDMDL
MODEL 7
REMARK VINA RESULT:      -7.0      3.166      5.165
REMARK  Name = 
REMARK  4 active torsions:
REMARK  status: ('A' for Active; 'I' for Inactive)
REMARK    1  A    between atoms: C_1  and  C_2
REMARK    2  A    between atoms: N_8  and  C_9
REMARK    3  A    between atoms: C_9  and  C_10
REMARK    4  A    between atoms: C_17  and  C_18
REMARK                            x       y       z     vdW  Elec       q    Type
REMARK                         _______ _______ _______ _____ _____    ______ ____
ROOT
ATOM      1  C   UNL     1       7.714   7.637  17.801  0.00  0.00    +0.000 C 
ATOM      2  C   UNL     1       6.777   6.497  17.512  0.00  0.00    +0.000 A 
ATOM      3  C   UNL     1       7.101   5.551  16.536  0.00  0.00    +0.000 A 
ATOM      4  C   UNL     1       6.190   4.553  16.217  0.00  0.00    +0.000 A 
ATOM      5  C   UNL     1       4.949   4.501  16.858  0.00  0.00    +0.000 A 
ATOM      6  C   UNL     1       4.598   5.431  17.859  0.00  0.00    +0.000 A 
ATOM      7  C   UNL     1       5.542   6.414  18.183  0.00  0.00    +0.000 A 
ATOM      8  N   UNL     1       3.276   5.413  18.391  0.00  0.00    +0.000 N 
ATOM      9  C   UNL     1       2.344   4.551  17.817  0.00  0.00    +0.000 C 
ATOM     10  O   UNL     1       1.127   4.705  17.899  0.00  0.00    +0.000 OA
ATOM     11  C   UNL     1       2.976   3.315  17.199  0.00  0.00    +0.000 C 
ATOM     12  O   UNL     1       4.116   3.518  16.390  0.00  0.00    +0.000 OA
ENDROOT
BRANCH   8  13
ATOM     13  C   UNL     1       2.790   6.268  19.478  0.00  0.00    +0.000 C 
BRANCH  13  14
ATOM     14  C   UNL     1       2.376   7.655  18.914  0.00  0.00    +0.000 C 
ATOM     15  O   UNL     1       2.666   7.973  17.755  0.00  0.00    +0.000 OA
ATOM     16  N   UNL     1       1.642   8.523  19.727  0.00  0.00    +0.000 N 
ATOM     17  C   UNL     1       1.198   9.798  19.149  0.00  0.00    +0.000 C 
ATOM     18  C   UNL     1      -0.319   9.930  19.238  0.00  0.00    +0.000 C 
ATOM     19  C   UNL     1      -0.809   9.749  20.673  0.00  0.00    +0.000 C 
ATOM     20  C   UNL     1      -0.285   8.440  21.268  0.00  0.00    +0.000 C 
ATOM     21  C   UNL     1       1.242   8.286  21.128  0.00  0.00    +0.000 C 
ATOM     22  C   UNL     1       1.982   9.215  22.099  0.00  0.00    +0.000 C 
ENDBRANCH  13  14
ENDBRANCH   8  13
TORSDOF 2
ENDMDL
MODEL 8
REMARK VINA RESULT:      -6.8      5.846      8.599
REMARK  Name = 
REMARK  4 active torsions:
REMARK  status: ('A' for Active; 'I' for Inactive)
REMARK    1  A    between atoms: C_1  and  C_2
REMARK    2  A    between atoms: N_8  and  C_9
REMARK    3  A    between atoms: C_9  and  C_10
REMARK    4  A    between atoms: C_17  and  C_18
REMARK                            x       y       z     vdW  Elec       q    Type
REMARK                         _______ _______ _______ _____ _____    ______ ____
ROOT
ATOM      1  C   UNL     1      -2.625   9.570  15.601  0.00  0.00    +0.000 C 
ATOM      2  C   UNL     1      -2.383  10.161  16.962  0.00  0.00    +0.000 A 
ATOM      3  C   UNL     1      -3.291  11.075  17.504  0.00  0.00    +0.000 A 
ATOM      4  C   UNL     1      -3.014  11.679  18.723  0.00  0.00    +0.000 A 
ATOM      5  C   UNL     1      -1.826  11.387  19.399  0.00  0.00    +0.000 A 
ATOM      6  C   UNL     1      -0.896  10.459  18.888  0.00  0.00    +0.000 A 
ATOM      7  C   UNL     1      -1.208   9.841  17.669  0.00  0.00    +0.000 A 
ATOM      8  N   UNL     1       0.355  10.291  19.549  0.00  0.00    +0.000 N 
ATOM      9  C   UNL     1       0.659  11.138  20.613  0.00  0.00    +0.000 C 
ATOM     10  O   UNL     1       1.803  11.367  21.001  0.00  0.00    +0.000 OA
ATOM     11  C   UNL     1      -0.573  11.644  21.344  0.00  0.00    +0.000 C 
ATOM     12  O   UNL     1      -1.640  12.115  20.546  0.00  0.00    +0.000 OA
ENDROOT
BRANCH   8  13
ATOM     13  C   UNL     1       1.386   9.318  19.176  0.00  0.00    +0.000 C 
BRANCH  13  14
ATOM     14  C   UNL     1       1.408   8.152  20.203  0.00  0.00    +0.000 C 
ATOM     15  O   UNL     1       0.925   8.301  21.332  0.00  0.00    +0.000 OA
ATOM     16  N   UNL     1       1.953   6.924  19.819  0.00  0.00    +0.000 N 
ATOM     17  C   UNL     1       1.896   5.815  20.779  0.00  0.00    +0.000 C 
ATOM     18  C   UNL     1       1.163   4.619  20.179  0.00  0.00    +0.000 C 
ATOM     19  C   UNL     1       1.786   4.196  18.851  0.00  0.00    +0.000 C 
ATOM     20  C   UNL     1       1.883   5.384  17.890  0.00  0.00    +0.000 C 
ATOM     21  C   UNL     1       2.576   6.608  18.519  0.00  0.00    +0.000 C 
ATOM     22  C   UNL     1       4.088   6.380  18.650  0.00  0.00    +0.000 C 
ENDBRANCH  13  14
ENDBRANCH   8  13
TORSDOF 2
ENDMDL
MODEL 9
REMARK VINA RESULT:      -6.8      1.390      1.767
REMARK  Name = 
REMARK  4 active torsions:
REMARK  status: ('A' for Active; 'I' for Inactive)
REMARK    1  A    between atoms: C_1  and  C_2
REMARK    2  A    between atoms: N_8  and  C_9
REMARK    3  A    between atoms: C_9  and  C_10
REMARK    4  A    between atoms: C_17  and  C_18
REMARK                            x       y       z     vdW  Elec       q    Type
REMARK                         _______ _______ _______ _____ _____    ______ ____
ROOT
ATOM      1  C   UNL     1       5.388   2.924  13.643  0.00  0.00    +0.000 C 
ATOM      2  C   UNL     1       6.009   4.002  14.485  0.00  0.00    +0.000 A 
ATOM      3  C   UNL     1       6.870   4.939  13.906  0.00  0.00    +0.000 A 
ATOM      4  C   UNL     1       7.505   5.878  14.707  0.00  0.00    +0.000 A 
ATOM      5  C   UNL     1       7.297   5.878  16.090  0.00  0.00    +0.000 A 
ATOM      6  C   UNL     1       6.423   4.958  16.704  0.00  0.00    +0.000 A 
ATOM      7  C   UNL     1       5.772   4.037  15.873  0.00  0.00    +0.000 A 
ATOM      8  N   UNL     1       6.342   4.918  18.127  0.00  0.00    +0.000 N 
ATOM      9  C   UNL     1       7.220   5.713  18.860  0.00  0.00    +0.000 C 
ATOM     10  O   UNL     1       7.525   5.495  20.032  0.00  0.00    +0.000 OA
ATOM     11  C   UNL     1       7.655   6.965  18.117  0.00  0.00    +0.000 C 
ATOM     12  O   UNL     1       8.048   6.802  16.769  0.00  0.00    +0.000 OA
ENDROOT
BRANCH   8  13
ATOM     13  C   UNL     1       5.432   4.067  18.899  0.00  0.00    +0.000 C 
BRANCH  13  14
ATOM     14  C   UNL     1       4.018   4.709  18.941  0.00  0.00    +0.000 C 
ATOM     15  O   UNL     1       3.846   5.873  18.558  0.00  0.00    +0.000 OA
ATOM     16  N   UNL     1       2.940   3.941  19.389  0.00  0.00    +0.000 N 
ATOM     17  C   UNL     1       1.602   4.544  19.352  0.00  0.00    +0.000 C 
ATOM     18  C   UNL     1       0.652   3.695  18.512  0.00  0.00    +0.000 C 
ATOM     19  C   UNL     1       0.617   2.250  19.005  0.00  0.00    +0.000 C 
ATOM     20  C   UNL     1       2.029   1.666  19.087  0.00  0.00    +0.000 C 
ATOM     21  C   UNL     1       2.999   2.554  19.891  0.00  0.00    +0.000 C 
ATOM     22  C   UNL     1       2.703   2.476  21.394  0.00  0.00    +0.000 C 
ENDBRANCH  13  14
ENDBRANCH   8  13
TORSDOF 2
ENDMDL
