MODEL 1
REMARK VINA RESULT:      -8.4      0.000      0.000
REMARK  Name = 
REMARK  9 active torsions:
REMARK  status: ('A' for Active; 'I' for Inactive)
REMARK    1  A    between atoms: C_1  and  O_2
REMARK    2  A    between atoms: O_2  and  C_3
REMARK    3  A    between atoms: C_5  and  N_6
REMARK    4  A    between atoms: C_7  and  C_9
REMARK    5  A    between atoms: N_11  and  C_12
REMARK    6  A    between atoms: C_12  and  C_13
REMARK    7  A    between atoms: C_12  and  C_14
REMARK    8  A    between atoms: C_12  and  C_15
REMARK    9  A    between atoms: C_23  and  C_24
REMARK                            x       y       z     vdW  Elec       q    Type
REMARK                         _______ _______ _______ _____ _____    ______ ____
ROOT
ATOM      1  N   UNL     1       8.981   9.069  18.960  0.00  0.00    +0.000 N 
ATOM      2  C   UNL     1       8.065   8.697  17.983  0.00  0.00    +0.000 C 
ATOM      3  O   UNL     1       7.496   9.392  17.154  0.00  0.00    +0.000 OA
ATOM      4  H   UNL     1       9.289   8.319  19.572  0.00  0.00    +0.000 HD
ENDROOT
BRANCH   1   7
ATOM      5  C   UNL     1      10.076  12.613  18.490  0.00  0.00    +0.000 A 
ATOM      6  C   UNL     1       9.777  11.267  18.229  0.00  0.00    +0.000 A 
ATOM      7  C   UNL     1       9.408  10.384  19.237  0.00  0.00    +0.000 A 
ATOM      8  C   UNL     1       9.440  10.829  20.555  0.00  0.00    +0.000 A 
ATOM      9  C   UNL     1       9.790  12.157  20.840  0.00  0.00    +0.000 A 
ATOM     10  C   UNL     1      10.097  13.078  19.816  0.00  0.00    +0.000 A 
BRANCH  10  11
ATOM     11  C   UNL     1      10.392  14.471  20.151  0.00  0.00    +0.000 A 
ATOM     12  C   UNL     1       9.671  15.596  20.500  0.00  0.00    +0.000 A 
ATOM     13  N   UNL     1      10.510  16.659  20.736  0.00  0.00    +0.000 NA
ATOM     14  C   UNL     1      11.701  16.153  20.523  0.00  0.00    +0.000 A 
ATOM     15  O   UNL     1      11.719  14.841  20.166  0.00  0.00    +0.000 OA
ENDBRANCH  10  11
BRANCH   5  17
ATOM     16  C   UNL     1      11.680  13.300  16.885  0.00  0.00    +0.000 C 
ATOM     17  O   UNL     1      10.386  13.478  17.465  0.00  0.00    +0.000 OA
ENDBRANCH   5  17
ENDBRANCH   1   7
BRANCH   2  18
ATOM     18  C   UNL     1       7.728   7.198  17.995  0.00  0.00    +0.000 C 
ATOM     19  O   UNL     1       8.099   6.512  18.937  0.00  0.00    +0.000 OA
ATOM     20  N   UNL     1       7.005   6.809  16.895  0.00  0.00    +0.000 N 
ATOM     21  H   UNL     1       6.768   7.551  16.239  0.00  0.00    +0.000 HD
BRANCH  20  22
ATOM     22  C   UNL     1       6.526   5.450  16.617  0.00  0.00    +0.000 C 
ATOM     23  C   UNL     1       6.575   5.178  15.098  0.00  0.00    +0.000 C 
ATOM     24  C   UNL     1       7.456   4.437  17.319  0.00  0.00    +0.000 C 
BRANCH  22  25
ATOM     25  C   UNL     1       5.063   5.342  17.113  0.00  0.00    +0.000 A 
ATOM     26  C   UNL     1       4.383   4.106  17.070  0.00  0.00    +0.000 A 
ATOM     27  C   UNL     1       3.053   3.988  17.493  0.00  0.00    +0.000 A 
ATOM     28  C   UNL     1       2.369   5.101  17.970  0.00  0.00    +0.000 A 
ATOM     29  C   UNL     1       3.014   6.330  18.026  0.00  0.00    +0.000 A 
ATOM     30  C   UNL     1       4.342   6.448  17.602  0.00  0.00    +0.000 A 
ENDBRANCH  22  25
ENDBRANCH  20  22
ENDBRANCH   2  18
TORSDOF 6
ENDMDL
MODEL 2
REMARK VINA RESULT:      -7.9      6.899      8.483
REMARK  Name = 
REMARK  9 active torsions:
REMARK  status: ('A' for Active; 'I' for Inactive)
REMARK    1  A    between atoms: C_1  and  O_2
REMARK    2  A    between atoms: O_2  and  C_3
REMARK    3  A    between atoms: C_5  and  N_6
REMARK    4  A    between atoms: C_7  and  C_9
REMARK    5  A    between atoms: N_11  and  C_12
REMARK    6  A    between atoms: C_12  and  C_13
REMARK    7  A    between atoms: C_12  and  C_14
REMARK    8  A    between atoms: C_12  and  C_15
REMARK    9  A    between atoms: C_23  and  C_24
REMARK                            x       y       z     vdW  Elec       q    Type
REMARK                         _______ _______ _______ _____ _____    ______ ____
ROOT
ATOM      1  N   UNL     1       1.387   7.601  21.213  0.00  0.00    +0.000 N 
ATOM      2  C   UNL     1       1.988   7.298  19.997  0.00  0.00    +0.000 C 
ATOM      3  O   UNL     1       2.211   8.028  19.042  0.00  0.00    +0.000 OA
ATOM      4  H   UNL     1       1.265   6.814  21.843  0.00  0.00    +0.000 HD
ENDROOT
BRANCH   1   7
ATOM      5  C   UNL     1       0.451  11.220  21.133  0.00  0.00    +0.000 A 
ATOM      6  C   UNL     1       1.094  10.006  20.850  0.00  0.00    +0.000 A 
ATOM      7  C   UNL     1       0.843   8.849  21.579  0.00  0.00    +0.000 A 
ATOM      8  C   UNL     1       0.006   8.932  22.687  0.00  0.00    +0.000 A 
ATOM      9  C   UNL     1      -0.603  10.151  23.019  0.00  0.00    +0.000 A 
ATOM     10  C   UNL     1      -0.408  11.312  22.241  0.00  0.00    +0.000 A 
BRANCH  10  11
ATOM     11  C   UNL     1      -1.115  12.547  22.582  0.00  0.00    +0.000 A 
ATOM     12  C   UNL     1      -2.314  13.145  22.248  0.00  0.00    +0.000 A 
ATOM     13  N   UNL     1      -2.470  14.333  22.920  0.00  0.00    +0.000 NA
ATOM     14  C   UNL     1      -1.371  14.421  23.632  0.00  0.00    +0.000 A 
ATOM     15  O   UNL     1      -0.502  13.386  23.486  0.00  0.00    +0.000 OA
ENDBRANCH  10  11
BRANCH   5  17
ATOM     16  C   UNL     1       1.282  12.086  19.088  0.00  0.00    +0.000 C 
ATOM     17  O   UNL     1       0.678  12.336  20.359  0.00  0.00    +0.000 OA
ENDBRANCH   5  17
ENDBRANCH   1   7
BRANCH   2  18
ATOM     18  C   UNL     1       2.390   5.821  19.863  0.00  0.00    +0.000 C 
ATOM     19  O   UNL     1       1.991   5.017  20.692  0.00  0.00    +0.000 OA
ATOM     20  N   UNL     1       3.176   5.585  18.761  0.00  0.00    +0.000 N 
ATOM     21  H   UNL     1       3.366   6.395  18.174  0.00  0.00    +0.000 HD
BRANCH  20  22
ATOM     22  C   UNL     1       3.716   4.283  18.354  0.00  0.00    +0.000 C 
ATOM     23  C   UNL     1       4.210   3.510  19.595  0.00  0.00    +0.000 C 
ATOM     24  C   UNL     1       2.592   3.459  17.689  0.00  0.00    +0.000 C 
BRANCH  22  25
ATOM     25  C   UNL     1       4.905   4.531  17.394  0.00  0.00    +0.000 A 
ATOM     26  C   UNL     1       6.233   4.477  17.872  0.00  0.00    +0.000 A 
ATOM     27  C   UNL     1       7.323   4.720  17.028  0.00  0.00    +0.000 A 
ATOM     28  C   UNL     1       7.117   5.022  15.686  0.00  0.00    +0.000 A 
ATOM     29  C   UNL     1       5.821   5.078  15.187  0.00  0.00    +0.000 A 
ATOM     30  C   UNL     1       4.731   4.837  16.031  0.00  0.00    +0.000 A 
ENDBRANCH  22  25
ENDBRANCH  20  22
ENDBRANCH   2  18
TORSDOF 6
ENDMDL
MODEL 3
REMARK VINA RESULT:      -7.9      1.045      2.111
REMARK  Name = 
REMARK  9 active torsions:
REMARK  status: ('A' for Active; 'I' for Inactive)
REMARK    1  A    between atoms: C_1  and  O_2
REMARK    2  A    between atoms: O_2  and  C_3
REMARK    3  A    between atoms: C_5  and  N_6
REMARK    4  A    between atoms: C_7  and  C_9
REMARK    5  A    between atoms: N_11  and  C_12
REMARK    6  A    between atoms: C_12  and  C_13
REMARK    7  A    between atoms: C_12  and  C_14
REMARK    8  A    between atoms: C_12  and  C_15
REMARK    9  A    between atoms: C_23  and  C_24
REMARK                            x       y       z     vdW  Elec       q    Type
REMARK                         _______ _______ _______ _____ _____    ______ ____
ROOT
ATOM      1  N   UNL     1       9.007   9.215  18.883  0.00  0.00    +0.000 N 
ATOM      2  C   UNL     1       8.071   8.779  17.953  0.00  0.00    +0.000 C 
ATOM      3  O   UNL     1       7.459   9.423  17.113  0.00  0.00    +0.000 OA
ATOM      4  H   UNL     1       9.351   8.500  19.517  0.00  0.00    +0.000 HD
ENDROOT
BRANCH   1   7
ATOM      5  C   UNL     1       9.928  12.420  20.573  0.00  0.00    +0.000 A 
ATOM      6  C   UNL     1       9.403  11.139  20.345  0.00  0.00    +0.000 A 
ATOM      7  C   UNL     1       9.413  10.549  19.086  0.00  0.00    +0.000 A 
ATOM      8  C   UNL     1       9.863  11.301  18.005  0.00  0.00    +0.000 A 
ATOM      9  C   UNL     1      10.340  12.604  18.205  0.00  0.00    +0.000 A 
ATOM     10  C   UNL     1      10.399  13.183  19.490  0.00  0.00    +0.000 A 
BRANCH  10  11
ATOM     11  C   UNL     1      10.965  14.521  19.664  0.00  0.00    +0.000 A 
ATOM     12  C   UNL     1      12.227  15.072  19.772  0.00  0.00    +0.000 A 
ATOM     13  N   UNL     1      12.152  16.439  19.897  0.00  0.00    +0.000 NA
ATOM     14  C   UNL     1      10.861  16.672  19.864  0.00  0.00    +0.000 A 
ATOM     15  O   UNL     1      10.076  15.571  19.726  0.00  0.00    +0.000 OA
ENDBRANCH  10  11
BRANCH   5  17
ATOM     16  C   UNL     1       8.830  12.636  22.663  0.00  0.00    +0.000 C 
ATOM     17  O   UNL     1       9.954  12.958  21.840  0.00  0.00    +0.000 OA
ENDBRANCH   5  17
ENDBRANCH   1   7
BRANCH   2  18
ATOM     18  C   UNL     1       7.768   7.275  18.044  0.00  0.00    +0.000 C 
ATOM     19  O   UNL     1       8.174   6.644  19.009  0.00  0.00    +0.000 OA
ATOM     20  N   UNL     1       7.031   6.818  16.980  0.00  0.00    +0.000 N 
ATOM     21  H   UNL     1       6.764   7.522  16.294  0.00  0.00    +0.000 HD
BRANCH  20  22
ATOM     22  C   UNL     1       6.578   5.437  16.778  0.00  0.00    +0.000 C 
ATOM     23  C   UNL     1       6.453   5.143  15.267  0.00  0.00    +0.000 C 
ATOM     24  C   UNL     1       7.628   4.473  17.371  0.00  0.00    +0.000 C 
BRANCH  22  25
ATOM     25  C   UNL     1       5.192   5.280  17.450  0.00  0.00    +0.000 A 
ATOM     26  C   UNL     1       4.241   6.322  17.380  0.00  0.00    +0.000 A 
ATOM     27  C   UNL     1       2.990   6.211  17.999  0.00  0.00    +0.000 A 
ATOM     28  C   UNL     1       2.655   5.058  18.701  0.00  0.00    +0.000 A 
ATOM     29  C   UNL     1       3.570   4.016  18.783  0.00  0.00    +0.000 A 
ATOM     30  C   UNL     1       4.821   4.126  18.167  0.00  0.00    +0.000 A 
ENDBRANCH  22  25
ENDBRANCH  20  22
ENDBRANCH   2  18
TORSDOF 6
ENDMDL
MODEL 4
REMARK VINA RESULT:      -7.9      7.264      8.974
REMARK  Name = 
REMARK  9 active torsions:
REMARK  status: ('A' for Active; 'I' for Inactive)
REMARK    1  A    between atoms: C_1  and  O_2
REMARK    2  A    between atoms: O_2  and  C_3
REMARK    3  A    between atoms: C_5  and  N_6
REMARK    4  A    between atoms: C_7  and  C_9
REMARK    5  A    between atoms: N_11  and  C_12
REMARK    6  A    between atoms: C_12  and  C_13
REMARK    7  A    between atoms: C_12  and  C_14
REMARK    8  A    between atoms: C_12  and  C_15
REMARK    9  A    between atoms: C_23  and  C_24
REMARK                            x       y       z     vdW  Elec       q    Type
REMARK                         _______ _______ _______ _____ _____    ______ ____
ROOT
ATOM      1  N   UNL     1       0.944   7.697  21.206  0.00  0.00    +0.000 N 
ATOM      2  C   UNL     1       1.786   7.484  20.121  0.00  0.00    +0.000 C 
ATOM      3  O   UNL     1       2.222   8.290  19.312  0.00  0.00    +0.000 OA
ATOM      4  H   UNL     1       0.675   6.860  21.715  0.00  0.00    +0.000 HD
ENDROOT
BRANCH   1   7
ATOM      5  C   UNL     1      -0.553  11.114  20.976  0.00  0.00    +0.000 A 
ATOM      6  C   UNL     1       0.147   9.944  20.648  0.00  0.00    +0.000 A 
ATOM      7  C   UNL     1       0.357   8.925  21.570  0.00  0.00    +0.000 A 
ATOM      8  C   UNL     1      -0.052   9.126  22.885  0.00  0.00    +0.000 A 
ATOM      9  C   UNL     1      -0.705  10.313  23.245  0.00  0.00    +0.000 A 
ATOM     10  C   UNL     1      -0.984  11.322  22.298  0.00  0.00    +0.000 A 
BRANCH  10  11
ATOM     11  C   UNL     1      -1.727  12.516  22.700  0.00  0.00    +0.000 A 
ATOM     12  C   UNL     1      -3.008  13.006  22.538  0.00  0.00    +0.000 A 
ATOM     13  N   UNL     1      -3.154  14.212  23.181  0.00  0.00    +0.000 NA
ATOM     14  C   UNL     1      -1.969  14.416  23.706  0.00  0.00    +0.000 A 
ATOM     15  O   UNL     1      -1.052  13.443  23.463  0.00  0.00    +0.000 OA
ENDBRANCH  10  11
BRANCH   5  17
ATOM     16  C   UNL     1      -1.692  11.706  18.983  0.00  0.00    +0.000 C 
ATOM     17  O   UNL     1      -0.793  12.083  20.028  0.00  0.00    +0.000 OA
ENDBRANCH   5  17
ENDBRANCH   1   7
BRANCH   2  18
ATOM     18  C   UNL     1       2.180   6.011  19.929  0.00  0.00    +0.000 C 
ATOM     19  O   UNL     1       1.825   5.187  20.759  0.00  0.00    +0.000 OA
ATOM     20  N   UNL     1       2.906   5.803  18.783  0.00  0.00    +0.000 N 
ATOM     21  H   UNL     1       3.066   6.627  18.207  0.00  0.00    +0.000 HD
BRANCH  20  22
ATOM     22  C   UNL     1       3.424   4.511  18.315  0.00  0.00    +0.000 C 
ATOM     23  C   UNL     1       4.233   3.833  19.442  0.00  0.00    +0.000 C 
ATOM     24  C   UNL     1       2.235   3.594  17.957  0.00  0.00    +0.000 C 
BRANCH  22  25
ATOM     25  C   UNL     1       4.349   4.772  17.101  0.00  0.00    +0.000 A 
ATOM     26  C   UNL     1       4.998   3.698  16.454  0.00  0.00    +0.000 A 
ATOM     27  C   UNL     1       5.856   3.911  15.368  0.00  0.00    +0.000 A 
ATOM     28  C   UNL     1       6.087   5.200  14.900  0.00  0.00    +0.000 A 
ATOM     29  C   UNL     1       5.459   6.275  15.516  0.00  0.00    +0.000 A 
ATOM     30  C   UNL     1       4.603   6.063  16.602  0.00  0.00    +0.000 A 
ENDBRANCH  22  25
ENDBRANCH  20  22
ENDBRANCH   2  18
TORSDOF 6
ENDMDL
MODEL 5
REMARK VINA RESULT:      -7.8      7.184      8.990
REMARK  Name = 
REMARK  9 active torsions:
REMARK  status: ('A' for Active; 'I' for Inactive)
REMARK    1  A    between atoms: C_1  and  O_2
REMARK    2  A    between atoms: O_2  and  C_3
REMARK    3  A    between atoms: C_5  and  N_6
REMARK    4  A    between atoms: C_7  and  C_9
REMARK    5  A    between atoms: N_11  and  C_12
REMARK    6  A    between atoms: C_12  and  C_13
REMARK    7  A    between atoms: C_12  and  C_14
REMARK    8  A    between atoms: C_12  and  C_15
REMARK    9  A    between atoms: C_23  and  C_24
REMARK                            x       y       z     vdW  Elec       q    Type
REMARK                         _______ _______ _______ _____ _____    ______ ____
ROOT
ATOM      1  N   UNL     1       0.992   7.360  21.108  0.00  0.00    +0.000 N 
ATOM      2  C   UNL     1       1.883   7.107  20.073  0.00  0.00    +0.000 C 
ATOM      3  O   UNL     1       2.413   7.892  19.300  0.00  0.00    +0.000 OA
ATOM      4  H   UNL     1       0.644   6.537  21.591  0.00  0.00    +0.000 HD
ENDROOT
BRANCH   1   7
ATOM      5  C   UNL     1      -0.499  10.776  20.813  0.00  0.00    +0.000 A 
ATOM      6  C   UNL     1       0.153   9.577  20.490  0.00  0.00    +0.000 A 
ATOM      7  C   UNL     1       0.456   8.618  21.451  0.00  0.00    +0.000 A 
ATOM      8  C   UNL     1       0.195   8.911  22.785  0.00  0.00    +0.000 A 
ATOM      9  C   UNL     1      -0.406  10.129  23.133  0.00  0.00    +0.000 A 
ATOM     10  C   UNL     1      -0.782  11.076  22.157  0.00  0.00    +0.000 A 
BRANCH  10  11
ATOM     11  C   UNL     1      -1.468  12.305  22.556  0.00  0.00    +0.000 A 
ATOM     12  C   UNL     1      -1.106  13.589  22.912  0.00  0.00    +0.000 A 
ATOM     13  N   UNL     1      -2.217  14.356  23.169  0.00  0.00    +0.000 NA
ATOM     14  C   UNL     1      -3.209  13.521  22.966  0.00  0.00    +0.000 A 
ATOM     15  O   UNL     1      -2.844  12.266  22.594  0.00  0.00    +0.000 OA
ENDBRANCH  10  11
BRANCH   5  17
ATOM     16  C   UNL     1      -1.369  11.117  18.633  0.00  0.00    +0.000 C 
ATOM     17  O   UNL     1      -0.836  11.683  19.833  0.00  0.00    +0.000 OA
ENDBRANCH   5  17
ENDBRANCH   1   7
BRANCH   2  18
ATOM     18  C   UNL     1       2.202   5.615  19.888  0.00  0.00    +0.000 C 
ATOM     19  O   UNL     1       1.633   4.793  20.591  0.00  0.00    +0.000 OA
ATOM     20  N   UNL     1       3.123   5.390  18.895  0.00  0.00    +0.000 N 
ATOM     21  H   UNL     1       3.451   6.218  18.403  0.00  0.00    +0.000 HD
BRANCH  20  22
ATOM     22  C   UNL     1       3.630   4.078  18.473  0.00  0.00    +0.000 C 
ATOM     23  C   UNL     1       4.038   3.252  19.712  0.00  0.00    +0.000 C 
ATOM     24  C   UNL     1       2.505   3.319  17.737  0.00  0.00    +0.000 C 
BRANCH  22  25
ATOM     25  C   UNL     1       4.870   4.305  17.574  0.00  0.00    +0.000 A 
ATOM     26  C   UNL     1       4.759   4.214  16.169  0.00  0.00    +0.000 A 
ATOM     27  C   UNL     1       5.870   4.394  15.336  0.00  0.00    +0.000 A 
ATOM     28  C   UNL     1       7.119   4.670  15.883  0.00  0.00    +0.000 A 
ATOM     29  C   UNL     1       7.256   4.769  17.263  0.00  0.00    +0.000 A 
ATOM     30  C   UNL     1       6.146   4.587  18.095  0.00  0.00    +0.000 A 
ENDBRANCH  22  25
ENDBRANCH  20  22
ENDBRANCH   2  18
TORSDOF 6
ENDMDL
MODEL 6
REMARK VINA RESULT:      -7.8      7.092      8.752
REMARK  Name = 
REMARK  9 active torsions:
REMARK  status: ('A' for Active; 'I' for Inactive)
REMARK    1  A    between atoms: C_1  and  O_2
REMARK    2  A    between atoms: O_2  and  C_3
REMARK    3  A    between atoms: C_5  and  N_6
REMARK    4  A    between atoms: C_7  and  C_9
REMARK    5  A    between atoms: N_11  and  C_12
REMARK    6  A    between atoms: C_12  and  C_13
REMARK    7  A    between atoms: C_12  and  C_14
REMARK    8  A    between atoms: C_12  and  C_15
REMARK    9  A    between atoms: C_23  and  C_24
REMARK                            x       y       z     vdW  Elec       q    Type
REMARK                         _______ _______ _______ _____ _____    ______ ____
ROOT
ATOM      1  N   UNL     1       1.230   7.825  21.364  0.00  0.00    +0.000 N 
ATOM      2  C   UNL     1       1.779   7.532  20.121  0.00  0.00    +0.000 C 
ATOM      3  O   UNL     1       1.933   8.262  19.153  0.00  0.00    +0.000 OA
ATOM      4  H   UNL     1       1.163   7.039  22.003  0.00  0.00    +0.000 HD
ENDROOT
BRANCH   1   7
ATOM      5  C   UNL     1       0.290  11.444  21.372  0.00  0.00    +0.000 A 
ATOM      6  C   UNL     1       0.947  10.241  21.074  0.00  0.00    +0.000 A 
ATOM      7  C   UNL     1       0.668   9.059  21.750  0.00  0.00    +0.000 A 
ATOM      8  C   UNL     1      -0.217   9.102  22.823  0.00  0.00    +0.000 A 
ATOM      9  C   UNL     1      -0.841  10.308  23.171  0.00  0.00    +0.000 A 
ATOM     10  C   UNL     1      -0.616  11.496  22.445  0.00  0.00    +0.000 A 
BRANCH  10  11
ATOM     11  C   UNL     1      -1.339  12.717  22.799  0.00  0.00    +0.000 A 
ATOM     12  C   UNL     1      -1.017  14.026  23.100  0.00  0.00    +0.000 A 
ATOM     13  N   UNL     1      -2.150  14.766  23.334  0.00  0.00    +0.000 NA
ATOM     14  C   UNL     1      -3.117  13.893  23.171  0.00  0.00    +0.000 A 
ATOM     15  O   UNL     1      -2.714  12.636  22.848  0.00  0.00    +0.000 OA
ENDBRANCH  10  11
BRANCH   5  17
ATOM     16  C   UNL     1       0.649  12.406  19.235  0.00  0.00    +0.000 C 
ATOM     17  O   UNL     1       0.548  12.587  20.649  0.00  0.00    +0.000 OA
ENDBRANCH   5  17
ENDBRANCH   1   7
BRANCH   2  18
ATOM     18  C   UNL     1       2.218   6.066  19.975  0.00  0.00    +0.000 C 
ATOM     19  O   UNL     1       1.975   5.279  20.877  0.00  0.00    +0.000 OA
ATOM     20  N   UNL     1       2.846   5.820  18.778  0.00  0.00    +0.000 N 
ATOM     21  H   UNL     1       2.917   6.614  18.146  0.00  0.00    +0.000 HD
BRANCH  20  22
ATOM     22  C   UNL     1       3.375   4.524  18.337  0.00  0.00    +0.000 C 
ATOM     23  C   UNL     1       4.153   3.855  19.490  0.00  0.00    +0.000 C 
ATOM     24  C   UNL     1       2.195   3.604  17.955  0.00  0.00    +0.000 C 
BRANCH  22  25
ATOM     25  C   UNL     1       4.333   4.773  17.145  0.00  0.00    +0.000 A 
ATOM     26  C   UNL     1       4.546   6.083  16.662  0.00  0.00    +0.000 A 
ATOM     27  C   UNL     1       5.390   6.330  15.573  0.00  0.00    +0.000 A 
ATOM     28  C   UNL     1       6.043   5.279  14.939  0.00  0.00    +0.000 A 
ATOM     29  C   UNL     1       5.855   3.980  15.396  0.00  0.00    +0.000 A 
ATOM     30  C   UNL     1       5.010   3.732  16.484  0.00  0.00    +0.000 A 
ENDBRANCH  22  25
ENDBRANCH  20  22
ENDBRANCH   2  18
TORSDOF 6
ENDMDL
MODEL 7
REMARK VINA RESULT:      -7.8      0.912      1.761
REMARK  Name = 
REMARK  9 active torsions:
REMARK  status: ('A' for Active; 'I' for Inactive)
REMARK    1  A    between atoms: C_1  and  O_2
REMARK    2  A    between atoms: O_2  and  C_3
REMARK    3  A    between atoms: C_5  and  N_6
REMARK    4  A    between atoms: C_7  and  C_9
REMARK    5  A    between atoms: N_11  and  C_12
REMARK    6  A    between atoms: C_12  and  C_13
REMARK    7  A    between atoms: C_12  and  C_14
REMARK    8  A    between atoms: C_12  and  C_15
REMARK    9  A    between atoms: C_23  and  C_24
REMARK                            x       y       z     vdW  Elec       q    Type
REMARK                         _______ _______ _______ _____ _____    ______ ____
ROOT
ATOM      1  N   UNL     1       8.992   9.276  18.677  0.00  0.00    +0.000 N 
ATOM      2  C   UNL     1       7.956   8.805  17.879  0.00  0.00    +0.000 C 
ATOM      3  O   UNL     1       7.202   9.427  17.145  0.00  0.00    +0.000 OA
ATOM      4  H   UNL     1       9.456   8.572  19.242  0.00  0.00    +0.000 HD
ENDROOT
BRANCH   1   7
ATOM      5  C   UNL     1       9.466  12.651  20.215  0.00  0.00    +0.000 A 
ATOM      6  C   UNL     1       8.996  11.350  19.980  0.00  0.00    +0.000 A 
ATOM      7  C   UNL     1       9.356  10.627  18.848  0.00  0.00    +0.000 A 
ATOM      8  C   UNL     1      10.120  11.260  17.873  0.00  0.00    +0.000 A 
ATOM      9  C   UNL     1      10.552  12.579  18.065  0.00  0.00    +0.000 A 
ATOM     10  C   UNL     1      10.251  13.294  19.243  0.00  0.00    +0.000 A 
BRANCH  10  11
ATOM     11  C   UNL     1      10.778  14.646  19.433  0.00  0.00    +0.000 A 
ATOM     12  C   UNL     1      10.338  15.937  19.214  0.00  0.00    +0.000 A 
ATOM     13  N   UNL     1      11.281  16.849  19.624  0.00  0.00    +0.000 NA
ATOM     14  C   UNL     1      12.255  16.092  20.072  0.00  0.00    +0.000 A 
ATOM     15  O   UNL     1      12.032  14.753  19.992  0.00  0.00    +0.000 OA
ENDBRANCH  10  11
BRANCH   5  17
ATOM     16  C   UNL     1       9.029  12.508  22.541  0.00  0.00    +0.000 C 
ATOM     17  O   UNL     1       9.137  13.322  21.371  0.00  0.00    +0.000 OA
ENDBRANCH   5  17
ENDBRANCH   1   7
BRANCH   2  18
ATOM     18  C   UNL     1       7.744   7.286  17.981  0.00  0.00    +0.000 C 
ATOM     19  O   UNL     1       8.170   6.690  18.959  0.00  0.00    +0.000 OA
ATOM     20  N   UNL     1       7.054   6.775  16.910  0.00  0.00    +0.000 N 
ATOM     21  H   UNL     1       6.757   7.454  16.212  0.00  0.00    +0.000 HD
BRANCH  20  22
ATOM     22  C   UNL     1       6.689   5.367  16.715  0.00  0.00    +0.000 C 
ATOM     23  C   UNL     1       6.857   4.983  15.229  0.00  0.00    +0.000 C 
ATOM     24  C   UNL     1       7.639   4.482  17.551  0.00  0.00    +0.000 C 
BRANCH  22  25
ATOM     25  C   UNL     1       5.207   5.190  17.129  0.00  0.00    +0.000 A 
ATOM     26  C   UNL     1       4.570   3.938  16.987  0.00  0.00    +0.000 A 
ATOM     27  C   UNL     1       3.226   3.759  17.335  0.00  0.00    +0.000 A 
ATOM     28  C   UNL     1       2.483   4.825  17.833  0.00  0.00    +0.000 A 
ATOM     29  C   UNL     1       3.086   6.068  17.986  0.00  0.00    +0.000 A 
ATOM     30  C   UNL     1       4.429   6.247  17.637  0.00  0.00    +0.000 A 
ENDBRANCH  22  25
ENDBRANCH  20  22
ENDBRANCH   2  18
TORSDOF 6
ENDMDL
MODEL 8
REMARK VINA RESULT:      -7.8      6.694      9.104
REMARK  Name = 
REMARK  9 active torsions:
REMARK  status: ('A' for Active; 'I' for Inactive)
REMARK    1  A    between atoms: C_1  and  O_2
REMARK    2  A    between atoms: O_2  and  C_3
REMARK    3  A    between atoms: C_5  and  N_6
REMARK    4  A    between atoms: C_7  and  C_9
REMARK    5  A    between atoms: N_11  and  C_12
REMARK    6  A    between atoms: C_12  and  C_13
REMARK    7  A    between atoms: C_12  and  C_14
REMARK    8  A    between atoms: C_12  and  C_15
REMARK    9  A    between atoms: C_23  and  C_24
REMARK                            x       y       z     vdW  Elec       q    Type
REMARK                         _______ _______ _______ _____ _____    ______ ____
ROOT
ATOM      1  N   UNL     1       1.387   8.366  20.041  0.00  0.00    +0.000 N 
ATOM      2  C   UNL     1       2.052   8.552  18.835  0.00  0.00    +0.000 C 
ATOM      3  O   UNL     1       2.190   9.574  18.179  0.00  0.00    +0.000 OA
ATOM      4  H   UNL     1       1.364   7.408  20.378  0.00  0.00    +0.000 HD
ENDROOT
BRANCH   1   7
ATOM      5  C   UNL     1      -0.840  11.276  20.783  0.00  0.00    +0.000 A 
ATOM      6  C   UNL     1      -0.012  10.376  20.096  0.00  0.00    +0.000 A 
ATOM      7  C   UNL     1       0.661   9.347  20.746  0.00  0.00    +0.000 A 
ATOM      8  C   UNL     1       0.587   9.279  22.134  0.00  0.00    +0.000 A 
ATOM      9  C   UNL     1      -0.192  10.204  22.843  0.00  0.00    +0.000 A 
ATOM     10  C   UNL     1      -0.934  11.207  22.184  0.00  0.00    +0.000 A 
BRANCH  10  11
ATOM     11  C   UNL     1      -1.788  12.110  22.956  0.00  0.00    +0.000 A 
ATOM     12  C   UNL     1      -1.736  13.422  23.384  0.00  0.00    +0.000 A 
ATOM     13  N   UNL     1      -2.876  13.755  24.076  0.00  0.00    +0.000 NA
ATOM     14  C   UNL     1      -3.577  12.645  24.048  0.00  0.00    +0.000 A 
ATOM     15  O   UNL     1      -2.993  11.607  23.394  0.00  0.00    +0.000 OA
ENDBRANCH  10  11
BRANCH   5  17
ATOM     16  C   UNL     1      -2.019  11.874  18.815  0.00  0.00    +0.000 C 
ATOM     17  O   UNL     1      -1.536  12.252  20.106  0.00  0.00    +0.000 OA
ENDBRANCH   5  17
ENDBRANCH   1   7
BRANCH   2  18
ATOM     18  C   UNL     1       2.664   7.263  18.266  0.00  0.00    +0.000 C 
ATOM     19  O   UNL     1       3.233   7.301  17.185  0.00  0.00    +0.000 OA
ATOM     20  N   UNL     1       2.496   6.184  19.099  0.00  0.00    +0.000 N 
ATOM     21  H   UNL     1       2.019   6.376  19.978  0.00  0.00    +0.000 HD
BRANCH  20  22
ATOM     22  C   UNL     1       2.971   4.819  18.845  0.00  0.00    +0.000 C 
ATOM     23  C   UNL     1       2.818   3.965  20.122  0.00  0.00    +0.000 C 
ATOM     24  C   UNL     1       2.103   4.184  17.736  0.00  0.00    +0.000 C 
BRANCH  22  25
ATOM     25  C   UNL     1       4.466   4.893  18.449  0.00  0.00    +0.000 A 
ATOM     26  C   UNL     1       4.896   4.418  17.191  0.00  0.00    +0.000 A 
ATOM     27  C   UNL     1       6.246   4.455  16.819  0.00  0.00    +0.000 A 
ATOM     28  C   UNL     1       7.199   4.966  17.693  0.00  0.00    +0.000 A 
ATOM     29  C   UNL     1       6.804   5.443  18.937  0.00  0.00    +0.000 A 
ATOM     30  C   UNL     1       5.455   5.405  19.309  0.00  0.00    +0.000 A 
ENDBRANCH  22  25
ENDBRANCH  20  22
ENDBRANCH   2  18
TORSDOF 6
ENDMDL
MODEL 9
REMARK VINA RESULT:      -7.7      0.883      1.127
REMARK  Name = 
REMARK  9 active torsions:
REMARK  status: ('A' for Active; 'I' for Inactive)
REMARK    1  A    between atoms: C_1  and  O_2
REMARK    2  A    between atoms: O_2  and  C_3
REMARK    3  A    between atoms: C_5  and  N_6
REMARK    4  A    between atoms: C_7  and  C_9
REMARK    5  A    between atoms: N_11  and  C_12
REMARK    6  A    between atoms: C_12  and  C_13
REMARK    7  A    between atoms: C_12  and  C_14
REMARK    8  A    between atoms: C_12  and  C_15
REMARK    9  A    between atoms: C_23  and  C_24
REMARK                            x       y       z     vdW  Elec       q    Type
REMARK                         _______ _______ _______ _____ _____    ______ ____
ROOT
ATOM      1  N   UNL     1       8.937   9.133  18.968  0.00  0.00    +0.000 N 
ATOM      2  C   UNL     1       8.032   8.746  17.988  0.00  0.00    +0.000 C 
ATOM      3  O   UNL     1       7.449   9.432  17.160  0.00  0.00    +0.000 OA
ATOM      4  H   UNL     1       9.260   8.387  19.577  0.00  0.00    +0.000 HD
ENDROOT
BRANCH   1   7
ATOM      5  C   UNL     1       9.367  12.838  18.707  0.00  0.00    +0.000 A 
ATOM      6  C   UNL     1       9.091  11.504  18.372  0.00  0.00    +0.000 A 
ATOM      7  C   UNL     1       9.335  10.455  19.252  0.00  0.00    +0.000 A 
ATOM      8  C   UNL     1       9.969  10.736  20.458  0.00  0.00    +0.000 A 
ATOM      9  C   UNL     1      10.303  12.057  20.787  0.00  0.00    +0.000 A 
ATOM     10  C   UNL     1       9.994  13.134  19.930  0.00  0.00    +0.000 A 
BRANCH  10  11
ATOM     11  C   UNL     1      10.299  14.505  20.340  0.00  0.00    +0.000 A 
ATOM     12  C   UNL     1      11.361  15.379  20.218  0.00  0.00    +0.000 A 
ATOM     13  N   UNL     1      11.065  16.590  20.795  0.00  0.00    +0.000 NA
ATOM     14  C   UNL     1       9.846  16.416  21.248  0.00  0.00    +0.000 A 
ATOM     15  O   UNL     1       9.311  15.188  21.015  0.00  0.00    +0.000 OA
ENDBRANCH  10  11
BRANCH   5  17
ATOM     16  C   UNL     1       7.688  14.246  17.801  0.00  0.00    +0.000 C 
ATOM     17  O   UNL     1       9.064  13.861  17.837  0.00  0.00    +0.000 OA
ENDBRANCH   5  17
ENDBRANCH   1   7
BRANCH   2  18
ATOM     18  C   UNL     1       7.728   7.239  17.993  0.00  0.00    +0.000 C 
ATOM     19  O   UNL     1       8.109   6.558  18.933  0.00  0.00    +0.000 OA
ATOM     20  N   UNL     1       7.017   6.839  16.888  0.00  0.00    +0.000 N 
ATOM     21  H   UNL     1       6.767   7.578  16.234  0.00  0.00    +0.000 HD
BRANCH  20  22
ATOM     22  C   UNL     1       6.568   5.471  16.603  0.00  0.00    +0.000 C 
ATOM     23  C   UNL     1       6.625   5.207  15.083  0.00  0.00    +0.000 C 
ATOM     24  C   UNL     1       7.521   4.476  17.301  0.00  0.00    +0.000 C 
BRANCH  22  25
ATOM     25  C   UNL     1       5.108   5.328  17.098  0.00  0.00    +0.000 A 
ATOM     26  C   UNL     1       4.433   4.094  16.984  0.00  0.00    +0.000 A 
ATOM     27  C   UNL     1       3.105   3.946  17.404  0.00  0.00    +0.000 A 
ATOM     28  C   UNL     1       2.418   5.026  17.948  0.00  0.00    +0.000 A 
ATOM     29  C   UNL     1       3.059   6.252  18.075  0.00  0.00    +0.000 A 
ATOM     30  C   UNL     1       4.386   6.400  17.654  0.00  0.00    +0.000 A 
ENDBRANCH  22  25
ENDBRANCH  20  22
ENDBRANCH   2  18
TORSDOF 6
ENDMDL
