MODEL 1
REMARK VINA RESULT:      -7.1      0.000      0.000
REMARK  Name = 
REMARK  6 active torsions:
REMARK  status: ('A' for Active; 'I' for Inactive)
REMARK    1  A    between atoms: C_2  and  C_3
REMARK    2  A    between atoms: C_3  and  O_4
REMARK    3  A    between atoms: O_4  and  C_5
REMARK    4  A    between atoms: C_5  and  C_7
REMARK    5  A    between atoms: N_14  and  C_15
REMARK    6  A    between atoms: C_15  and  C_16
REMARK                            x       y       z     vdW  Elec       q    Type
REMARK                         _______ _______ _______ _____ _____    ______ ____
ROOT
ATOM      1  O   UNL     1       6.585   7.620  16.726  0.00  0.00    +0.000 OA
ATOM      2  C   UNL     1       7.470   7.341  17.531  0.00  0.00    +0.000 C 
ATOM      3  N   UNL     1       8.289   8.282  18.118  0.00  0.00    +0.000 N 
ATOM      4  H   UNL     1       8.888   8.008  18.886  0.00  0.00    +0.000 HD
ENDROOT
BRANCH   2   5
ATOM      5  C   UNL     1       7.776   5.897  17.948  0.00  0.00    +0.000 C 
BRANCH   5   6
ATOM      6  O   UNL     1       6.655   5.020  17.819  0.00  0.00    +0.000 OA
BRANCH   6   7
ATOM      7  C   UNL     1       5.928   4.901  18.957  0.00  0.00    +0.000 C 
ATOM      8  O   UNL     1       6.318   5.184  20.080  0.00  0.00    +0.000 OA
BRANCH   7   9
ATOM      9  C   UNL     1       4.585   4.348  18.685  0.00  0.00    +0.000 A 
ATOM     10  C   UNL     1       4.233   4.115  17.360  0.00  0.00    +0.000 A 
ATOM     11  N   UNL     1       3.031   3.623  16.968  0.00  0.00    +0.000 NA
ATOM     12  C   UNL     1       2.140   3.350  17.949  0.00  0.00    +0.000 A 
ATOM     13  C   UNL     1       2.400   3.550  19.297  0.00  0.00    +0.000 A 
ATOM     14 BR   UNL     1       1.090   3.151  20.593  0.00  0.00    +0.000 Br
ATOM     15  C   UNL     1       3.642   4.056  19.677  0.00  0.00    +0.000 A 
ENDBRANCH   7   9
ENDBRANCH   6   7
ENDBRANCH   5   6
ENDBRANCH   2   5
BRANCH   3  16
ATOM     16  C   UNL     1       8.095   9.705  17.922  0.00  0.00    +0.000 C 
BRANCH  16  17
ATOM     17  C   UNL     1       9.202  10.492  18.580  0.00  0.00    +0.000 A 
ATOM     18  C   UNL     1       9.262  10.625  19.975  0.00  0.00    +0.000 A 
ATOM     19  C   UNL     1      10.276  11.377  20.571  0.00  0.00    +0.000 A 
ATOM     20  C   UNL     1      11.243  11.997  19.783  0.00  0.00    +0.000 A 
ATOM     21  C   UNL     1      11.204  11.859  18.397  0.00  0.00    +0.000 A 
ATOM     22  C   UNL     1      10.192  11.107  17.799  0.00  0.00    +0.000 A 
ENDBRANCH  16  17
ENDBRANCH   3  16
TORSDOF 6
ENDMDL
MODEL 2
REMARK VINA RESULT:      -6.9      4.914      8.018
REMARK  Name = 
REMARK  6 active torsions:
REMARK  status: ('A' for Active; 'I' for Inactive)
REMARK    1  A    between atoms: C_2  and  C_3
REMARK    2  A    between atoms: C_3  and  O_4
REMARK    3  A    between atoms: O_4  and  C_5
REMARK    4  A    between atoms: C_5  and  C_7
REMARK    5  A    between atoms: N_14  and  C_15
REMARK    6  A    between atoms: C_15  and  C_16
REMARK                            x       y       z     vdW  Elec       q    Type
REMARK                         _______ _______ _______ _____ _____    ______ ____
ROOT
ATOM      1  O   UNL     1       5.088   5.292  19.426  0.00  0.00    +0.000 OA
ATOM      2  C   UNL     1       4.647   6.026  18.545  0.00  0.00    +0.000 C 
ATOM      3  N   UNL     1       3.372   6.549  18.557  0.00  0.00    +0.000 N 
ATOM      4  H   UNL     1       3.126   7.268  17.889  0.00  0.00    +0.000 HD
ENDROOT
BRANCH   2   5
ATOM      5  C   UNL     1       5.474   6.416  17.312  0.00  0.00    +0.000 C 
BRANCH   5   6
ATOM      6  O   UNL     1       5.467   5.421  16.287  0.00  0.00    +0.000 OA
BRANCH   6   7
ATOM      7  C   UNL     1       6.701   4.938  15.996  0.00  0.00    +0.000 C 
ATOM      8  O   UNL     1       7.594   4.739  16.806  0.00  0.00    +0.000 OA
BRANCH   7   9
ATOM      9  C   UNL     1       6.860   4.703  14.546  0.00  0.00    +0.000 A 
ATOM     10  C   UNL     1       7.748   5.513  13.848  0.00  0.00    +0.000 A 
ATOM     11  N   UNL     1       7.980   5.415  12.514  0.00  0.00    +0.000 NA
ATOM     12  C   UNL     1       7.292   4.460  11.850  0.00  0.00    +0.000 A 
ATOM     13  C   UNL     1       6.384   3.605  12.459  0.00  0.00    +0.000 A 
ATOM     14 BR   UNL     1       5.462   2.310  11.446  0.00  0.00    +0.000 Br
ATOM     15  C   UNL     1       6.162   3.724  13.829  0.00  0.00    +0.000 A 
ENDBRANCH   7   9
ENDBRANCH   6   7
ENDBRANCH   5   6
ENDBRANCH   2   5
BRANCH   3  16
ATOM     16  C   UNL     1       2.474   6.371  19.680  0.00  0.00    +0.000 C 
BRANCH  16  17
ATOM     17  C   UNL     1       1.972   4.949  19.744  0.00  0.00    +0.000 A 
ATOM     18  C   UNL     1       1.660   4.242  18.573  0.00  0.00    +0.000 A 
ATOM     19  C   UNL     1       1.172   2.935  18.645  0.00  0.00    +0.000 A 
ATOM     20  C   UNL     1       0.996   2.321  19.883  0.00  0.00    +0.000 A 
ATOM     21  C   UNL     1       1.318   3.008  21.052  0.00  0.00    +0.000 A 
ATOM     22  C   UNL     1       1.807   4.313  20.983  0.00  0.00    +0.000 A 
ENDBRANCH  16  17
ENDBRANCH   3  16
TORSDOF 6
ENDMDL
MODEL 3
REMARK VINA RESULT:      -6.9      4.934      6.576
REMARK  Name = 
REMARK  6 active torsions:
REMARK  status: ('A' for Active; 'I' for Inactive)
REMARK    1  A    between atoms: C_2  and  C_3
REMARK    2  A    between atoms: C_3  and  O_4
REMARK    3  A    between atoms: O_4  and  C_5
REMARK    4  A    between atoms: C_5  and  C_7
REMARK    5  A    between atoms: N_14  and  C_15
REMARK    6  A    between atoms: C_15  and  C_16
REMARK                            x       y       z     vdW  Elec       q    Type
REMARK                         _______ _______ _______ _____ _____    ______ ____
ROOT
ATOM      1  O   UNL     1       0.414   4.325  20.467  0.00  0.00    +0.000 OA
ATOM      2  C   UNL     1       1.621   4.377  20.691  0.00  0.00    +0.000 C 
ATOM      3  N   UNL     1       2.294   5.548  20.968  0.00  0.00    +0.000 N 
ATOM      4  H   UNL     1       3.249   5.504  21.297  0.00  0.00    +0.000 HD
ENDROOT
BRANCH   2   5
ATOM      5  C   UNL     1       2.516   3.132  20.658  0.00  0.00    +0.000 C 
BRANCH   5   6
ATOM      6  O   UNL     1       3.085   2.875  19.373  0.00  0.00    +0.000 OA
BRANCH   6   7
ATOM      7  C   UNL     1       4.438   2.963  19.354  0.00  0.00    +0.000 C 
ATOM      8  O   UNL     1       5.197   2.377  20.111  0.00  0.00    +0.000 OA
BRANCH   7   9
ATOM      9  C   UNL     1       4.904   3.897  18.308  0.00  0.00    +0.000 A 
ATOM     10  C   UNL     1       4.416   3.724  17.017  0.00  0.00    +0.000 A 
ATOM     11  N   UNL     1       4.770   4.500  15.961  0.00  0.00    +0.000 NA
ATOM     12  C   UNL     1       5.650   5.496  16.210  0.00  0.00    +0.000 A 
ATOM     13  C   UNL     1       6.191   5.745  17.463  0.00  0.00    +0.000 A 
ATOM     14 BR   UNL     1       7.423   7.151  17.710  0.00  0.00    +0.000 Br
ATOM     15  C   UNL     1       5.814   4.936  18.533  0.00  0.00    +0.000 A 
ENDBRANCH   7   9
ENDBRANCH   6   7
ENDBRANCH   5   6
ENDBRANCH   2   5
BRANCH   3  16
ATOM     16  C   UNL     1       1.607   6.813  21.134  0.00  0.00    +0.000 C 
BRANCH  16  17
ATOM     17  C   UNL     1       1.791   7.686  19.917  0.00  0.00    +0.000 A 
ATOM     18  C   UNL     1       2.578   7.261  18.836  0.00  0.00    +0.000 A 
ATOM     19  C   UNL     1       2.762   8.087  17.726  0.00  0.00    +0.000 A 
ATOM     20  C   UNL     1       2.158   9.342  17.680  0.00  0.00    +0.000 A 
ATOM     21  C   UNL     1       1.361   9.769  18.740  0.00  0.00    +0.000 A 
ATOM     22  C   UNL     1       1.175   8.944  19.850  0.00  0.00    +0.000 A 
ENDBRANCH  16  17
ENDBRANCH   3  16
TORSDOF 6
ENDMDL
MODEL 4
REMARK VINA RESULT:      -6.8      5.036      6.768
REMARK  Name = 
REMARK  6 active torsions:
REMARK  status: ('A' for Active; 'I' for Inactive)
REMARK    1  A    between atoms: C_2  and  C_3
REMARK    2  A    between atoms: C_3  and  O_4
REMARK    3  A    between atoms: O_4  and  C_5
REMARK    4  A    between atoms: C_5  and  C_7
REMARK    5  A    between atoms: N_14  and  C_15
REMARK    6  A    between atoms: C_15  and  C_16
REMARK                            x       y       z     vdW  Elec       q    Type
REMARK                         _______ _______ _______ _____ _____    ______ ____
ROOT
ATOM      1  O   UNL     1       1.594   3.865  19.397  0.00  0.00    +0.000 OA
ATOM      2  C   UNL     1       2.310   4.458  18.594  0.00  0.00    +0.000 C 
ATOM      3  N   UNL     1       2.703   5.770  18.748  0.00  0.00    +0.000 N 
ATOM      4  H   UNL     1       3.416   6.148  18.138  0.00  0.00    +0.000 HD
ENDROOT
BRANCH   2   5
ATOM      5  C   UNL     1       2.824   3.796  17.308  0.00  0.00    +0.000 C 
BRANCH   5   6
ATOM      6  O   UNL     1       4.081   3.137  17.472  0.00  0.00    +0.000 OA
BRANCH   6   7
ATOM      7  C   UNL     1       5.121   3.992  17.631  0.00  0.00    +0.000 C 
ATOM      8  O   UNL     1       5.455   4.515  18.684  0.00  0.00    +0.000 OA
BRANCH   7   9
ATOM      9  C   UNL     1       5.807   4.253  16.348  0.00  0.00    +0.000 A 
ATOM     10  C   UNL     1       6.892   5.122  16.355  0.00  0.00    +0.000 A 
ATOM     11  N   UNL     1       7.603   5.459  15.249  0.00  0.00    +0.000 NA
ATOM     12  C   UNL     1       7.208   4.898  14.083  0.00  0.00    +0.000 A 
ATOM     13  C   UNL     1       6.138   4.022  13.977  0.00  0.00    +0.000 A 
ATOM     14 BR   UNL     1       5.655   3.299  12.304  0.00  0.00    +0.000 Br
ATOM     15  C   UNL     1       5.423   3.689  15.126  0.00  0.00    +0.000 A 
ENDBRANCH   7   9
ENDBRANCH   6   7
ENDBRANCH   5   6
ENDBRANCH   2   5
BRANCH   3  16
ATOM     16  C   UNL     1       2.396   6.533  19.941  0.00  0.00    +0.000 C 
BRANCH  16  17
ATOM     17  C   UNL     1       1.876   7.903  19.582  0.00  0.00    +0.000 A 
ATOM     18  C   UNL     1       1.231   8.703  20.537  0.00  0.00    +0.000 A 
ATOM     19  C   UNL     1       0.732   9.960  20.187  0.00  0.00    +0.000 A 
ATOM     20  C   UNL     1       0.875  10.431  18.883  0.00  0.00    +0.000 A 
ATOM     21  C   UNL     1       1.527   9.652  17.930  0.00  0.00    +0.000 A 
ATOM     22  C   UNL     1       2.029   8.398  18.278  0.00  0.00    +0.000 A 
ENDBRANCH  16  17
ENDBRANCH   3  16
TORSDOF 6
ENDMDL
MODEL 5
REMARK VINA RESULT:      -6.8      4.747      7.525
REMARK  Name = 
REMARK  6 active torsions:
REMARK  status: ('A' for Active; 'I' for Inactive)
REMARK    1  A    between atoms: C_2  and  C_3
REMARK    2  A    between atoms: C_3  and  O_4
REMARK    3  A    between atoms: O_4  and  C_5
REMARK    4  A    between atoms: C_5  and  C_7
REMARK    5  A    between atoms: N_14  and  C_15
REMARK    6  A    between atoms: C_15  and  C_16
REMARK                            x       y       z     vdW  Elec       q    Type
REMARK                         _______ _______ _______ _____ _____    ______ ____
ROOT
ATOM      1  O   UNL     1       6.471   4.145  18.405  0.00  0.00    +0.000 OA
ATOM      2  C   UNL     1       5.681   3.860  17.508  0.00  0.00    +0.000 C 
ATOM      3  N   UNL     1       4.718   2.881  17.625  0.00  0.00    +0.000 N 
ATOM      4  H   UNL     1       4.001   2.804  16.915  0.00  0.00    +0.000 HD
ENDROOT
BRANCH   2   5
ATOM      5  C   UNL     1       5.704   4.556  16.141  0.00  0.00    +0.000 C 
BRANCH   5   6
ATOM      6  O   UNL     1       4.762   5.625  16.032  0.00  0.00    +0.000 OA
BRANCH   6   7
ATOM      7  C   UNL     1       5.069   6.696  16.806  0.00  0.00    +0.000 C 
ATOM      8  O   UNL     1       6.129   7.302  16.791  0.00  0.00    +0.000 OA
BRANCH   7   9
ATOM      9  C   UNL     1       3.957   7.037  17.719  0.00  0.00    +0.000 A 
ATOM     10  C   UNL     1       3.722   6.197  18.801  0.00  0.00    +0.000 A 
ATOM     11  N   UNL     1       2.729   6.384  19.707  0.00  0.00    +0.000 NA
ATOM     12  C   UNL     1       1.937   7.465  19.521  0.00  0.00    +0.000 A 
ATOM     13  C   UNL     1       2.095   8.359  18.472  0.00  0.00    +0.000 A 
ATOM     14 BR   UNL     1       0.932   9.833  18.289  0.00  0.00    +0.000 Br
ATOM     15  C   UNL     1       3.121   8.147  17.553  0.00  0.00    +0.000 A 
ENDBRANCH   7   9
ENDBRANCH   6   7
ENDBRANCH   5   6
ENDBRANCH   2   5
BRANCH   3  16
ATOM     16  C   UNL     1       4.478   2.177  18.869  0.00  0.00    +0.000 C 
BRANCH  16  17
ATOM     17  C   UNL     1       3.158   2.591  19.472  0.00  0.00    +0.000 A 
ATOM     18  C   UNL     1       2.046   2.858  18.660  0.00  0.00    +0.000 A 
ATOM     19  C   UNL     1       0.836   3.265  19.227  0.00  0.00    +0.000 A 
ATOM     20  C   UNL     1       0.724   3.403  20.610  0.00  0.00    +0.000 A 
ATOM     21  C   UNL     1       1.817   3.126  21.428  0.00  0.00    +0.000 A 
ATOM     22  C   UNL     1       3.026   2.718  20.863  0.00  0.00    +0.000 A 
ENDBRANCH  16  17
ENDBRANCH   3  16
TORSDOF 6
ENDMDL
MODEL 6
REMARK VINA RESULT:      -6.8      4.457      6.087
REMARK  Name = 
REMARK  6 active torsions:
REMARK  status: ('A' for Active; 'I' for Inactive)
REMARK    1  A    between atoms: C_2  and  C_3
REMARK    2  A    between atoms: C_3  and  O_4
REMARK    3  A    between atoms: O_4  and  C_5
REMARK    4  A    between atoms: C_5  and  C_7
REMARK    5  A    between atoms: N_14  and  C_15
REMARK    6  A    between atoms: C_15  and  C_16
REMARK                            x       y       z     vdW  Elec       q    Type
REMARK                         _______ _______ _______ _____ _____    ______ ____
ROOT
ATOM      1  O   UNL     1       6.226   5.877  18.044  0.00  0.00    +0.000 OA
ATOM      2  C   UNL     1       5.291   6.147  17.294  0.00  0.00    +0.000 C 
ATOM      3  N   UNL     1       4.984   5.415  16.167  0.00  0.00    +0.000 N 
ATOM      4  H   UNL     1       4.114   5.593  15.683  0.00  0.00    +0.000 HD
ENDROOT
BRANCH   2   5
ATOM      5  C   UNL     1       4.378   7.358  17.524  0.00  0.00    +0.000 C 
BRANCH   5   6
ATOM      6  O   UNL     1       2.987   7.033  17.491  0.00  0.00    +0.000 OA
BRANCH   6   7
ATOM      7  C   UNL     1       2.456   6.811  18.719  0.00  0.00    +0.000 C 
ATOM      8  O   UNL     1       2.309   7.654  19.591  0.00  0.00    +0.000 OA
BRANCH   7   9
ATOM      9  C   UNL     1       2.094   5.390  18.902  0.00  0.00    +0.000 A 
ATOM     10  C   UNL     1       1.765   4.651  17.771  0.00  0.00    +0.000 A 
ATOM     11  N   UNL     1       1.402   3.344  17.796  0.00  0.00    +0.000 NA
ATOM     12  C   UNL     1       1.369   2.748  19.010  0.00  0.00    +0.000 A 
ATOM     13  C   UNL     1       1.681   3.403  20.193  0.00  0.00    +0.000 A 
ATOM     14 BR   UNL     1       1.595   2.491  21.841  0.00  0.00    +0.000 Br
ATOM     15  C   UNL     1       2.051   4.745  20.144  0.00  0.00    +0.000 A 
ENDBRANCH   7   9
ENDBRANCH   6   7
ENDBRANCH   5   6
ENDBRANCH   2   5
BRANCH   3  16
ATOM     16  C   UNL     1       5.673   4.184  15.833  0.00  0.00    +0.000 C 
BRANCH  16  17
ATOM     17  C   UNL     1       6.216   4.239  14.426  0.00  0.00    +0.000 A 
ATOM     18  C   UNL     1       5.663   3.448  13.408  0.00  0.00    +0.000 A 
ATOM     19  C   UNL     1       6.189   3.488  12.116  0.00  0.00    +0.000 A 
ATOM     20  C   UNL     1       7.268   4.320  11.825  0.00  0.00    +0.000 A 
ATOM     21  C   UNL     1       7.816   5.123  12.824  0.00  0.00    +0.000 A 
ATOM     22  C   UNL     1       7.290   5.086  14.116  0.00  0.00    +0.000 A 
ENDBRANCH  16  17
ENDBRANCH   3  16
TORSDOF 6
ENDMDL
MODEL 7
REMARK VINA RESULT:      -6.7      4.929      6.744
REMARK  Name = 
REMARK  6 active torsions:
REMARK  status: ('A' for Active; 'I' for Inactive)
REMARK    1  A    between atoms: C_2  and  C_3
REMARK    2  A    between atoms: C_3  and  O_4
REMARK    3  A    between atoms: O_4  and  C_5
REMARK    4  A    between atoms: C_5  and  C_7
REMARK    5  A    between atoms: N_14  and  C_15
REMARK    6  A    between atoms: C_15  and  C_16
REMARK                            x       y       z     vdW  Elec       q    Type
REMARK                         _______ _______ _______ _____ _____    ______ ____
ROOT
ATOM      1  O   UNL     1       2.152   2.813  20.766  0.00  0.00    +0.000 OA
ATOM      2  C   UNL     1       3.060   3.411  20.195  0.00  0.00    +0.000 C 
ATOM      3  N   UNL     1       3.115   4.784  20.084  0.00  0.00    +0.000 N 
ATOM      4  H   UNL     1       3.962   5.220  19.744  0.00  0.00    +0.000 HD
ENDROOT
BRANCH   2   5
ATOM      5  C   UNL     1       4.226   2.680  19.516  0.00  0.00    +0.000 C 
BRANCH   5   6
ATOM      6  O   UNL     1       3.976   2.365  18.145  0.00  0.00    +0.000 OA
BRANCH   6   7
ATOM      7  C   UNL     1       3.655   3.446  17.392  0.00  0.00    +0.000 C 
ATOM      8  O   UNL     1       2.521   3.830  17.150  0.00  0.00    +0.000 OA
BRANCH   7   9
ATOM      9  C   UNL     1       4.863   4.108  16.857  0.00  0.00    +0.000 A 
ATOM     10  C   UNL     1       5.470   3.548  15.738  0.00  0.00    +0.000 A 
ATOM     11  N   UNL     1       6.590   4.044  15.153  0.00  0.00    +0.000 NA
ATOM     12  C   UNL     1       7.124   5.153  15.712  0.00  0.00    +0.000 A 
ATOM     13  C   UNL     1       6.589   5.782  16.828  0.00  0.00    +0.000 A 
ATOM     14 BR   UNL     1       7.412   7.320  17.544  0.00  0.00    +0.000 Br
ATOM     15  C   UNL     1       5.440   5.255  17.413  0.00  0.00    +0.000 A 
ENDBRANCH   7   9
ENDBRANCH   6   7
ENDBRANCH   5   6
ENDBRANCH   2   5
BRANCH   3  16
ATOM     16  C   UNL     1       2.156   5.651  20.739  0.00  0.00    +0.000 C 
BRANCH  16  17
ATOM     17  C   UNL     1       1.968   6.928  19.957  0.00  0.00    +0.000 A 
ATOM     18  C   UNL     1       2.408   7.033  18.629  0.00  0.00    +0.000 A 
ATOM     19  C   UNL     1       2.252   8.228  17.924  0.00  0.00    +0.000 A 
ATOM     20  C   UNL     1       1.650   9.327  18.534  0.00  0.00    +0.000 A 
ATOM     21  C   UNL     1       1.195   9.231  19.847  0.00  0.00    +0.000 A 
ATOM     22  C   UNL     1       1.349   8.037  20.553  0.00  0.00    +0.000 A 
ENDBRANCH  16  17
ENDBRANCH   3  16
TORSDOF 6
ENDMDL
MODEL 8
REMARK VINA RESULT:      -6.7      4.331      6.904
REMARK  Name = 
REMARK  6 active torsions:
REMARK  status: ('A' for Active; 'I' for Inactive)
REMARK    1  A    between atoms: C_2  and  C_3
REMARK    2  A    between atoms: C_3  and  O_4
REMARK    3  A    between atoms: O_4  and  C_5
REMARK    4  A    between atoms: C_5  and  C_7
REMARK    5  A    between atoms: N_14  and  C_15
REMARK    6  A    between atoms: C_15  and  C_16
REMARK                            x       y       z     vdW  Elec       q    Type
REMARK                         _______ _______ _______ _____ _____    ______ ____
ROOT
ATOM      1  O   UNL     1       5.515   5.864  15.029  0.00  0.00    +0.000 OA
ATOM      2  C   UNL     1       6.580   5.334  15.338  0.00  0.00    +0.000 C 
ATOM      3  N   UNL     1       7.501   4.882  14.418  0.00  0.00    +0.000 N 
ATOM      4  H   UNL     1       8.420   4.602  14.734  0.00  0.00    +0.000 HD
ENDROOT
BRANCH   2   5
ATOM      5  C   UNL     1       6.983   5.094  16.799  0.00  0.00    +0.000 C 
BRANCH   5   6
ATOM      6  O   UNL     1       6.359   5.996  17.715  0.00  0.00    +0.000 OA
BRANCH   6   7
ATOM      7  C   UNL     1       6.003   5.414  18.887  0.00  0.00    +0.000 C 
ATOM      8  O   UNL     1       6.764   5.143  19.804  0.00  0.00    +0.000 OA
BRANCH   7   9
ATOM      9  C   UNL     1       4.558   5.108  18.920  0.00  0.00    +0.000 A 
ATOM     10  C   UNL     1       3.725   5.805  18.052  0.00  0.00    +0.000 A 
ATOM     11  N   UNL     1       2.380   5.633  17.986  0.00  0.00    +0.000 NA
ATOM     12  C   UNL     1       1.846   4.719  18.828  0.00  0.00    +0.000 A 
ATOM     13  C   UNL     1       2.596   3.977  19.729  0.00  0.00    +0.000 A 
ATOM     14 BR   UNL     1       1.759   2.732  20.873  0.00  0.00    +0.000 Br
ATOM     15  C   UNL     1       3.975   4.170  19.779  0.00  0.00    +0.000 A 
ENDBRANCH   7   9
ENDBRANCH   6   7
ENDBRANCH   5   6
ENDBRANCH   2   5
BRANCH   3  16
ATOM     16  C   UNL     1       7.342   5.101  12.994  0.00  0.00    +0.000 C 
BRANCH  16  17
ATOM     17  C   UNL     1       6.802   3.865  12.319  0.00  0.00    +0.000 A 
ATOM     18  C   UNL     1       5.422   3.615  12.268  0.00  0.00    +0.000 A 
ATOM     19  C   UNL     1       4.935   2.454  11.663  0.00  0.00    +0.000 A 
ATOM     20  C   UNL     1       5.818   1.536  11.098  0.00  0.00    +0.000 A 
ATOM     21  C   UNL     1       7.189   1.781  11.128  0.00  0.00    +0.000 A 
ATOM     22  C   UNL     1       7.678   2.940  11.731  0.00  0.00    +0.000 A 
ENDBRANCH  16  17
ENDBRANCH   3  16
TORSDOF 6
ENDMDL
MODEL 9
REMARK VINA RESULT:      -6.7      5.641      7.415
REMARK  Name = 
REMARK  6 active torsions:
REMARK  status: ('A' for Active; 'I' for Inactive)
REMARK    1  A    between atoms: C_2  and  C_3
REMARK    2  A    between atoms: C_3  and  O_4
REMARK    3  A    between atoms: O_4  and  C_5
REMARK    4  A    between atoms: C_5  and  C_7
REMARK    5  A    between atoms: N_14  and  C_15
REMARK    6  A    between atoms: C_15  and  C_16
REMARK                            x       y       z     vdW  Elec       q    Type
REMARK                         _______ _______ _______ _____ _____    ______ ____
ROOT
ATOM      1  O   UNL     1       2.281   8.932  17.304  0.00  0.00    +0.000 OA
ATOM      2  C   UNL     1       2.204   8.326  18.369  0.00  0.00    +0.000 C 
ATOM      3  N   UNL     1       1.427   8.744  19.428  0.00  0.00    +0.000 N 
ATOM      4  H   UNL     1       1.284   8.122  20.213  0.00  0.00    +0.000 HD
ENDROOT
BRANCH   2   5
ATOM      5  C   UNL     1       2.998   7.042  18.643  0.00  0.00    +0.000 C 
BRANCH   5   6
ATOM      6  O   UNL     1       2.475   5.897  17.966  0.00  0.00    +0.000 OA
BRANCH   6   7
ATOM      7  C   UNL     1       3.069   4.735  18.335  0.00  0.00    +0.000 C 
ATOM      8  O   UNL     1       2.561   3.868  19.029  0.00  0.00    +0.000 OA
BRANCH   7   9
ATOM      9  C   UNL     1       4.449   4.646  17.814  0.00  0.00    +0.000 A 
ATOM     10  C   UNL     1       5.491   4.612  18.734  0.00  0.00    +0.000 A 
ATOM     11  N   UNL     1       6.804   4.544  18.394  0.00  0.00    +0.000 NA
ATOM     12  C   UNL     1       7.084   4.507  17.071  0.00  0.00    +0.000 A 
ATOM     13  C   UNL     1       6.113   4.538  16.081  0.00  0.00    +0.000 A 
ATOM     14 BR   UNL     1       6.603   4.494  14.260  0.00  0.00    +0.000 Br
ATOM     15  C   UNL     1       4.772   4.607  16.453  0.00  0.00    +0.000 A 
ENDBRANCH   7   9
ENDBRANCH   6   7
ENDBRANCH   5   6
ENDBRANCH   2   5
BRANCH   3  16
ATOM     16  C   UNL     1       0.534   9.881  19.330  0.00  0.00    +0.000 C 
BRANCH  16  17
ATOM     17  C   UNL     1      -0.050  10.222  20.679  0.00  0.00    +0.000 A 
ATOM     18  C   UNL     1       0.109   9.358  21.773  0.00  0.00    +0.000 A 
ATOM     19  C   UNL     1      -0.458   9.670  23.010  0.00  0.00    +0.000 A 
ATOM     20  C   UNL     1      -1.184  10.849  23.169  0.00  0.00    +0.000 A 
ATOM     21  C   UNL     1      -1.335  11.723  22.095  0.00  0.00    +0.000 A 
ATOM     22  C   UNL     1      -0.768  11.413  20.858  0.00  0.00    +0.000 A 
ENDBRANCH  16  17
ENDBRANCH   3  16
TORSDOF 6
ENDMDL
