MODEL 1
REMARK VINA RESULT:      -7.4      0.000      0.000
REMARK  Name = 
REMARK  5 active torsions:
REMARK  status: ('A' for Active; 'I' for Inactive)
REMARK    1  A    between atoms: N_3  and  C_4
REMARK    2  A    between atoms: N_15  and  C_16
REMARK    3  A    between atoms: C_16  and  C_17
REMARK    4  A    between atoms: C_21  and  O_22
REMARK    5  A    between atoms: O_22  and  C_23
REMARK                            x       y       z     vdW  Elec       q    Type
REMARK                         _______ _______ _______ _____ _____    ______ ____
ROOT
ATOM      1  O   UNL     1       0.050  12.992  20.375  0.00  0.00    +0.000 OA
ATOM      2  C   UNL     1      -0.590  12.002  20.037  0.00  0.00    +0.000 C 
ATOM      3  N   UNL     1      -1.894  11.738  20.389  0.00  0.00    +0.000 N 
ATOM      4  N   UNL     1      -0.020  11.019  19.258  0.00  0.00    +0.000 N 
ATOM      5  C   UNL     1       1.429  10.884  19.009  0.00  0.00    +0.000 C 
ATOM      6  C   UNL     1       1.249   9.454  19.395  0.00  0.00    +0.000 C 
ATOM      7  C   UNL     1       1.940   8.348  18.656  0.00  0.00    +0.000 C 
ATOM      8  N   UNL     1       2.166   7.663  19.967  0.00  0.00    +0.000 NA
ATOM      9  C   UNL     1       1.868   8.947  20.673  0.00  0.00    +0.000 C 
ATOM     10  C   UNL     1      -0.245   9.573  19.317  0.00  0.00    +0.000 C 
ATOM     11  H   UNL     1      -2.302  10.880  20.043  0.00  0.00    +0.000 HD
ENDROOT
BRANCH   3  12
ATOM     12  C   UNL     1      -2.715  12.518  21.236  0.00  0.00    +0.000 A 
ATOM     13  C   UNL     1      -3.574  13.513  20.787  0.00  0.00    +0.000 A 
ATOM     14  N   UNL     1      -4.347  14.279  21.594  0.00  0.00    +0.000 NA
ATOM     15  C   UNL     1      -4.263  14.060  22.919  0.00  0.00    +0.000 A 
ATOM     16  C   UNL     1      -3.452  13.092  23.480  0.00  0.00    +0.000 A 
ATOM     17  C   UNL     1      -2.679  12.314  22.620  0.00  0.00    +0.000 A 
ATOM     18 CL   UNL     1      -1.647  11.111  23.321  0.00  0.00    +0.000 Cl
ENDBRANCH   3  12
BRANCH   8  19
ATOM     19  C   UNL     1       1.099   6.672  20.197  0.00  0.00    +0.000 C 
BRANCH  19  20
ATOM     20  C   UNL     1       1.466   5.239  19.876  0.00  0.00    +0.000 A 
ATOM     21  C   UNL     1       0.963   4.150  20.595  0.00  0.00    +0.000 A 
ATOM     22  C   UNL     1       1.459   2.861  20.373  0.00  0.00    +0.000 A 
ATOM     23  C   UNL     1       2.505   2.656  19.471  0.00  0.00    +0.000 A 
ATOM     24  C   UNL     1       3.040   3.737  18.775  0.00  0.00    +0.000 A 
ATOM     25  C   UNL     1       2.470   5.006  18.922  0.00  0.00    +0.000 A 
BRANCH  24  26
ATOM     26  O   UNL     1       4.133   3.488  17.969  0.00  0.00    +0.000 OA
BRANCH  26  27
ATOM     27  C   UNL     1       5.097   4.471  17.855  0.00  0.00    +0.000 A 
ATOM     28  C   UNL     1       6.102   4.684  18.806  0.00  0.00    +0.000 A 
ATOM     29  C   UNL     1       6.965   5.774  18.683  0.00  0.00    +0.000 A 
ATOM     30  C   UNL     1       6.872   6.604  17.570  0.00  0.00    +0.000 A 
ATOM     31 CL   UNL     1       7.912   7.968  17.438  0.00  0.00    +0.000 Cl
ATOM     32  C   UNL     1       5.937   6.340  16.569  0.00  0.00    +0.000 A 
ATOM     33  C   UNL     1       5.047   5.271  16.712  0.00  0.00    +0.000 A 
ENDBRANCH  26  27
ENDBRANCH  24  26
ENDBRANCH  19  20
ENDBRANCH   8  19
TORSDOF 5
ENDMDL
MODEL 2
REMARK VINA RESULT:      -7.4      1.183      1.326
REMARK  Name = 
REMARK  5 active torsions:
REMARK  status: ('A' for Active; 'I' for Inactive)
REMARK    1  A    between atoms: N_3  and  C_4
REMARK    2  A    between atoms: N_15  and  C_16
REMARK    3  A    between atoms: C_16  and  C_17
REMARK    4  A    between atoms: C_21  and  O_22
REMARK    5  A    between atoms: O_22  and  C_23
REMARK                            x       y       z     vdW  Elec       q    Type
REMARK                         _______ _______ _______ _____ _____    ______ ____
ROOT
ATOM      1  O   UNL     1      -0.245  13.255  20.041  0.00  0.00    +0.000 OA
ATOM      2  C   UNL     1      -0.834  12.194  19.862  0.00  0.00    +0.000 C 
ATOM      3  N   UNL     1      -2.063  11.867  20.389  0.00  0.00    +0.000 N 
ATOM      4  N   UNL     1      -0.277  11.191  19.100  0.00  0.00    +0.000 N 
ATOM      5  C   UNL     1       1.140  11.142  18.689  0.00  0.00    +0.000 C 
ATOM      6  C   UNL     1       1.125   9.742  19.205  0.00  0.00    +0.000 C 
ATOM      7  C   UNL     1       1.817   8.628  18.478  0.00  0.00    +0.000 C 
ATOM      8  N   UNL     1       2.247   8.080  19.802  0.00  0.00    +0.000 NA
ATOM      9  C   UNL     1       1.927   9.396  20.435  0.00  0.00    +0.000 C 
ATOM     10  C   UNL     1      -0.373   9.743  19.299  0.00  0.00    +0.000 C 
ATOM     11  H   UNL     1      -2.435  10.955  20.164  0.00  0.00    +0.000 HD
ENDROOT
BRANCH   3  12
ATOM     12  C   UNL     1      -2.843  12.657  21.265  0.00  0.00    +0.000 A 
ATOM     13  C   UNL     1      -3.692  13.675  20.848  0.00  0.00    +0.000 A 
ATOM     14  N   UNL     1      -4.426  14.450  21.682  0.00  0.00    +0.000 NA
ATOM     15  C   UNL     1      -4.312  14.215  23.003  0.00  0.00    +0.000 A 
ATOM     16  C   UNL     1      -3.509  13.224  23.533  0.00  0.00    +0.000 A 
ATOM     17  C   UNL     1      -2.777  12.437  22.646  0.00  0.00    +0.000 A 
ATOM     18 CL   UNL     1      -1.755  11.204  23.308  0.00  0.00    +0.000 Cl
ENDBRANCH   3  12
BRANCH   8  19
ATOM     19  C   UNL     1       1.301   7.038  20.237  0.00  0.00    +0.000 C 
BRANCH  19  20
ATOM     20  C   UNL     1       1.801   5.615  20.112  0.00  0.00    +0.000 A 
ATOM     21  C   UNL     1       1.049   4.510  20.526  0.00  0.00    +0.000 A 
ATOM     22  C   UNL     1       1.618   3.232  20.549  0.00  0.00    +0.000 A 
ATOM     23  C   UNL     1       2.962   3.054  20.215  0.00  0.00    +0.000 A 
ATOM     24  C   UNL     1       3.732   4.151  19.836  0.00  0.00    +0.000 A 
ATOM     25  C   UNL     1       3.132   5.409  19.713  0.00  0.00    +0.000 A 
BRANCH  24  26
ATOM     26  O   UNL     1       5.075   3.930  19.608  0.00  0.00    +0.000 OA
BRANCH  26  27
ATOM     27  C   UNL     1       5.559   4.112  18.327  0.00  0.00    +0.000 A 
ATOM     28  C   UNL     1       6.807   4.679  18.044  0.00  0.00    +0.000 A 
ATOM     29  C   UNL     1       7.175   4.944  16.724  0.00  0.00    +0.000 A 
ATOM     30  C   UNL     1       6.326   4.572  15.685  0.00  0.00    +0.000 A 
ATOM     31 CL   UNL     1       6.763   4.932  14.060  0.00  0.00    +0.000 Cl
ATOM     32  C   UNL     1       5.124   3.918  15.955  0.00  0.00    +0.000 A 
ATOM     33  C   UNL     1       4.739   3.688  17.280  0.00  0.00    +0.000 A 
ENDBRANCH  26  27
ENDBRANCH  24  26
ENDBRANCH  19  20
ENDBRANCH   8  19
TORSDOF 5
ENDMDL
MODEL 3
REMARK VINA RESULT:      -7.4      6.064      9.584
REMARK  Name = 
REMARK  5 active torsions:
REMARK  status: ('A' for Active; 'I' for Inactive)
REMARK    1  A    between atoms: N_3  and  C_4
REMARK    2  A    between atoms: N_15  and  C_16
REMARK    3  A    between atoms: C_16  and  C_17
REMARK    4  A    between atoms: C_21  and  O_22
REMARK    5  A    between atoms: O_22  and  C_23
REMARK                            x       y       z     vdW  Elec       q    Type
REMARK                         _______ _______ _______ _____ _____    ______ ____
ROOT
ATOM      1  O   UNL     1      -6.370  10.617  19.193  0.00  0.00    +0.000 OA
ATOM      2  C   UNL     1      -6.088  11.807  19.104  0.00  0.00    +0.000 C 
ATOM      3  N   UNL     1      -5.113  12.337  18.291  0.00  0.00    +0.000 N 
ATOM      4  N   UNL     1      -6.746  12.752  19.862  0.00  0.00    +0.000 N 
ATOM      5  C   UNL     1      -7.595  12.444  21.029  0.00  0.00    +0.000 C 
ATOM      6  C   UNL     1      -6.801  13.487  21.742  0.00  0.00    +0.000 C 
ATOM      7  C   UNL     1      -7.448  14.468  22.673  0.00  0.00    +0.000 C 
ATOM      8  N   UNL     1      -6.263  14.333  23.578  0.00  0.00    +0.000 NA
ATOM      9  C   UNL     1      -5.876  13.080  22.861  0.00  0.00    +0.000 C 
ATOM     10  C   UNL     1      -6.201  13.976  20.455  0.00  0.00    +0.000 C 
ATOM     11  H   UNL     1      -4.983  13.339  18.316  0.00  0.00    +0.000 HD
ENDROOT
BRANCH   3  12
ATOM     12  C   UNL     1      -4.226  11.617  17.456  0.00  0.00    +0.000 A 
ATOM     13  C   UNL     1      -4.545  11.180  16.176  0.00  0.00    +0.000 A 
ATOM     14  N   UNL     1      -3.709  10.470  15.380  0.00  0.00    +0.000 NA
ATOM     15  C   UNL     1      -2.494  10.167  15.874  0.00  0.00    +0.000 A 
ATOM     16  C   UNL     1      -2.064  10.556  17.128  0.00  0.00    +0.000 A 
ATOM     17  C   UNL     1      -2.944  11.295  17.916  0.00  0.00    +0.000 A 
ATOM     18 CL   UNL     1      -2.415  11.771  19.496  0.00  0.00    +0.000 Cl
ENDBRANCH   3  12
BRANCH   8  19
ATOM     19  C   UNL     1      -5.305  15.418  23.303  0.00  0.00    +0.000 C 
BRANCH  19  20
ATOM     20  C   UNL     1      -3.912  15.208  23.857  0.00  0.00    +0.000 A 
ATOM     21  C   UNL     1      -3.517  15.684  25.112  0.00  0.00    +0.000 A 
ATOM     22  C   UNL     1      -2.177  15.616  25.509  0.00  0.00    +0.000 A 
ATOM     23  C   UNL     1      -1.208  15.124  24.631  0.00  0.00    +0.000 A 
ATOM     24  C   UNL     1      -1.582  14.680  23.365  0.00  0.00    +0.000 A 
ATOM     25  C   UNL     1      -2.936  14.653  23.013  0.00  0.00    +0.000 A 
BRANCH  24  26
ATOM     26  O   UNL     1      -0.571  14.293  22.509  0.00  0.00    +0.000 OA
BRANCH  26  27
ATOM     27  C   UNL     1      -0.409  12.945  22.256  0.00  0.00    +0.000 A 
ATOM     28  C   UNL     1      -1.107  11.940  22.936  0.00  0.00    +0.000 A 
ATOM     29  C   UNL     1      -0.801  10.597  22.711  0.00  0.00    +0.000 A 
ATOM     30  C   UNL     1       0.150  10.259  21.752  0.00  0.00    +0.000 A 
ATOM     31 CL   UNL     1       0.554   8.605  21.502  0.00  0.00    +0.000 Cl
ATOM     32  C   UNL     1       0.780  11.252  21.002  0.00  0.00    +0.000 A 
ATOM     33  C   UNL     1       0.500  12.598  21.255  0.00  0.00    +0.000 A 
ENDBRANCH  26  27
ENDBRANCH  24  26
ENDBRANCH  19  20
ENDBRANCH   8  19
TORSDOF 5
ENDMDL
MODEL 4
REMARK VINA RESULT:      -7.3      2.103      2.515
REMARK  Name = 
REMARK  5 active torsions:
REMARK  status: ('A' for Active; 'I' for Inactive)
REMARK    1  A    between atoms: N_3  and  C_4
REMARK    2  A    between atoms: N_15  and  C_16
REMARK    3  A    between atoms: C_16  and  C_17
REMARK    4  A    between atoms: C_21  and  O_22
REMARK    5  A    between atoms: O_22  and  C_23
REMARK                            x       y       z     vdW  Elec       q    Type
REMARK                         _______ _______ _______ _____ _____    ______ ____
ROOT
ATOM      1  O   UNL     1      -1.400  13.600  19.820  0.00  0.00    +0.000 OA
ATOM      2  C   UNL     1      -1.604  12.491  20.300  0.00  0.00    +0.000 C 
ATOM      3  N   UNL     1      -2.045  12.245  21.581  0.00  0.00    +0.000 N 
ATOM      4  N   UNL     1      -1.379  11.346  19.567  0.00  0.00    +0.000 N 
ATOM      5  C   UNL     1      -0.615  11.298  18.305  0.00  0.00    +0.000 C 
ATOM      6  C   UNL     1       0.133  10.168  18.930  0.00  0.00    +0.000 C 
ATOM      7  C   UNL     1       0.510   8.947  18.147  0.00  0.00    +0.000 C 
ATOM      8  N   UNL     1       1.821   8.934  18.868  0.00  0.00    +0.000 NA
ATOM      9  C   UNL     1       1.586  10.350  19.290  0.00  0.00    +0.000 C 
ATOM     10  C   UNL     1      -0.874  10.054  20.038  0.00  0.00    +0.000 C 
ATOM     11  H   UNL     1      -2.170  11.279  21.850  0.00  0.00    +0.000 HD
ENDROOT
BRANCH   3  12
ATOM     12  C   UNL     1      -2.291  13.208  22.588  0.00  0.00    +0.000 A 
ATOM     13  C   UNL     1      -1.306  13.753  23.401  0.00  0.00    +0.000 A 
ATOM     14  N   UNL     1      -1.537  14.659  24.382  0.00  0.00    +0.000 NA
ATOM     15  C   UNL     1      -2.812  15.044  24.579  0.00  0.00    +0.000 A 
ATOM     16  C   UNL     1      -3.872  14.578  23.825  0.00  0.00    +0.000 A 
ATOM     17  C   UNL     1      -3.597  13.657  22.817  0.00  0.00    +0.000 A 
ATOM     18 CL   UNL     1      -4.927  13.056  21.881  0.00  0.00    +0.000 Cl
ENDBRANCH   3  12
BRANCH   8  19
ATOM     19  C   UNL     1       1.744   8.019  20.020  0.00  0.00    +0.000 C 
BRANCH  19  20
ATOM     20  C   UNL     1       2.348   6.648  19.800  0.00  0.00    +0.000 A 
ATOM     21  C   UNL     1       1.818   5.487  20.373  0.00  0.00    +0.000 A 
ATOM     22  C   UNL     1       2.505   4.272  20.282  0.00  0.00    +0.000 A 
ATOM     23  C   UNL     1       3.758   4.217  19.667  0.00  0.00    +0.000 A 
ATOM     24  C   UNL     1       4.313   5.373  19.124  0.00  0.00    +0.000 A 
ATOM     25  C   UNL     1       3.576   6.562  19.125  0.00  0.00    +0.000 A 
BRANCH  24  26
ATOM     26  O   UNL     1       5.592   5.277  18.614  0.00  0.00    +0.000 OA
BRANCH  26  27
ATOM     27  C   UNL     1       5.739   5.005  17.267  0.00  0.00    +0.000 A 
ATOM     28  C   UNL     1       4.686   4.602  16.439  0.00  0.00    +0.000 A 
ATOM     29  C   UNL     1       4.936   4.226  15.118  0.00  0.00    +0.000 A 
ATOM     30  C   UNL     1       6.226   4.326  14.606  0.00  0.00    +0.000 A 
ATOM     31 CL   UNL     1       6.540   3.827  12.989  0.00  0.00    +0.000 Cl
ATOM     32  C   UNL     1       7.264   4.819  15.397  0.00  0.00    +0.000 A 
ATOM     33  C   UNL     1       7.019   5.159  16.732  0.00  0.00    +0.000 A 
ENDBRANCH  26  27
ENDBRANCH  24  26
ENDBRANCH  19  20
ENDBRANCH   8  19
TORSDOF 5
ENDMDL
MODEL 5
REMARK VINA RESULT:      -7.3      1.098      1.258
REMARK  Name = 
REMARK  5 active torsions:
REMARK  status: ('A' for Active; 'I' for Inactive)
REMARK    1  A    between atoms: N_3  and  C_4
REMARK    2  A    between atoms: N_15  and  C_16
REMARK    3  A    between atoms: C_16  and  C_17
REMARK    4  A    between atoms: C_21  and  O_22
REMARK    5  A    between atoms: O_22  and  C_23
REMARK                            x       y       z     vdW  Elec       q    Type
REMARK                         _______ _______ _______ _____ _____    ______ ____
ROOT
ATOM      1  O   UNL     1      -0.185  13.049  20.761  0.00  0.00    +0.000 OA
ATOM      2  C   UNL     1      -0.816  12.035  20.483  0.00  0.00    +0.000 C 
ATOM      3  N   UNL     1      -2.068  11.719  20.959  0.00  0.00    +0.000 N 
ATOM      4  N   UNL     1      -0.286  11.075  19.649  0.00  0.00    +0.000 N 
ATOM      5  C   UNL     1       1.135  10.997  19.260  0.00  0.00    +0.000 C 
ATOM      6  C   UNL     1       1.050   9.561  19.656  0.00  0.00    +0.000 C 
ATOM      7  C   UNL     1       1.709   8.483  18.849  0.00  0.00    +0.000 C 
ATOM      8  N   UNL     1       2.087   7.806  20.129  0.00  0.00    +0.000 NA
ATOM      9  C   UNL     1       1.809   9.078  20.866  0.00  0.00    +0.000 C 
ATOM     10  C   UNL     1      -0.449   9.621  19.723  0.00  0.00    +0.000 C 
ATOM     11  H   UNL     1      -2.474  10.847  20.650  0.00  0.00    +0.000 HD
ENDROOT
BRANCH   3  12
ATOM     12  C   UNL     1      -2.833  12.467  21.885  0.00  0.00    +0.000 A 
ATOM     13  C   UNL     1      -2.441  12.719  23.194  0.00  0.00    +0.000 A 
ATOM     14  N   UNL     1      -3.177  13.416  24.092  0.00  0.00    +0.000 NA
ATOM     15  C   UNL     1      -4.371  13.884  23.683  0.00  0.00    +0.000 A 
ATOM     16  C   UNL     1      -4.860  13.704  22.403  0.00  0.00    +0.000 A 
ATOM     17  C   UNL     1      -4.071  12.993  21.500  0.00  0.00    +0.000 A 
ATOM     18 CL   UNL     1      -4.689  12.750  19.899  0.00  0.00    +0.000 Cl
ENDBRANCH   3  12
BRANCH   8  19
ATOM     19  C   UNL     1       1.087   6.775  20.458  0.00  0.00    +0.000 C 
BRANCH  19  20
ATOM     20  C   UNL     1       1.448   5.366  20.039  0.00  0.00    +0.000 A 
ATOM     21  C   UNL     1       1.054   4.236  20.764  0.00  0.00    +0.000 A 
ATOM     22  C   UNL     1       1.552   2.971  20.435  0.00  0.00    +0.000 A 
ATOM     23  C   UNL     1       2.495   2.830  19.415  0.00  0.00    +0.000 A 
ATOM     24  C   UNL     1       2.923   3.951  18.709  0.00  0.00    +0.000 A 
ATOM     25  C   UNL     1       2.344   5.198  18.971  0.00  0.00    +0.000 A 
BRANCH  24  26
ATOM     26  O   UNL     1       3.924   3.764  17.777  0.00  0.00    +0.000 OA
BRANCH  26  27
ATOM     27  C   UNL     1       4.944   4.694  17.718  0.00  0.00    +0.000 A 
ATOM     28  C   UNL     1       6.001   4.744  18.635  0.00  0.00    +0.000 A 
ATOM     29  C   UNL     1       6.926   5.787  18.583  0.00  0.00    +0.000 A 
ATOM     30  C   UNL     1       6.838   6.736  17.568  0.00  0.00    +0.000 A 
ATOM     31 CL   UNL     1       7.957   8.042  17.527  0.00  0.00    +0.000 Cl
ATOM     32  C   UNL     1       5.845   6.637  16.593  0.00  0.00    +0.000 A 
ATOM     33  C   UNL     1       4.896   5.613  16.669  0.00  0.00    +0.000 A 
ENDBRANCH  26  27
ENDBRANCH  24  26
ENDBRANCH  19  20
ENDBRANCH   8  19
TORSDOF 5
ENDMDL
MODEL 6
REMARK VINA RESULT:      -7.3      5.649      7.470
REMARK  Name = 
REMARK  5 active torsions:
REMARK  status: ('A' for Active; 'I' for Inactive)
REMARK    1  A    between atoms: N_3  and  C_4
REMARK    2  A    between atoms: N_15  and  C_16
REMARK    3  A    between atoms: C_16  and  C_17
REMARK    4  A    between atoms: C_21  and  O_22
REMARK    5  A    between atoms: O_22  and  C_23
REMARK                            x       y       z     vdW  Elec       q    Type
REMARK                         _______ _______ _______ _____ _____    ______ ____
ROOT
ATOM      1  O   UNL     1       8.116  14.797  22.028  0.00  0.00    +0.000 OA
ATOM      2  C   UNL     1       7.737  14.550  20.888  0.00  0.00    +0.000 C 
ATOM      3  N   UNL     1       6.463  14.755  20.410  0.00  0.00    +0.000 N 
ATOM      4  N   UNL     1       8.593  14.004  19.957  0.00  0.00    +0.000 N 
ATOM      5  C   UNL     1       9.898  13.393  20.278  0.00  0.00    +0.000 C 
ATOM      6  C   UNL     1       9.435  12.239  19.453  0.00  0.00    +0.000 C 
ATOM      7  C   UNL     1      10.358  11.529  18.508  0.00  0.00    +0.000 C 
ATOM      8  N   UNL     1       9.723  10.237  18.918  0.00  0.00    +0.000 NA
ATOM      9  C   UNL     1       9.148  10.918  20.119  0.00  0.00    +0.000 C 
ATOM     10  C   UNL     1       8.286  13.034  18.904  0.00  0.00    +0.000 C 
ATOM     11  H   UNL     1       6.284  14.505  19.447  0.00  0.00    +0.000 HD
ENDROOT
BRANCH   3  12
ATOM     12  C   UNL     1       5.352  15.231  21.144  0.00  0.00    +0.000 A 
ATOM     13  C   UNL     1       4.589  14.446  22.000  0.00  0.00    +0.000 A 
ATOM     14  N   UNL     1       3.511  14.889  22.690  0.00  0.00    +0.000 NA
ATOM     15  C   UNL     1       3.158  16.178  22.522  0.00  0.00    +0.000 A 
ATOM     16  C   UNL     1       3.846  17.055  21.707  0.00  0.00    +0.000 A 
ATOM     17  C   UNL     1       4.957  16.569  21.021  0.00  0.00    +0.000 A 
ATOM     18 CL   UNL     1       5.813  17.662  19.983  0.00  0.00    +0.000 Cl
ENDBRANCH   3  12
BRANCH   8  19
ATOM     19  C   UNL     1       8.666   9.878  17.957  0.00  0.00    +0.000 C 
BRANCH  19  20
ATOM     20  C   UNL     1       8.048   8.510  18.153  0.00  0.00    +0.000 A 
ATOM     21  C   UNL     1       8.607   7.542  18.994  0.00  0.00    +0.000 A 
ATOM     22  C   UNL     1       8.099   6.238  19.013  0.00  0.00    +0.000 A 
ATOM     23  C   UNL     1       7.065   5.874  18.147  0.00  0.00    +0.000 A 
ATOM     24  C   UNL     1       6.524   6.819  17.279  0.00  0.00    +0.000 A 
ATOM     25  C   UNL     1       6.964   8.146  17.338  0.00  0.00    +0.000 A 
BRANCH  24  26
ATOM     26  O   UNL     1       5.571   6.378  16.383  0.00  0.00    +0.000 OA
BRANCH  26  27
ATOM     27  C   UNL     1       4.473   5.701  16.878  0.00  0.00    +0.000 A 
ATOM     28  C   UNL     1       3.445   6.316  17.602  0.00  0.00    +0.000 A 
ATOM     29  C   UNL     1       2.432   5.546  18.175  0.00  0.00    +0.000 A 
ATOM     30  C   UNL     1       2.407   4.171  17.959  0.00  0.00    +0.000 A 
ATOM     31 CL   UNL     1       1.178   3.218  18.697  0.00  0.00    +0.000 Cl
ATOM     32  C   UNL     1       3.374   3.564  17.158  0.00  0.00    +0.000 A 
ATOM     33  C   UNL     1       4.410   4.331  16.617  0.00  0.00    +0.000 A 
ENDBRANCH  26  27
ENDBRANCH  24  26
ENDBRANCH  19  20
ENDBRANCH   8  19
TORSDOF 5
ENDMDL
MODEL 7
REMARK VINA RESULT:      -7.2      1.905      2.273
REMARK  Name = 
REMARK  5 active torsions:
REMARK  status: ('A' for Active; 'I' for Inactive)
REMARK    1  A    between atoms: N_3  and  C_4
REMARK    2  A    between atoms: N_15  and  C_16
REMARK    3  A    between atoms: C_16  and  C_17
REMARK    4  A    between atoms: C_21  and  O_22
REMARK    5  A    between atoms: O_22  and  C_23
REMARK                            x       y       z     vdW  Elec       q    Type
REMARK                         _______ _______ _______ _____ _____    ______ ____
ROOT
ATOM      1  O   UNL     1      -1.703  14.033  20.808  0.00  0.00    +0.000 OA
ATOM      2  C   UNL     1      -2.071  12.960  20.341  0.00  0.00    +0.000 C 
ATOM      3  N   UNL     1      -3.278  12.350  20.600  0.00  0.00    +0.000 N 
ATOM      4  N   UNL     1      -1.258  12.236  19.496  0.00  0.00    +0.000 N 
ATOM      5  C   UNL     1       0.184  12.486  19.306  0.00  0.00    +0.000 C 
ATOM      6  C   UNL     1       0.354  11.021  19.537  0.00  0.00    +0.000 C 
ATOM      7  C   UNL     1       1.313  10.204  18.725  0.00  0.00    +0.000 C 
ATOM      8  N   UNL     1       1.671   9.454  19.969  0.00  0.00    +0.000 NA
ATOM      9  C   UNL     1       1.049  10.542  20.786  0.00  0.00    +0.000 C 
ATOM     10  C   UNL     1      -1.122  10.782  19.397  0.00  0.00    +0.000 C 
ATOM     11  H   UNL     1      -3.453  11.463  20.149  0.00  0.00    +0.000 HD
ENDROOT
BRANCH   3  12
ATOM     12  C   UNL     1      -4.285  12.810  21.480  0.00  0.00    +0.000 A 
ATOM     13  C   UNL     1      -5.449  13.445  21.066  0.00  0.00    +0.000 A 
ATOM     14  N   UNL     1      -6.408  13.907  21.904  0.00  0.00    +0.000 NA
ATOM     15  C   UNL     1      -6.205  13.743  23.225  0.00  0.00    +0.000 A 
ATOM     16  C   UNL     1      -5.092  13.118  23.752  0.00  0.00    +0.000 A 
ATOM     17  C   UNL     1      -4.131  12.644  22.861  0.00  0.00    +0.000 A 
ATOM     18 CL   UNL     1      -2.724  11.874  23.519  0.00  0.00    +0.000 Cl
ENDBRANCH   3  12
BRANCH   8  19
ATOM     19  C   UNL     1       0.876   8.216  20.046  0.00  0.00    +0.000 C 
BRANCH  19  20
ATOM     20  C   UNL     1       1.674   6.930  19.989  0.00  0.00    +0.000 A 
ATOM     21  C   UNL     1       1.373   5.817  20.782  0.00  0.00    +0.000 A 
ATOM     22  C   UNL     1       2.237   4.717  20.820  0.00  0.00    +0.000 A 
ATOM     23  C   UNL     1       3.439   4.743  20.111  0.00  0.00    +0.000 A 
ATOM     24  C   UNL     1       3.768   5.859  19.345  0.00  0.00    +0.000 A 
ATOM     25  C   UNL     1       2.854   6.912  19.227  0.00  0.00    +0.000 A 
BRANCH  24  26
ATOM     26  O   UNL     1       5.010   5.866  18.743  0.00  0.00    +0.000 OA
BRANCH  26  27
ATOM     27  C   UNL     1       5.124   5.327  17.476  0.00  0.00    +0.000 A 
ATOM     28  C   UNL     1       5.210   3.953  17.224  0.00  0.00    +0.000 A 
ATOM     29  C   UNL     1       5.447   3.490  15.929  0.00  0.00    +0.000 A 
ATOM     30  C   UNL     1       5.523   4.398  14.876  0.00  0.00    +0.000 A 
ATOM     31 CL   UNL     1       5.853   3.830  13.286  0.00  0.00    +0.000 Cl
ATOM     32  C   UNL     1       5.342   5.762  15.106  0.00  0.00    +0.000 A 
ATOM     33  C   UNL     1       5.142   6.227  16.409  0.00  0.00    +0.000 A 
ENDBRANCH  26  27
ENDBRANCH  24  26
ENDBRANCH  19  20
ENDBRANCH   8  19
TORSDOF 5
ENDMDL
MODEL 8
REMARK VINA RESULT:      -7.2      3.053      4.151
REMARK  Name = 
REMARK  5 active torsions:
REMARK  status: ('A' for Active; 'I' for Inactive)
REMARK    1  A    between atoms: N_3  and  C_4
REMARK    2  A    between atoms: N_15  and  C_16
REMARK    3  A    between atoms: C_16  and  C_17
REMARK    4  A    between atoms: C_21  and  O_22
REMARK    5  A    between atoms: O_22  and  C_23
REMARK                            x       y       z     vdW  Elec       q    Type
REMARK                         _______ _______ _______ _____ _____    ______ ____
ROOT
ATOM      1  O   UNL     1      -0.480  13.767  20.241  0.00  0.00    +0.000 OA
ATOM      2  C   UNL     1       0.506  13.209  20.710  0.00  0.00    +0.000 C 
ATOM      3  N   UNL     1       1.812  13.590  20.499  0.00  0.00    +0.000 N 
ATOM      4  N   UNL     1       0.380  12.092  21.506  0.00  0.00    +0.000 N 
ATOM      5  C   UNL     1      -0.852  11.289  21.632  0.00  0.00    +0.000 C 
ATOM      6  C   UNL     1       0.024  10.109  21.374  0.00  0.00    +0.000 C 
ATOM      7  C   UNL     1      -0.145   8.825  22.129  0.00  0.00    +0.000 C 
ATOM      8  N   UNL     1       0.133   8.084  20.858  0.00  0.00    +0.000 NA
ATOM      9  C   UNL     1      -0.130   9.338  20.087  0.00  0.00    +0.000 C 
ATOM     10  C   UNL     1       1.266  10.927  21.578  0.00  0.00    +0.000 C 
ATOM     11  H   UNL     1       2.532  13.039  20.945  0.00  0.00    +0.000 HD
ENDROOT
BRANCH   3  12
ATOM     12  C   UNL     1       2.260  14.647  19.673  0.00  0.00    +0.000 A 
ATOM     13  C   UNL     1       2.678  14.484  18.358  0.00  0.00    +0.000 A 
ATOM     14  N   UNL     1       3.129  15.488  17.568  0.00  0.00    +0.000 NA
ATOM     15  C   UNL     1       3.180  16.721  18.105  0.00  0.00    +0.000 A 
ATOM     16  C   UNL     1       2.781  17.005  19.397  0.00  0.00    +0.000 A 
ATOM     17  C   UNL     1       2.311  15.952  20.178  0.00  0.00    +0.000 A 
ATOM     18 CL   UNL     1       1.827  16.301  21.806  0.00  0.00    +0.000 Cl
ENDBRANCH   3  12
BRANCH   8  19
ATOM     19  C   UNL     1       1.559   7.717  20.802  0.00  0.00    +0.000 C 
BRANCH  19  20
ATOM     20  C   UNL     1       1.846   6.300  20.352  0.00  0.00    +0.000 A 
ATOM     21  C   UNL     1       0.932   5.254  20.518  0.00  0.00    +0.000 A 
ATOM     22  C   UNL     1       1.305   3.934  20.244  0.00  0.00    +0.000 A 
ATOM     23  C   UNL     1       2.615   3.639  19.857  0.00  0.00    +0.000 A 
ATOM     24  C   UNL     1       3.545   4.667  19.723  0.00  0.00    +0.000 A 
ATOM     25  C   UNL     1       3.139   5.995  19.896  0.00  0.00    +0.000 A 
BRANCH  24  26
ATOM     26  O   UNL     1       4.844   4.307  19.431  0.00  0.00    +0.000 OA
BRANCH  26  27
ATOM     27  C   UNL     1       5.280   4.436  18.126  0.00  0.00    +0.000 A 
ATOM     28  C   UNL     1       4.437   4.333  17.014  0.00  0.00    +0.000 A 
ATOM     29  C   UNL     1       4.970   4.352  15.724  0.00  0.00    +0.000 A 
ATOM     30  C   UNL     1       6.337   4.549  15.547  0.00  0.00    +0.000 A 
ATOM     31 CL   UNL     1       6.998   4.535  13.959  0.00  0.00    +0.000 Cl
ATOM     32  C   UNL     1       7.170   4.749  16.648  0.00  0.00    +0.000 A 
ATOM     33  C   UNL     1       6.640   4.692  17.941  0.00  0.00    +0.000 A 
ENDBRANCH  26  27
ENDBRANCH  24  26
ENDBRANCH  19  20
ENDBRANCH   8  19
TORSDOF 5
ENDMDL
MODEL 9
REMARK VINA RESULT:      -7.2      2.531      2.975
REMARK  Name = 
REMARK  5 active torsions:
REMARK  status: ('A' for Active; 'I' for Inactive)
REMARK    1  A    between atoms: N_3  and  C_4
REMARK    2  A    between atoms: N_15  and  C_16
REMARK    3  A    between atoms: C_16  and  C_17
REMARK    4  A    between atoms: C_21  and  O_22
REMARK    5  A    between atoms: O_22  and  C_23
REMARK                            x       y       z     vdW  Elec       q    Type
REMARK                         _______ _______ _______ _____ _____    ______ ____
ROOT
ATOM      1  O   UNL     1      -0.302  12.188  18.703  0.00  0.00    +0.000 OA
ATOM      2  C   UNL     1      -0.486  11.160  18.060  0.00  0.00    +0.000 C 
ATOM      3  N   UNL     1      -1.709  10.698  17.628  0.00  0.00    +0.000 N 
ATOM      4  N   UNL     1       0.564  10.336  17.720  0.00  0.00    +0.000 N 
ATOM      5  C   UNL     1       1.913  10.412  18.314  0.00  0.00    +0.000 C 
ATOM      6  C   UNL     1       1.783   8.941  18.524  0.00  0.00    +0.000 C 
ATOM      7  C   UNL     1       2.931   8.008  18.283  0.00  0.00    +0.000 C 
ATOM      8  N   UNL     1       2.509   7.236  19.494  0.00  0.00    +0.000 NA
ATOM      9  C   UNL     1       1.675   8.399  19.927  0.00  0.00    +0.000 C 
ATOM     10  C   UNL     1       0.577   8.874  17.632  0.00  0.00    +0.000 C 
ATOM     11  H   UNL     1      -1.719   9.832  17.108  0.00  0.00    +0.000 HD
ENDROOT
BRANCH   3  12
ATOM     12  C   UNL     1      -2.971  11.284  17.885  0.00  0.00    +0.000 A 
ATOM     13  C   UNL     1      -3.363  11.776  19.124  0.00  0.00    +0.000 A 
ATOM     14  N   UNL     1      -4.577  12.318  19.383  0.00  0.00    +0.000 NA
ATOM     15  C   UNL     1      -5.459  12.371  18.367  0.00  0.00    +0.000 A 
ATOM     16  C   UNL     1      -5.178  11.922  17.092  0.00  0.00    +0.000 A 
ATOM     17  C   UNL     1      -3.915  11.382  16.857  0.00  0.00    +0.000 A 
ATOM     18 CL   UNL     1      -3.564  10.801  15.262  0.00  0.00    +0.000 Cl
ENDBRANCH   3  12
BRANCH   8  19
ATOM     19  C   UNL     1       1.664   6.099  19.088  0.00  0.00    +0.000 C 
BRANCH  19  20
ATOM     20  C   UNL     1       2.388   4.972  18.384  0.00  0.00    +0.000 A 
ATOM     21  C   UNL     1       1.745   3.800  17.972  0.00  0.00    +0.000 A 
ATOM     22  C   UNL     1       2.484   2.718  17.481  0.00  0.00    +0.000 A 
ATOM     23  C   UNL     1       3.879   2.774  17.454  0.00  0.00    +0.000 A 
ATOM     24  C   UNL     1       4.534   3.921  17.895  0.00  0.00    +0.000 A 
ATOM     25  C   UNL     1       3.788   5.038  18.286  0.00  0.00    +0.000 A 
BRANCH  24  26
ATOM     26  O   UNL     1       5.913   3.884  17.932  0.00  0.00    +0.000 OA
BRANCH  26  27
ATOM     27  C   UNL     1       6.599   5.083  17.952  0.00  0.00    +0.000 A 
ATOM     28  C   UNL     1       7.548   5.416  18.925  0.00  0.00    +0.000 A 
ATOM     29  C   UNL     1       8.109   6.694  18.950  0.00  0.00    +0.000 A 
ATOM     30  C   UNL     1       7.777   7.611  17.956  0.00  0.00    +0.000 A 
ATOM     31 CL   UNL     1       8.441   9.198  18.009  0.00  0.00    +0.000 Cl
ATOM     32  C   UNL     1       6.906   7.253  16.927  0.00  0.00    +0.000 A 
ATOM     33  C   UNL     1       6.316   5.985  16.926  0.00  0.00    +0.000 A 
ENDBRANCH  26  27
ENDBRANCH  24  26
ENDBRANCH  19  20
ENDBRANCH   8  19
TORSDOF 5
ENDMDL
