MODEL 1
REMARK VINA RESULT:      -8.0      0.000      0.000
REMARK  Name = 
REMARK  6 active torsions:
REMARK  status: ('A' for Active; 'I' for Inactive)
REMARK    1  A    between atoms: C_1  and  C_2
REMARK    2  A    between atoms: C_2  and  N_3
REMARK    3  A    between atoms: C_2  and  C_22
REMARK    4  A    between atoms: C_4  and  C_6
REMARK    5  A    between atoms: C_9  and  N_10
REMARK    6  A    between atoms: C_11  and  C_13
REMARK                            x       y       z     vdW  Elec       q    Type
REMARK                         _______ _______ _______ _____ _____    ______ ____
ROOT
ATOM      1  C   UNL     1       0.882   9.990  21.039  0.00  0.00    +0.000 A 
ATOM      2  N   UNL     1       1.213   9.377  22.199  0.00  0.00    +0.000 NA
ATOM      3  N   UNL     1       1.795   8.225  21.804  0.00  0.00    +0.000 N 
ATOM      4  C   UNL     1       1.845   8.052  20.446  0.00  0.00    +0.000 A 
ATOM      5  C   UNL     1       1.288   9.196  19.929  0.00  0.00    +0.000 A 
ATOM      6 BR   UNL     1       1.096   9.608  18.110  0.00  0.00    +0.000 Br
ATOM      7  H   UNL     1       2.145   7.568  22.499  0.00  0.00    +0.000 HD
ENDROOT
BRANCH   1   9
ATOM      8  N   UNL     1      -1.036  11.281  21.709  0.00  0.00    +0.000 N 
ATOM      9  C   UNL     1       0.178  11.286  21.040  0.00  0.00    +0.000 C 
ATOM     10  O   UNL     1       0.609  12.287  20.477  0.00  0.00    +0.000 OA
ATOM     11  H   UNL     1      -1.277  10.433  22.214  0.00  0.00    +0.000 HD
BRANCH   8  13
ATOM     12  C   UNL     1      -1.764  12.990  23.294  0.00  0.00    +0.000 C 
ATOM     13  C   UNL     1      -1.837  12.496  21.847  0.00  0.00    +0.000 C 
BRANCH  13  14
ATOM     14  C   UNL     1      -3.323  12.398  21.387  0.00  0.00    +0.000 C 
ATOM     15  O   UNL     1      -4.232  12.396  22.227  0.00  0.00    +0.000 OA
ATOM     16  N   UNL     1      -3.622  12.464  20.030  0.00  0.00    +0.000 N 
ATOM     17  C   UNL     1      -5.008  12.682  19.612  0.00  0.00    +0.000 C 
ATOM     18  C   UNL     1      -5.527  11.507  18.787  0.00  0.00    +0.000 C 
ATOM     19  C   UNL     1      -4.580  11.179  17.631  0.00  0.00    +0.000 C 
ATOM     20  C   UNL     1      -3.142  11.012  18.126  0.00  0.00    +0.000 C 
ATOM     21  C   UNL     1      -2.694  12.237  18.925  0.00  0.00    +0.000 C 
ENDBRANCH  13  14
ENDBRANCH   8  13
ENDBRANCH   1   9
BRANCH   4  22
ATOM     22  N   UNL     1       2.373   6.928  19.824  0.00  0.00    +0.000 N 
ATOM     23  C   UNL     1       1.871   5.662  20.076  0.00  0.00    +0.000 C 
ATOM     24  O   UNL     1       0.905   5.456  20.810  0.00  0.00    +0.000 OA
ATOM     25  H   UNL     1       3.162   7.058  19.196  0.00  0.00    +0.000 HD
BRANCH  23  26
ATOM     26  C   UNL     1       2.511   4.496  19.394  0.00  0.00    +0.000 A 
ATOM     27  C   UNL     1       2.778   4.661  18.019  0.00  0.00    +0.000 A 
ATOM     28  C   UNL     1       3.303   3.617  17.253  0.00  0.00    +0.000 A 
ATOM     29  C   UNL     1       3.568   2.387  17.847  0.00  0.00    +0.000 A 
ATOM     30  C   UNL     1       3.317   2.211  19.210  0.00  0.00    +0.000 A 
ATOM     31  C   UNL     1       2.791   3.256  19.985  0.00  0.00    +0.000 A 
ATOM     32 CL   UNL     1       2.479   2.896  21.646  0.00  0.00    +0.000 Cl
ENDBRANCH  23  26
ENDBRANCH   4  22
TORSDOF 5
ENDMDL
MODEL 2
REMARK VINA RESULT:      -7.9      1.360      1.628
REMARK  Name = 
REMARK  6 active torsions:
REMARK  status: ('A' for Active; 'I' for Inactive)
REMARK    1  A    between atoms: C_1  and  C_2
REMARK    2  A    between atoms: C_2  and  N_3
REMARK    3  A    between atoms: C_2  and  C_22
REMARK    4  A    between atoms: C_4  and  C_6
REMARK    5  A    between atoms: C_9  and  N_10
REMARK    6  A    between atoms: C_11  and  C_13
REMARK                            x       y       z     vdW  Elec       q    Type
REMARK                         _______ _______ _______ _____ _____    ______ ____
ROOT
ATOM      1  C   UNL     1       0.795  10.138  21.074  0.00  0.00    +0.000 A 
ATOM      2  N   UNL     1       1.260   9.479  22.161  0.00  0.00    +0.000 NA
ATOM      3  N   UNL     1       1.776   8.340  21.656  0.00  0.00    +0.000 N 
ATOM      4  C   UNL     1       1.658   8.218  20.296  0.00  0.00    +0.000 A 
ATOM      5  C   UNL     1       1.054   9.384  19.894  0.00  0.00    +0.000 A 
ATOM      6 BR   UNL     1       0.644   9.866  18.128  0.00  0.00    +0.000 Br
ATOM      7  H   UNL     1       2.202   7.655  22.278  0.00  0.00    +0.000 HD
ENDROOT
BRANCH   1   9
ATOM      8  N   UNL     1      -1.042  11.403  21.979  0.00  0.00    +0.000 N 
ATOM      9  C   UNL     1       0.110  11.437  21.210  0.00  0.00    +0.000 C 
ATOM     10  O   UNL     1       0.505  12.465  20.669  0.00  0.00    +0.000 OA
ATOM     11  H   UNL     1      -1.249  10.529  22.455  0.00  0.00    +0.000 HD
BRANCH   8  13
ATOM     12  C   UNL     1      -1.126  13.409  23.368  0.00  0.00    +0.000 C 
ATOM     13  C   UNL     1      -1.813  12.614  22.254  0.00  0.00    +0.000 C 
BRANCH  13  14
ATOM     14  C   UNL     1      -3.321  12.410  22.591  0.00  0.00    +0.000 C 
ATOM     15  O   UNL     1      -3.655  11.969  23.697  0.00  0.00    +0.000 OA
ATOM     16  N   UNL     1      -4.285  12.868  21.697  0.00  0.00    +0.000 N 
ATOM     17  C   UNL     1      -5.679  12.961  22.135  0.00  0.00    +0.000 C 
ATOM     18  C   UNL     1      -6.580  12.053  21.302  0.00  0.00    +0.000 C 
ATOM     19  C   UNL     1      -6.388  12.301  19.806  0.00  0.00    +0.000 C 
ATOM     20  C   UNL     1      -4.908  12.239  19.421  0.00  0.00    +0.000 C 
ATOM     21  C   UNL     1      -4.078  13.190  20.288  0.00  0.00    +0.000 C 
ENDBRANCH  13  14
ENDBRANCH   8  13
ENDBRANCH   1   9
BRANCH   4  22
ATOM     22  N   UNL     1       2.094   7.115  19.573  0.00  0.00    +0.000 N 
ATOM     23  C   UNL     1       1.974   5.830  20.076  0.00  0.00    +0.000 C 
ATOM     24  O   UNL     1       1.432   5.577  21.151  0.00  0.00    +0.000 OA
ATOM     25  H   UNL     1       2.532   7.281  18.671  0.00  0.00    +0.000 HD
BRANCH  23  26
ATOM     26  C   UNL     1       2.495   4.695  19.255  0.00  0.00    +0.000 A 
ATOM     27  C   UNL     1       1.534   3.752  18.833  0.00  0.00    +0.000 A 
ATOM     28  C   UNL     1       1.905   2.606  18.126  0.00  0.00    +0.000 A 
ATOM     29  C   UNL     1       3.246   2.379  17.829  0.00  0.00    +0.000 A 
ATOM     30  C   UNL     1       4.209   3.308  18.233  0.00  0.00    +0.000 A 
ATOM     31  C   UNL     1       3.841   4.461  18.942  0.00  0.00    +0.000 A 
ATOM     32 CL   UNL     1       5.130   5.506  19.426  0.00  0.00    +0.000 Cl
ENDBRANCH  23  26
ENDBRANCH   4  22
TORSDOF 5
ENDMDL
MODEL 3
REMARK VINA RESULT:      -7.8      3.536      9.698
REMARK  Name = 
REMARK  6 active torsions:
REMARK  status: ('A' for Active; 'I' for Inactive)
REMARK    1  A    between atoms: C_1  and  C_2
REMARK    2  A    between atoms: C_2  and  N_3
REMARK    3  A    between atoms: C_2  and  C_22
REMARK    4  A    between atoms: C_4  and  C_6
REMARK    5  A    between atoms: C_9  and  N_10
REMARK    6  A    between atoms: C_11  and  C_13
REMARK                            x       y       z     vdW  Elec       q    Type
REMARK                         _______ _______ _______ _____ _____    ______ ____
ROOT
ATOM      1  C   UNL     1       1.487   8.624  19.971  0.00  0.00    +0.000 A 
ATOM      2  N   UNL     1       1.820   8.461  21.272  0.00  0.00    +0.000 NA
ATOM      3  N   UNL     1       1.124   9.425  21.910  0.00  0.00    +0.000 N 
ATOM      4  C   UNL     1       0.365  10.216  21.087  0.00  0.00    +0.000 A 
ATOM      5  C   UNL     1       0.560   9.695  19.830  0.00  0.00    +0.000 A 
ATOM      6 BR   UNL     1      -0.238  10.303  18.246  0.00  0.00    +0.000 Br
ATOM      7  H   UNL     1       1.196   9.520  22.921  0.00  0.00    +0.000 HD
ENDROOT
BRANCH   1   9
ATOM      8  N   UNL     1       2.166   6.427  19.255  0.00  0.00    +0.000 N 
ATOM      9  C   UNL     1       2.080   7.770  18.924  0.00  0.00    +0.000 C 
ATOM     10  O   UNL     1       2.491   8.207  17.854  0.00  0.00    +0.000 OA
ATOM     11  H   UNL     1       1.728   6.143  20.128  0.00  0.00    +0.000 HD
BRANCH   8  13
ATOM     12  C   UNL     1       1.679   4.290  18.180  0.00  0.00    +0.000 C 
ATOM     13  C   UNL     1       2.683   5.439  18.312  0.00  0.00    +0.000 C 
BRANCH  13  14
ATOM     14  C   UNL     1       4.106   4.878  18.610  0.00  0.00    +0.000 C 
ATOM     15  O   UNL     1       4.260   4.010  19.477  0.00  0.00    +0.000 OA
ATOM     16  N   UNL     1       5.169   5.251  17.793  0.00  0.00    +0.000 N 
ATOM     17  C   UNL     1       6.426   4.505  17.870  0.00  0.00    +0.000 C 
ATOM     18  C   UNL     1       7.577   5.405  18.313  0.00  0.00    +0.000 C 
ATOM     19  C   UNL     1       7.661   6.664  17.450  0.00  0.00    +0.000 C 
ATOM     20  C   UNL     1       6.306   7.371  17.370  0.00  0.00    +0.000 C 
ATOM     21  C   UNL     1       5.214   6.407  16.901  0.00  0.00    +0.000 C 
ENDBRANCH  13  14
ENDBRANCH   8  13
ENDBRANCH   1   9
BRANCH   4  22
ATOM     22  N   UNL     1      -0.406  11.283  21.527  0.00  0.00    +0.000 N 
ATOM     23  C   UNL     1      -1.020  11.266  22.768  0.00  0.00    +0.000 C 
ATOM     24  O   UNL     1      -0.879  10.346  23.574  0.00  0.00    +0.000 OA
ATOM     25  H   UNL     1      -0.532  12.071  20.896  0.00  0.00    +0.000 HD
BRANCH  23  26
ATOM     26  C   UNL     1      -1.861  12.437  23.161  0.00  0.00    +0.000 A 
ATOM     27  C   UNL     1      -3.155  12.132  23.631  0.00  0.00    +0.000 A 
ATOM     28  C   UNL     1      -4.065  13.142  23.956  0.00  0.00    +0.000 A 
ATOM     29  C   UNL     1      -3.697  14.477  23.814  0.00  0.00    +0.000 A 
ATOM     30  C   UNL     1      -2.415  14.795  23.358  0.00  0.00    +0.000 A 
ATOM     31  C   UNL     1      -1.498  13.785  23.031  0.00  0.00    +0.000 A 
ATOM     32 CL   UNL     1       0.037  14.309  22.433  0.00  0.00    +0.000 Cl
ENDBRANCH  23  26
ENDBRANCH   4  22
TORSDOF 5
ENDMDL
MODEL 4
REMARK VINA RESULT:      -7.6      1.476      1.747
REMARK  Name = 
REMARK  6 active torsions:
REMARK  status: ('A' for Active; 'I' for Inactive)
REMARK    1  A    between atoms: C_1  and  C_2
REMARK    2  A    between atoms: C_2  and  N_3
REMARK    3  A    between atoms: C_2  and  C_22
REMARK    4  A    between atoms: C_4  and  C_6
REMARK    5  A    between atoms: C_9  and  N_10
REMARK    6  A    between atoms: C_11  and  C_13
REMARK                            x       y       z     vdW  Elec       q    Type
REMARK                         _______ _______ _______ _____ _____    ______ ____
ROOT
ATOM      1  C   UNL     1       0.222  10.035  21.083  0.00  0.00    +0.000 A 
ATOM      2  N   UNL     1       0.577   9.450  22.251  0.00  0.00    +0.000 NA
ATOM      3  N   UNL     1       1.404   8.452  21.876  0.00  0.00    +0.000 N 
ATOM      4  C   UNL     1       1.593   8.349  20.523  0.00  0.00    +0.000 A 
ATOM      5  C   UNL     1       0.861   9.383  19.991  0.00  0.00    +0.000 A 
ATOM      6 BR   UNL     1       0.733   9.825  18.173  0.00  0.00    +0.000 Br
ATOM      7  H   UNL     1       1.823   7.848  22.581  0.00  0.00    +0.000 HD
ENDROOT
BRANCH   1   9
ATOM      8  N   UNL     1      -1.042  11.679  22.306  0.00  0.00    +0.000 N 
ATOM      9  C   UNL     1      -0.724  11.167  21.059  0.00  0.00    +0.000 C 
ATOM     10  O   UNL     1      -1.216  11.610  20.026  0.00  0.00    +0.000 OA
ATOM     11  H   UNL     1      -0.526  11.305  23.099  0.00  0.00    +0.000 HD
BRANCH   8  13
ATOM     12  C   UNL     1      -1.354  13.774  23.520  0.00  0.00    +0.000 C 
ATOM     13  C   UNL     1      -1.925  12.833  22.456  0.00  0.00    +0.000 C 
BRANCH  13  14
ATOM     14  C   UNL     1      -3.422  12.522  22.761  0.00  0.00    +0.000 C 
ATOM     15  O   UNL     1      -3.739  12.005  23.839  0.00  0.00    +0.000 OA
ATOM     16  N   UNL     1      -4.402  12.966  21.879  0.00  0.00    +0.000 N 
ATOM     17  C   UNL     1      -5.804  12.951  22.302  0.00  0.00    +0.000 C 
ATOM     18  C   UNL     1      -6.640  12.034  21.413  0.00  0.00    +0.000 C 
ATOM     19  C   UNL     1      -6.447  12.370  19.934  0.00  0.00    +0.000 C 
ATOM     20  C   UNL     1      -4.962  12.418  19.566  0.00  0.00    +0.000 C 
ATOM     21  C   UNL     1      -4.202  13.371  20.491  0.00  0.00    +0.000 C 
ENDBRANCH  13  14
ENDBRANCH   8  13
ENDBRANCH   1   9
BRANCH   4  22
ATOM     22  N   UNL     1       2.380   7.377  19.919  0.00  0.00    +0.000 N 
ATOM     23  C   UNL     1       2.166   6.029  20.152  0.00  0.00    +0.000 C 
ATOM     24  O   UNL     1       1.246   5.606  20.851  0.00  0.00    +0.000 OA
ATOM     25  H   UNL     1       3.141   7.686  19.319  0.00  0.00    +0.000 HD
BRANCH  23  26
ATOM     26  C   UNL     1       3.074   5.041  19.492  0.00  0.00    +0.000 A 
ATOM     27  C   UNL     1       4.438   5.397  19.448  0.00  0.00    +0.000 A 
ATOM     28  C   UNL     1       5.375   4.596  18.790  0.00  0.00    +0.000 A 
ATOM     29  C   UNL     1       4.964   3.424  18.162  0.00  0.00    +0.000 A 
ATOM     30  C   UNL     1       3.617   3.054  18.204  0.00  0.00    +0.000 A 
ATOM     31  C   UNL     1       2.673   3.855  18.864  0.00  0.00    +0.000 A 
ATOM     32 CL   UNL     1       1.033   3.312  18.802  0.00  0.00    +0.000 Cl
ENDBRANCH  23  26
ENDBRANCH   4  22
TORSDOF 5
ENDMDL
MODEL 5
REMARK VINA RESULT:      -7.6      3.451      9.810
REMARK  Name = 
REMARK  6 active torsions:
REMARK  status: ('A' for Active; 'I' for Inactive)
REMARK    1  A    between atoms: C_1  and  C_2
REMARK    2  A    between atoms: C_2  and  N_3
REMARK    3  A    between atoms: C_2  and  C_22
REMARK    4  A    between atoms: C_4  and  C_6
REMARK    5  A    between atoms: C_9  and  N_10
REMARK    6  A    between atoms: C_11  and  C_13
REMARK                            x       y       z     vdW  Elec       q    Type
REMARK                         _______ _______ _______ _____ _____    ______ ____
ROOT
ATOM      1  C   UNL     1       1.752   7.551  20.026  0.00  0.00    +0.000 A 
ATOM      2  N   UNL     1       1.332   7.182  21.258  0.00  0.00    +0.000 NA
ATOM      3  N   UNL     1       0.627   8.247  21.695  0.00  0.00    +0.000 N 
ATOM      4  C   UNL     1       0.580   9.295  20.814  0.00  0.00    +0.000 A 
ATOM      5  C   UNL     1       1.275   8.856  19.714  0.00  0.00    +0.000 A 
ATOM      6 BR   UNL     1       1.545   9.811  18.123  0.00  0.00    +0.000 Br
ATOM      7  H   UNL     1       0.191   8.225  22.615  0.00  0.00    +0.000 HD
ENDROOT
BRANCH   1   9
ATOM      8  N   UNL     1       2.991   5.494  19.858  0.00  0.00    +0.000 N 
ATOM      9  C   UNL     1       2.602   6.659  19.215  0.00  0.00    +0.000 C 
ATOM     10  O   UNL     1       2.962   6.927  18.074  0.00  0.00    +0.000 OA
ATOM     11  H   UNL     1       2.581   5.316  20.770  0.00  0.00    +0.000 HD
BRANCH   8  13
ATOM     12  C   UNL     1       3.807   3.199  20.018  0.00  0.00    +0.000 C 
ATOM     13  C   UNL     1       3.794   4.479  19.179  0.00  0.00    +0.000 C 
BRANCH  13  14
ATOM     14  C   UNL     1       5.250   4.889  18.802  0.00  0.00    +0.000 C 
ATOM     15  O   UNL     1       5.943   5.524  19.606  0.00  0.00    +0.000 OA
ATOM     16  N   UNL     1       5.808   4.408  17.621  0.00  0.00    +0.000 N 
ATOM     17  C   UNL     1       7.252   4.529  17.411  0.00  0.00    +0.000 C 
ATOM     18  C   UNL     1       7.561   5.393  16.191  0.00  0.00    +0.000 C 
ATOM     19  C   UNL     1       6.799   4.906  14.959  0.00  0.00    +0.000 C 
ATOM     20  C   UNL     1       5.306   4.753  15.256  0.00  0.00    +0.000 C 
ATOM     21  C   UNL     1       5.082   3.860  16.479  0.00  0.00    +0.000 C 
ENDBRANCH  13  14
ENDBRANCH   8  13
ENDBRANCH   1   9
BRANCH   4  22
ATOM     22  N   UNL     1      -0.064  10.498  21.071  0.00  0.00    +0.000 N 
ATOM     23  C   UNL     1      -0.332  10.911  22.366  0.00  0.00    +0.000 C 
ATOM     24  O   UNL     1       0.026  10.279  23.360  0.00  0.00    +0.000 OA
ATOM     25  H   UNL     1      -0.361  11.059  20.276  0.00  0.00    +0.000 HD
BRANCH  23  26
ATOM     26  C   UNL     1      -1.058  12.203  22.564  0.00  0.00    +0.000 A 
ATOM     27  C   UNL     1      -2.358  12.099  23.101  0.00  0.00    +0.000 A 
ATOM     28  C   UNL     1      -3.167  13.227  23.262  0.00  0.00    +0.000 A 
ATOM     29  C   UNL     1      -2.693  14.479  22.884  0.00  0.00    +0.000 A 
ATOM     30  C   UNL     1      -1.403  14.599  22.358  0.00  0.00    +0.000 A 
ATOM     31  C   UNL     1      -0.586  13.470  22.196  0.00  0.00    +0.000 A 
ATOM     32 CL   UNL     1       0.967  13.745  21.489  0.00  0.00    +0.000 Cl
ENDBRANCH  23  26
ENDBRANCH   4  22
TORSDOF 5
ENDMDL
MODEL 6
REMARK VINA RESULT:      -7.5      2.019      2.312
REMARK  Name = 
REMARK  6 active torsions:
REMARK  status: ('A' for Active; 'I' for Inactive)
REMARK    1  A    between atoms: C_1  and  C_2
REMARK    2  A    between atoms: C_2  and  N_3
REMARK    3  A    between atoms: C_2  and  C_22
REMARK    4  A    between atoms: C_4  and  C_6
REMARK    5  A    between atoms: C_9  and  N_10
REMARK    6  A    between atoms: C_11  and  C_13
REMARK                            x       y       z     vdW  Elec       q    Type
REMARK                         _______ _______ _______ _____ _____    ______ ____
ROOT
ATOM      1  C   UNL     1       0.571  10.383  21.213  0.00  0.00    +0.000 A 
ATOM      2  N   UNL     1       1.252   9.894  22.275  0.00  0.00    +0.000 NA
ATOM      3  N   UNL     1       1.763   8.728  21.825  0.00  0.00    +0.000 N 
ATOM      4  C   UNL     1       1.437   8.429  20.528  0.00  0.00    +0.000 A 
ATOM      5  C   UNL     1       0.692   9.501  20.102  0.00  0.00    +0.000 A 
ATOM      6 BR   UNL     1      -0.031   9.732  18.387  0.00  0.00    +0.000 Br
ATOM      7  H   UNL     1       2.334   8.152  22.441  0.00  0.00    +0.000 HD
ENDROOT
BRANCH   1   9
ATOM      8  N   UNL     1      -1.269  11.610  22.162  0.00  0.00    +0.000 N 
ATOM      9  C   UNL     1      -0.177  11.650  21.310  0.00  0.00    +0.000 C 
ATOM     10  O   UNL     1       0.119  12.657  20.675  0.00  0.00    +0.000 OA
ATOM     11  H   UNL     1      -1.392  10.762  22.709  0.00  0.00    +0.000 HD
BRANCH   8  13
ATOM     12  C   UNL     1      -1.461  13.617  23.539  0.00  0.00    +0.000 C 
ATOM     13  C   UNL     1      -2.089  12.794  22.411  0.00  0.00    +0.000 C 
BRANCH  13  14
ATOM     14  C   UNL     1      -3.598  12.540  22.707  0.00  0.00    +0.000 C 
ATOM     15  O   UNL     1      -3.948  12.108  23.812  0.00  0.00    +0.000 OA
ATOM     16  N   UNL     1      -4.551  12.943  21.776  0.00  0.00    +0.000 N 
ATOM     17  C   UNL     1      -5.960  12.992  22.171  0.00  0.00    +0.000 C 
ATOM     18  C   UNL     1      -6.801  12.034  21.331  0.00  0.00    +0.000 C 
ATOM     19  C   UNL     1      -6.573  12.259  19.836  0.00  0.00    +0.000 C 
ATOM     20  C   UNL     1      -5.081  12.246  19.496  0.00  0.00    +0.000 C 
ATOM     21  C   UNL     1      -4.314  13.244  20.367  0.00  0.00    +0.000 C 
ENDBRANCH  13  14
ENDBRANCH   8  13
ENDBRANCH   1   9
BRANCH   4  22
ATOM     22  N   UNL     1       1.831   7.269  19.875  0.00  0.00    +0.000 N 
ATOM     23  C   UNL     1       2.562   7.316  18.699  0.00  0.00    +0.000 C 
ATOM     24  O   UNL     1       2.953   8.367  18.194  0.00  0.00    +0.000 OA
ATOM     25  H   UNL     1       1.543   6.378  20.271  0.00  0.00    +0.000 HD
BRANCH  23  26
ATOM     26  C   UNL     1       2.923   6.026  18.035  0.00  0.00    +0.000 A 
ATOM     27  C   UNL     1       1.944   5.013  18.092  0.00  0.00    +0.000 A 
ATOM     28  C   UNL     1       2.190   3.737  17.577  0.00  0.00    +0.000 A 
ATOM     29  C   UNL     1       3.422   3.451  16.997  0.00  0.00    +0.000 A 
ATOM     30  C   UNL     1       4.400   4.448  16.926  0.00  0.00    +0.000 A 
ATOM     31  C   UNL     1       4.157   5.730  17.441  0.00  0.00    +0.000 A 
ATOM     32 CL   UNL     1       5.463   6.857  17.335  0.00  0.00    +0.000 Cl
ENDBRANCH  23  26
ENDBRANCH   4  22
TORSDOF 5
ENDMDL
MODEL 7
REMARK VINA RESULT:      -7.5      2.658      3.720
REMARK  Name = 
REMARK  6 active torsions:
REMARK  status: ('A' for Active; 'I' for Inactive)
REMARK    1  A    between atoms: C_1  and  C_2
REMARK    2  A    between atoms: C_2  and  N_3
REMARK    3  A    between atoms: C_2  and  C_22
REMARK    4  A    between atoms: C_4  and  C_6
REMARK    5  A    between atoms: C_9  and  N_10
REMARK    6  A    between atoms: C_11  and  C_13
REMARK                            x       y       z     vdW  Elec       q    Type
REMARK                         _______ _______ _______ _____ _____    ______ ____
ROOT
ATOM      1  C   UNL     1       0.797   9.877  21.069  0.00  0.00    +0.000 A 
ATOM      2  N   UNL     1       1.201   9.187  22.161  0.00  0.00    +0.000 NA
ATOM      3  N   UNL     1       1.774   8.077  21.652  0.00  0.00    +0.000 N 
ATOM      4  C   UNL     1       1.751   8.002  20.284  0.00  0.00    +0.000 A 
ATOM      5  C   UNL     1       1.151   9.172  19.884  0.00  0.00    +0.000 A 
ATOM      6 BR   UNL     1       0.852   9.710  18.112  0.00  0.00    +0.000 Br
ATOM      7  H   UNL     1       2.172   7.378  22.277  0.00  0.00    +0.000 HD
ENDROOT
BRANCH   1   9
ATOM      8  N   UNL     1       0.770  12.260  20.731  0.00  0.00    +0.000 N 
ATOM      9  C   UNL     1       0.077  11.157  21.203  0.00  0.00    +0.000 C 
ATOM     10  O   UNL     1      -1.034  11.252  21.713  0.00  0.00    +0.000 OA
ATOM     11  H   UNL     1       1.648  12.078  20.251  0.00  0.00    +0.000 HD
BRANCH   8  13
ATOM     12  C   UNL     1       0.710  14.397  19.552  0.00  0.00    +0.000 C 
ATOM     13  C   UNL     1       0.179  13.596  20.744  0.00  0.00    +0.000 C 
BRANCH  13  14
ATOM     14  C   UNL     1       0.350  14.414  22.059  0.00  0.00    +0.000 C 
ATOM     15  O   UNL     1       1.482  14.715  22.459  0.00  0.00    +0.000 OA
ATOM     16  N   UNL     1      -0.777  14.927  22.693  0.00  0.00    +0.000 N 
ATOM     17  C   UNL     1      -0.613  15.939  23.738  0.00  0.00    +0.000 C 
ATOM     18  C   UNL     1      -1.147  15.441  25.079  0.00  0.00    +0.000 C 
ATOM     19  C   UNL     1      -2.579  14.921  24.947  0.00  0.00    +0.000 C 
ATOM     20  C   UNL     1      -2.696  13.905  23.808  0.00  0.00    +0.000 C 
ATOM     21  C   UNL     1      -2.157  14.488  22.499  0.00  0.00    +0.000 C 
ENDBRANCH  13  14
ENDBRANCH   8  13
ENDBRANCH   1   9
BRANCH   4  22
ATOM     22  N   UNL     1       2.258   6.936  19.555  0.00  0.00    +0.000 N 
ATOM     23  C   UNL     1       2.008   5.625  19.925  0.00  0.00    +0.000 C 
ATOM     24  O   UNL     1       1.285   5.321  20.874  0.00  0.00    +0.000 OA
ATOM     25  H   UNL     1       2.846   7.145  18.752  0.00  0.00    +0.000 HD
BRANCH  23  26
ATOM     26  C   UNL     1       2.613   4.528  19.109  0.00  0.00    +0.000 A 
ATOM     27  C   UNL     1       1.717   3.544  18.644  0.00  0.00    +0.000 A 
ATOM     28  C   UNL     1       2.170   2.427  17.937  0.00  0.00    +0.000 A 
ATOM     29  C   UNL     1       3.530   2.272  17.685  0.00  0.00    +0.000 A 
ATOM     30  C   UNL     1       4.430   3.244  18.132  0.00  0.00    +0.000 A 
ATOM     31  C   UNL     1       3.980   4.367  18.841  0.00  0.00    +0.000 A 
ATOM     32 CL   UNL     1       5.196   5.469  19.382  0.00  0.00    +0.000 Cl
ENDBRANCH  23  26
ENDBRANCH   4  22
TORSDOF 5
ENDMDL
MODEL 8
REMARK VINA RESULT:      -7.5      3.528      9.831
REMARK  Name = 
REMARK  6 active torsions:
REMARK  status: ('A' for Active; 'I' for Inactive)
REMARK    1  A    between atoms: C_1  and  C_2
REMARK    2  A    between atoms: C_2  and  N_3
REMARK    3  A    between atoms: C_2  and  C_22
REMARK    4  A    between atoms: C_4  and  C_6
REMARK    5  A    between atoms: C_9  and  N_10
REMARK    6  A    between atoms: C_11  and  C_13
REMARK                            x       y       z     vdW  Elec       q    Type
REMARK                         _______ _______ _______ _____ _____    ______ ____
ROOT
ATOM      1  C   UNL     1       1.344   8.879  19.853  0.00  0.00    +0.000 A 
ATOM      2  N   UNL     1       1.744   8.756  21.140  0.00  0.00    +0.000 NA
ATOM      3  N   UNL     1       1.004   9.672  21.799  0.00  0.00    +0.000 N 
ATOM      4  C   UNL     1       0.153  10.393  21.004  0.00  0.00    +0.000 A 
ATOM      5  C   UNL     1       0.334   9.875  19.744  0.00  0.00    +0.000 A 
ATOM      6 BR   UNL     1      -0.575  10.404  18.191  0.00  0.00    +0.000 Br
ATOM      7  H   UNL     1       1.111   9.783  22.806  0.00  0.00    +0.000 HD
ENDROOT
BRANCH   1   9
ATOM      8  N   UNL     1       2.252   6.760  19.159  0.00  0.00    +0.000 N 
ATOM      9  C   UNL     1       1.956   8.061  18.788  0.00  0.00    +0.000 C 
ATOM     10  O   UNL     1       2.209   8.496  17.669  0.00  0.00    +0.000 OA
ATOM     11  H   UNL     1       1.934   6.462  20.078  0.00  0.00    +0.000 HD
BRANCH   8  13
ATOM     12  C   UNL     1       1.929   4.557  18.157  0.00  0.00    +0.000 C 
ATOM     13  C   UNL     1       2.816   5.804  18.209  0.00  0.00    +0.000 C 
BRANCH  13  14
ATOM     14  C   UNL     1       4.303   5.396  18.439  0.00  0.00    +0.000 C 
ATOM     15  O   UNL     1       4.818   5.537  19.555  0.00  0.00    +0.000 OA
ATOM     16  N   UNL     1       4.993   4.739  17.425  0.00  0.00    +0.000 N 
ATOM     17  C   UNL     1       6.267   4.087  17.733  0.00  0.00    +0.000 C 
ATOM     18  C   UNL     1       7.410   4.703  16.931  0.00  0.00    +0.000 C 
ATOM     19  C   UNL     1       7.084   4.740  15.438  0.00  0.00    +0.000 C 
ATOM     20  C   UNL     1       5.721   5.388  15.186  0.00  0.00    +0.000 C 
ATOM     21  C   UNL     1       4.630   4.702  16.011  0.00  0.00    +0.000 C 
ENDBRANCH  13  14
ENDBRANCH   8  13
ENDBRANCH   1   9
BRANCH   4  22
ATOM     22  N   UNL     1      -0.678  11.404  21.469  0.00  0.00    +0.000 N 
ATOM     23  C   UNL     1      -1.121  11.427  22.781  0.00  0.00    +0.000 C 
ATOM     24  O   UNL     1      -0.770  10.601  23.623  0.00  0.00    +0.000 OA
ATOM     25  H   UNL     1      -0.977  12.116  20.807  0.00  0.00    +0.000 HD
BRANCH  23  26
ATOM     26  C   UNL     1      -2.039  12.529  23.201  0.00  0.00    +0.000 A 
ATOM     27  C   UNL     1      -3.333  12.131  23.595  0.00  0.00    +0.000 A 
ATOM     28  C   UNL     1      -4.309  13.072  23.936  0.00  0.00    +0.000 A 
ATOM     29  C   UNL     1      -4.008  14.430  23.886  0.00  0.00    +0.000 A 
ATOM     30  C   UNL     1      -2.727  14.839  23.505  0.00  0.00    +0.000 A 
ATOM     31  C   UNL     1      -1.744  13.898  23.163  0.00  0.00    +0.000 A 
ATOM     32 CL   UNL     1      -0.217  14.534  22.663  0.00  0.00    +0.000 Cl
ENDBRANCH  23  26
ENDBRANCH   4  22
TORSDOF 5
ENDMDL
MODEL 9
REMARK VINA RESULT:      -7.4      2.366      2.666
REMARK  Name = 
REMARK  6 active torsions:
REMARK  status: ('A' for Active; 'I' for Inactive)
REMARK    1  A    between atoms: C_1  and  C_2
REMARK    2  A    between atoms: C_2  and  N_3
REMARK    3  A    between atoms: C_2  and  C_22
REMARK    4  A    between atoms: C_4  and  C_6
REMARK    5  A    between atoms: C_9  and  N_10
REMARK    6  A    between atoms: C_11  and  C_13
REMARK                            x       y       z     vdW  Elec       q    Type
REMARK                         _______ _______ _______ _____ _____    ______ ____
ROOT
ATOM      1  C   UNL     1       0.070  11.525  19.001  0.00  0.00    +0.000 A 
ATOM      2  N   UNL     1       1.324  11.632  19.501  0.00  0.00    +0.000 NA
ATOM      3  N   UNL     1       1.936  10.502  19.089  0.00  0.00    +0.000 N 
ATOM      4  C   UNL     1       1.139   9.659  18.359  0.00  0.00    +0.000 A 
ATOM      5  C   UNL     1      -0.064  10.316  18.263  0.00  0.00    +0.000 A 
ATOM      6 BR   UNL     1      -1.583   9.711  17.344  0.00  0.00    +0.000 Br
ATOM      7  H   UNL     1       2.910  10.333  19.333  0.00  0.00    +0.000 HD
ENDROOT
BRANCH   1   9
ATOM      8  N   UNL     1      -1.830  12.255  20.286  0.00  0.00    +0.000 N 
ATOM      9  C   UNL     1      -0.943  12.564  19.268  0.00  0.00    +0.000 C 
ATOM     10  O   UNL     1      -1.019  13.608  18.629  0.00  0.00    +0.000 OA
ATOM     11  H   UNL     1      -1.644  11.406  20.814  0.00  0.00    +0.000 HD
BRANCH   8  13
ATOM     12  C   UNL     1      -2.308  14.097  21.816  0.00  0.00    +0.000 C 
ATOM     13  C   UNL     1      -2.864  13.196  20.710  0.00  0.00    +0.000 C 
BRANCH  13  14
ATOM     14  C   UNL     1      -4.222  12.575  21.156  0.00  0.00    +0.000 C 
ATOM     15  O   UNL     1      -4.454  12.391  22.357  0.00  0.00    +0.000 OA
ATOM     16  N   UNL     1      -5.222  12.372  20.209  0.00  0.00    +0.000 N 
ATOM     17  C   UNL     1      -6.585  12.084  20.657  0.00  0.00    +0.000 C 
ATOM     18  C   UNL     1      -7.047  10.712  20.175  0.00  0.00    +0.000 C 
ATOM     19  C   UNL     1      -6.851  10.559  18.667  0.00  0.00    +0.000 C 
ATOM     20  C   UNL     1      -5.422  10.920  18.255  0.00  0.00    +0.000 C 
ATOM     21  C   UNL     1      -5.045  12.315  18.760  0.00  0.00    +0.000 C 
ENDBRANCH  13  14
ENDBRANCH   8  13
ENDBRANCH   1   9
BRANCH   4  22
ATOM     22  N   UNL     1       1.555   8.431  17.861  0.00  0.00    +0.000 N 
ATOM     23  C   UNL     1       2.144   7.483  18.682  0.00  0.00    +0.000 C 
ATOM     24  O   UNL     1       2.285   7.639  19.894  0.00  0.00    +0.000 OA
ATOM     25  H   UNL     1       1.440   8.257  16.866  0.00  0.00    +0.000 HD
BRANCH  23  26
ATOM     26  C   UNL     1       2.596   6.197  18.069  0.00  0.00    +0.000 A 
ATOM     27  C   UNL     1       1.681   5.126  18.149  0.00  0.00    +0.000 A 
ATOM     28  C   UNL     1       2.016   3.851  17.683  0.00  0.00    +0.000 A 
ATOM     29  C   UNL     1       3.273   3.624  17.131  0.00  0.00    +0.000 A 
ATOM     30  C   UNL     1       4.187   4.677  17.038  0.00  0.00    +0.000 A 
ATOM     31  C   UNL     1       3.856   5.958  17.504  0.00  0.00    +0.000 A 
ATOM     32 CL   UNL     1       5.090   7.161  17.376  0.00  0.00    +0.000 Cl
ENDBRANCH  23  26
ENDBRANCH   4  22
TORSDOF 5
ENDMDL
