MODEL 1
REMARK VINA RESULT:      -7.7      0.000      0.000
REMARK  Name = 
REMARK  8 active torsions:
REMARK  status: ('A' for Active; 'I' for Inactive)
REMARK    1  A    between atoms: C_1  and  C_2
REMARK    2  A    between atoms: C_2  and  C_3
REMARK    3  A    between atoms: C_6  and  C_7
REMARK    4  A    between atoms: C_11  and  C_12
REMARK    5  A    between atoms: C_12  and  N_13
REMARK    6  A    between atoms: C_14  and  C_16
REMARK    7  A    between atoms: C_16  and  C_17
REMARK    8  A    between atoms: C_17  and  C_18
REMARK                            x       y       z     vdW  Elec       q    Type
REMARK                         _______ _______ _______ _____ _____    ______ ____
ROOT
ATOM      1  C   UNL     1       6.225   4.659  15.114  0.00  0.00    +0.000 A 
ATOM      2  C   UNL     1       4.947   5.333  15.394  0.00  0.00    +0.000 A 
ATOM      3  C   UNL     1       4.607   5.654  16.652  0.00  0.00    +0.000 A 
ATOM      4  N   UNL     1       5.486   5.354  17.688  0.00  0.00    +0.000 N 
ATOM      5  C   UNL     1       5.416   5.525  19.051  0.00  0.00    +0.000 A 
ATOM      6  N   UNL     1       6.543   5.115  19.605  0.00  0.00    +0.000 NA
ATOM      7  N   UNL     1       7.354   4.621  18.613  0.00  0.00    +0.000 NA
ATOM      8  C   UNL     1       6.719   4.750  17.469  0.00  0.00    +0.000 A 
ATOM      9  C   UNL     1       7.071   4.395  16.139  0.00  0.00    +0.000 A 
ENDROOT
BRANCH   1  13
ATOM     10  C   UNL     1       6.749   3.301  11.915  0.00  0.00    +0.000 A 
ATOM     11  N   UNL     1       7.555   4.353  11.751  0.00  0.00    +0.000 NA
ATOM     12  O   UNL     1       7.467   5.009  12.977  0.00  0.00    +0.000 OA
ATOM     13  C   UNL     1       6.601   4.287  13.782  0.00  0.00    +0.000 A 
ATOM     14  N   UNL     1       6.158   3.218  13.141  0.00  0.00    +0.000 NA
BRANCH  10  16
ATOM     15  C   UNL     1       6.349   0.918  11.380  0.00  0.00    +0.000 C 
ATOM     16  C   UNL     1       6.434   2.336  10.837  0.00  0.00    +0.000 C 
ENDBRANCH  10  16
ENDBRANCH   1  13
BRANCH   5  17
ATOM     17  C   UNL     1       4.239   6.041  19.791  0.00  0.00    +0.000 C 
BRANCH  17  18
ATOM     18  N   UNL     1       3.468   4.938  20.312  0.00  0.00    +0.000 N 
ATOM     19  C   UNL     1       2.162   5.090  20.711  0.00  0.00    +0.000 C 
ATOM     20  O   UNL     1       1.605   6.180  20.765  0.00  0.00    +0.000 OA
ATOM     21  H   UNL     1       3.955   4.071  20.505  0.00  0.00    +0.000 HD
BRANCH  19  22
ATOM     22  C   UNL     1       1.491   3.785  21.086  0.00  0.00    +0.000 C 
BRANCH  22  23
ATOM     23  C   UNL     1       0.574   3.254  19.983  0.00  0.00    +0.000 C 
BRANCH  23  24
ATOM     24  C   UNL     1       1.308   2.550  18.834  0.00  0.00    +0.000 C 
ATOM     25  C   UNL     1       1.793   3.470  17.716  0.00  0.00    +0.000 C 
ATOM     26  C   UNL     1       2.817   2.618  16.976  0.00  0.00    +0.000 C 
ATOM     27  C   UNL     1       3.433   1.699  18.030  0.00  0.00    +0.000 C 
ATOM     28  C   UNL     1       2.602   1.880  19.298  0.00  0.00    +0.000 C 
ENDBRANCH  23  24
ENDBRANCH  22  23
ENDBRANCH  19  22
ENDBRANCH  17  18
ENDBRANCH   5  17
TORSDOF 7
ENDMDL
MODEL 2
REMARK VINA RESULT:      -7.6      4.142      5.136
REMARK  Name = 
REMARK  8 active torsions:
REMARK  status: ('A' for Active; 'I' for Inactive)
REMARK    1  A    between atoms: C_1  and  C_2
REMARK    2  A    between atoms: C_2  and  C_3
REMARK    3  A    between atoms: C_6  and  C_7
REMARK    4  A    between atoms: C_11  and  C_12
REMARK    5  A    between atoms: C_12  and  N_13
REMARK    6  A    between atoms: C_14  and  C_16
REMARK    7  A    between atoms: C_16  and  C_17
REMARK    8  A    between atoms: C_17  and  C_18
REMARK                            x       y       z     vdW  Elec       q    Type
REMARK                         _______ _______ _______ _____ _____    ______ ____
ROOT
ATOM      1  C   UNL     1       5.326   5.394  16.388  0.00  0.00    +0.000 A 
ATOM      2  C   UNL     1       4.861   6.748  16.729  0.00  0.00    +0.000 A 
ATOM      3  C   UNL     1       4.077   6.948  17.800  0.00  0.00    +0.000 A 
ATOM      4  N   UNL     1       3.719   5.861  18.591  0.00  0.00    +0.000 N 
ATOM      5  C   UNL     1       2.925   5.740  19.707  0.00  0.00    +0.000 A 
ATOM      6  N   UNL     1       2.938   4.485  20.123  0.00  0.00    +0.000 NA
ATOM      7  N   UNL     1       3.706   3.753  19.252  0.00  0.00    +0.000 NA
ATOM      8  C   UNL     1       4.162   4.570  18.328  0.00  0.00    +0.000 A 
ATOM      9  C   UNL     1       4.978   4.355  17.185  0.00  0.00    +0.000 A 
ENDROOT
BRANCH   1  13
ATOM     10  C   UNL     1       6.865   4.491  13.360  0.00  0.00    +0.000 A 
ATOM     11  N   UNL     1       7.868   5.254  13.801  0.00  0.00    +0.000 NA
ATOM     12  O   UNL     1       7.407   5.691  15.041  0.00  0.00    +0.000 OA
ATOM     13  C   UNL     1       6.147   5.150  15.238  0.00  0.00    +0.000 A 
ATOM     14  N   UNL     1       5.803   4.393  14.209  0.00  0.00    +0.000 NA
BRANCH  10  16
ATOM     15  C   UNL     1       5.720   2.845  11.909  0.00  0.00    +0.000 C 
ATOM     16  C   UNL     1       6.844   3.865  12.018  0.00  0.00    +0.000 C 
ENDBRANCH  10  16
ENDBRANCH   1  13
BRANCH   5  17
ATOM     17  C   UNL     1       2.136   6.834  20.320  0.00  0.00    +0.000 C 
BRANCH  17  18
ATOM     18  N   UNL     1       1.740   7.780  19.304  0.00  0.00    +0.000 N 
ATOM     19  C   UNL     1       1.274   9.032  19.621  0.00  0.00    +0.000 C 
ATOM     20  O   UNL     1       1.051   9.389  20.772  0.00  0.00    +0.000 OA
ATOM     21  H   UNL     1       1.686   7.450  18.348  0.00  0.00    +0.000 HD
BRANCH  19  22
ATOM     22  C   UNL     1       1.056   9.917  18.412  0.00  0.00    +0.000 C 
BRANCH  22  23
ATOM     23  C   UNL     1       0.069  11.055  18.683  0.00  0.00    +0.000 C 
BRANCH  23  24
ATOM     24  C   UNL     1      -1.400  10.691  18.437  0.00  0.00    +0.000 C 
ATOM     25  C   UNL     1      -2.307  11.865  18.078  0.00  0.00    +0.000 C 
ATOM     26  C   UNL     1      -3.539  11.192  17.484  0.00  0.00    +0.000 C 
ATOM     27  C   UNL     1      -3.034   9.910  16.823  0.00  0.00    +0.000 C 
ATOM     28  C   UNL     1      -1.573   9.758  17.239  0.00  0.00    +0.000 C 
ENDBRANCH  23  24
ENDBRANCH  22  23
ENDBRANCH  19  22
ENDBRANCH  17  18
ENDBRANCH   5  17
TORSDOF 7
ENDMDL
MODEL 3
REMARK VINA RESULT:      -7.5      7.713     11.995
REMARK  Name = 
REMARK  8 active torsions:
REMARK  status: ('A' for Active; 'I' for Inactive)
REMARK    1  A    between atoms: C_1  and  C_2
REMARK    2  A    between atoms: C_2  and  C_3
REMARK    3  A    between atoms: C_6  and  C_7
REMARK    4  A    between atoms: C_11  and  C_12
REMARK    5  A    between atoms: C_12  and  N_13
REMARK    6  A    between atoms: C_14  and  C_16
REMARK    7  A    between atoms: C_16  and  C_17
REMARK    8  A    between atoms: C_17  and  C_18
REMARK                            x       y       z     vdW  Elec       q    Type
REMARK                         _______ _______ _______ _____ _____    ______ ____
ROOT
ATOM      1  C   UNL     1      -2.708  12.366  22.180  0.00  0.00    +0.000 A 
ATOM      2  C   UNL     1      -2.388  12.371  20.744  0.00  0.00    +0.000 A 
ATOM      3  C   UNL     1      -1.309  11.719  20.285  0.00  0.00    +0.000 A 
ATOM      4  N   UNL     1      -0.502  11.027  21.184  0.00  0.00    +0.000 N 
ATOM      5  C   UNL     1       0.658  10.305  21.031  0.00  0.00    +0.000 A 
ATOM      6  N   UNL     1       1.015   9.795  22.197  0.00  0.00    +0.000 NA
ATOM      7  N   UNL     1       0.116  10.218  23.144  0.00  0.00    +0.000 NA
ATOM      8  C   UNL     1      -0.783  10.966  22.543  0.00  0.00    +0.000 A 
ATOM      9  C   UNL     1      -1.917  11.670  23.032  0.00  0.00    +0.000 A 
ENDROOT
BRANCH   1  13
ATOM     10  C   UNL     1      -5.729  13.549  23.534  0.00  0.00    +0.000 A 
ATOM     11  N   UNL     1      -5.146  14.747  23.431  0.00  0.00    +0.000 NA
ATOM     12  O   UNL     1      -3.903  14.444  22.878  0.00  0.00    +0.000 OA
ATOM     13  C   UNL     1      -3.844  13.072  22.699  0.00  0.00    +0.000 A 
ATOM     14  N   UNL     1      -4.974  12.505  23.089  0.00  0.00    +0.000 NA
BRANCH  10  16
ATOM     15  C   UNL     1      -7.913  14.586  24.063  0.00  0.00    +0.000 C 
ATOM     16  C   UNL     1      -7.052  13.335  24.163  0.00  0.00    +0.000 C 
ENDBRANCH  10  16
ENDBRANCH   1  13
BRANCH   5  17
ATOM     17  C   UNL     1       1.420  10.162  19.768  0.00  0.00    +0.000 C 
BRANCH  17  18
ATOM     18  N   UNL     1       1.643   8.764  19.486  0.00  0.00    +0.000 N 
ATOM     19  C   UNL     1       2.148   8.338  18.282  0.00  0.00    +0.000 C 
ATOM     20  O   UNL     1       2.329   9.090  17.332  0.00  0.00    +0.000 OA
ATOM     21  H   UNL     1       1.290   8.087  20.152  0.00  0.00    +0.000 HD
BRANCH  19  22
ATOM     22  C   UNL     1       2.443   6.853  18.245  0.00  0.00    +0.000 C 
BRANCH  22  23
ATOM     23  C   UNL     1       2.667   6.260  19.637  0.00  0.00    +0.000 C 
BRANCH  23  24
ATOM     24  C   UNL     1       1.687   5.141  20.012  0.00  0.00    +0.000 C 
ATOM     25  C   UNL     1       1.487   4.070  18.943  0.00  0.00    +0.000 C 
ATOM     26  C   UNL     1       0.851   2.918  19.711  0.00  0.00    +0.000 C 
ATOM     27  C   UNL     1       1.408   3.007  21.131  0.00  0.00    +0.000 C 
ATOM     28  C   UNL     1       2.171   4.327  21.212  0.00  0.00    +0.000 C 
ENDBRANCH  23  24
ENDBRANCH  22  23
ENDBRANCH  19  22
ENDBRANCH  17  18
ENDBRANCH   5  17
TORSDOF 7
ENDMDL
MODEL 4
REMARK VINA RESULT:      -7.4      5.494      7.197
REMARK  Name = 
REMARK  8 active torsions:
REMARK  status: ('A' for Active; 'I' for Inactive)
REMARK    1  A    between atoms: C_1  and  C_2
REMARK    2  A    between atoms: C_2  and  C_3
REMARK    3  A    between atoms: C_6  and  C_7
REMARK    4  A    between atoms: C_11  and  C_12
REMARK    5  A    between atoms: C_12  and  N_13
REMARK    6  A    between atoms: C_14  and  C_16
REMARK    7  A    between atoms: C_16  and  C_17
REMARK    8  A    between atoms: C_17  and  C_18
REMARK                            x       y       z     vdW  Elec       q    Type
REMARK                         _______ _______ _______ _____ _____    ______ ____
ROOT
ATOM      1  C   UNL     1       3.878   6.565  17.613  0.00  0.00    +0.000 A 
ATOM      2  C   UNL     1       3.548   5.829  18.844  0.00  0.00    +0.000 A 
ATOM      3  C   UNL     1       2.721   6.364  19.756  0.00  0.00    +0.000 A 
ATOM      4  N   UNL     1       2.167   7.618  19.515  0.00  0.00    +0.000 N 
ATOM      5  C   UNL     1       1.329   8.424  20.248  0.00  0.00    +0.000 A 
ATOM      6  N   UNL     1       1.049   9.514  19.555  0.00  0.00    +0.000 NA
ATOM      7  N   UNL     1       1.742   9.460  18.371  0.00  0.00    +0.000 NA
ATOM      8  C   UNL     1       2.422   8.334  18.351  0.00  0.00    +0.000 A 
ATOM      9  C   UNL     1       3.312   7.776  17.394  0.00  0.00    +0.000 A 
ENDROOT
BRANCH   1  13
ATOM     10  C   UNL     1       5.794   4.720  15.315  0.00  0.00    +0.000 A 
ATOM     11  N   UNL     1       6.346   5.903  15.035  0.00  0.00    +0.000 NA
ATOM     12  O   UNL     1       5.685   6.771  15.902  0.00  0.00    +0.000 OA
ATOM     13  C   UNL     1       4.776   6.024  16.634  0.00  0.00    +0.000 A 
ATOM     14  N   UNL     1       4.841   4.748  16.290  0.00  0.00    +0.000 NA
BRANCH  10  16
ATOM     15  C   UNL     1       6.309   3.758  13.093  0.00  0.00    +0.000 C 
ATOM     16  C   UNL     1       6.108   3.477  14.575  0.00  0.00    +0.000 C 
ENDBRANCH  10  16
ENDBRANCH   1  13
BRANCH   5  17
ATOM     17  C   UNL     1       0.854   8.142  21.623  0.00  0.00    +0.000 C 
BRANCH  17  18
ATOM     18  N   UNL     1      -0.243   9.021  21.952  0.00  0.00    +0.000 N 
ATOM     19  C   UNL     1      -0.248   9.779  23.096  0.00  0.00    +0.000 C 
ATOM     20  O   UNL     1       0.609   9.677  23.967  0.00  0.00    +0.000 OA
ATOM     21  H   UNL     1      -1.079   8.965  21.382  0.00  0.00    +0.000 HD
BRANCH  19  22
ATOM     22  C   UNL     1      -1.416  10.739  23.179  0.00  0.00    +0.000 C 
BRANCH  22  23
ATOM     23  C   UNL     1      -1.059  12.147  22.701  0.00  0.00    +0.000 C 
BRANCH  23  24
ATOM     24  C   UNL     1      -2.237  12.932  22.107  0.00  0.00    +0.000 C 
ATOM     25  C   UNL     1      -2.588  12.579  20.664  0.00  0.00    +0.000 C 
ATOM     26  C   UNL     1      -3.990  13.149  20.492  0.00  0.00    +0.000 C 
ATOM     27  C   UNL     1      -4.647  13.062  21.868  0.00  0.00    +0.000 C 
ATOM     28  C   UNL     1      -3.547  12.656  22.846  0.00  0.00    +0.000 C 
ENDBRANCH  23  24
ENDBRANCH  22  23
ENDBRANCH  19  22
ENDBRANCH  17  18
ENDBRANCH   5  17
TORSDOF 7
ENDMDL
MODEL 5
REMARK VINA RESULT:      -7.4      4.549      6.826
REMARK  Name = 
REMARK  8 active torsions:
REMARK  status: ('A' for Active; 'I' for Inactive)
REMARK    1  A    between atoms: C_1  and  C_2
REMARK    2  A    between atoms: C_2  and  C_3
REMARK    3  A    between atoms: C_6  and  C_7
REMARK    4  A    between atoms: C_11  and  C_12
REMARK    5  A    between atoms: C_12  and  N_13
REMARK    6  A    between atoms: C_14  and  C_16
REMARK    7  A    between atoms: C_16  and  C_17
REMARK    8  A    between atoms: C_17  and  C_18
REMARK                            x       y       z     vdW  Elec       q    Type
REMARK                         _______ _______ _______ _____ _____    ______ ____
ROOT
ATOM      1  C   UNL     1       8.478   8.762  18.595  0.00  0.00    +0.000 A 
ATOM      2  C   UNL     1       7.669   8.781  17.365  0.00  0.00    +0.000 A 
ATOM      3  C   UNL     1       7.113   7.651  16.899  0.00  0.00    +0.000 A 
ATOM      4  N   UNL     1       7.301   6.464  17.601  0.00  0.00    +0.000 N 
ATOM      5  C   UNL     1       6.895   5.170  17.372  0.00  0.00    +0.000 A 
ATOM      6  N   UNL     1       7.292   4.401  18.370  0.00  0.00    +0.000 NA
ATOM      7  N   UNL     1       8.009   5.175  19.249  0.00  0.00    +0.000 NA
ATOM      8  C   UNL     1       8.027   6.405  18.785  0.00  0.00    +0.000 A 
ATOM      9  C   UNL     1       8.630   7.597  19.269  0.00  0.00    +0.000 A 
ENDROOT
BRANCH   1  13
ATOM     10  C   UNL     1      10.088  11.816  19.258  0.00  0.00    +0.000 A 
ATOM     11  N   UNL     1       9.799  11.533  20.531  0.00  0.00    +0.000 NA
ATOM     12  O   UNL     1       9.150  10.304  20.440  0.00  0.00    +0.000 OA
ATOM     13  C   UNL     1       9.099   9.951  19.102  0.00  0.00    +0.000 A 
ATOM     14  N   UNL     1       9.688  10.873  18.358  0.00  0.00    +0.000 NA
BRANCH  10  16
ATOM     15  C   UNL     1      11.133  13.925  20.021  0.00  0.00    +0.000 C 
ATOM     16  C   UNL     1      10.709  13.087  18.824  0.00  0.00    +0.000 C 
ENDBRANCH  10  16
ENDBRANCH   1  13
BRANCH   5  17
ATOM     17  C   UNL     1       6.171   4.700  16.167  0.00  0.00    +0.000 C 
BRANCH  17  18
ATOM     18  N   UNL     1       5.300   3.604  16.518  0.00  0.00    +0.000 N 
ATOM     19  C   UNL     1       4.042   3.811  17.028  0.00  0.00    +0.000 C 
ATOM     20  O   UNL     1       3.620   4.921  17.330  0.00  0.00    +0.000 OA
ATOM     21  H   UNL     1       5.690   2.669  16.506  0.00  0.00    +0.000 HD
BRANCH  19  22
ATOM     22  C   UNL     1       3.240   2.537  17.190  0.00  0.00    +0.000 C 
BRANCH  22  23
ATOM     23  C   UNL     1       3.515   1.829  18.517  0.00  0.00    +0.000 C 
BRANCH  23  24
ATOM     24  C   UNL     1       2.524   2.175  19.637  0.00  0.00    +0.000 C 
ATOM     25  C   UNL     1       3.078   3.080  20.734  0.00  0.00    +0.000 C 
ATOM     26  C   UNL     1       1.826   3.595  21.433  0.00  0.00    +0.000 C 
ATOM     27  C   UNL     1       0.744   3.656  20.356  0.00  0.00    +0.000 C 
ATOM     28  C   UNL     1       1.325   2.970  19.122  0.00  0.00    +0.000 C 
ENDBRANCH  23  24
ENDBRANCH  22  23
ENDBRANCH  19  22
ENDBRANCH  17  18
ENDBRANCH   5  17
TORSDOF 7
ENDMDL
MODEL 6
REMARK VINA RESULT:      -7.4      4.427      5.961
REMARK  Name = 
REMARK  8 active torsions:
REMARK  status: ('A' for Active; 'I' for Inactive)
REMARK    1  A    between atoms: C_1  and  C_2
REMARK    2  A    between atoms: C_2  and  C_3
REMARK    3  A    between atoms: C_6  and  C_7
REMARK    4  A    between atoms: C_11  and  C_12
REMARK    5  A    between atoms: C_12  and  N_13
REMARK    6  A    between atoms: C_14  and  C_16
REMARK    7  A    between atoms: C_16  and  C_17
REMARK    8  A    between atoms: C_17  and  C_18
REMARK                            x       y       z     vdW  Elec       q    Type
REMARK                         _______ _______ _______ _____ _____    ______ ____
ROOT
ATOM      1  C   UNL     1       4.802   6.023  16.875  0.00  0.00    +0.000 A 
ATOM      2  C   UNL     1       4.523   5.266  18.106  0.00  0.00    +0.000 A 
ATOM      3  C   UNL     1       3.653   5.738  19.013  0.00  0.00    +0.000 A 
ATOM      4  N   UNL     1       3.007   6.946  18.767  0.00  0.00    +0.000 N 
ATOM      5  C   UNL     1       2.106   7.687  19.496  0.00  0.00    +0.000 A 
ATOM      6  N   UNL     1       1.747   8.751  18.800  0.00  0.00    +0.000 NA
ATOM      7  N   UNL     1       2.448   8.748  17.619  0.00  0.00    +0.000 NA
ATOM      8  C   UNL     1       3.212   7.678  17.604  0.00  0.00    +0.000 A 
ATOM      9  C   UNL     1       4.146   7.187  16.652  0.00  0.00    +0.000 A 
ENDROOT
BRANCH   1  13
ATOM     10  C   UNL     1       6.628   4.625  14.217  0.00  0.00    +0.000 A 
ATOM     11  N   UNL     1       7.663   5.252  14.779  0.00  0.00    +0.000 NA
ATOM     12  O   UNL     1       7.092   5.865  15.893  0.00  0.00    +0.000 OA
ATOM     13  C   UNL     1       5.742   5.552  15.900  0.00  0.00    +0.000 A 
ATOM     14  N   UNL     1       5.442   4.773  14.874  0.00  0.00    +0.000 NA
BRANCH  10  16
ATOM     15  C   UNL     1       5.335   3.464  12.454  0.00  0.00    +0.000 C 
ATOM     16  C   UNL     1       6.714   3.896  12.931  0.00  0.00    +0.000 C 
ENDBRANCH  10  16
ENDBRANCH   1  13
BRANCH   5  17
ATOM     17  C   UNL     1       1.648   7.371  20.869  0.00  0.00    +0.000 C 
BRANCH  17  18
ATOM     18  N   UNL     1       0.564   8.250  21.237  0.00  0.00    +0.000 N 
ATOM     19  C   UNL     1       0.734   9.274  22.136  0.00  0.00    +0.000 C 
ATOM     20  O   UNL     1       1.769   9.440  22.771  0.00  0.00    +0.000 OA
ATOM     21  H   UNL     1      -0.367   8.010  20.917  0.00  0.00    +0.000 HD
BRANCH  19  22
ATOM     22  C   UNL     1      -0.483  10.165  22.271  0.00  0.00    +0.000 C 
BRANCH  22  23
ATOM     23  C   UNL     1      -0.184  11.629  21.943  0.00  0.00    +0.000 C 
BRANCH  23  24
ATOM     24  C   UNL     1       0.502  11.846  20.588  0.00  0.00    +0.000 C 
ATOM     25  C   UNL     1      -0.399  12.400  19.487  0.00  0.00    +0.000 C 
ATOM     26  C   UNL     1       0.588  12.909  18.444  0.00  0.00    +0.000 C 
ATOM     27  C   UNL     1       1.824  13.355  19.225  0.00  0.00    +0.000 C 
ATOM     28  C   UNL     1       1.616  12.891  20.664  0.00  0.00    +0.000 C 
ENDBRANCH  23  24
ENDBRANCH  22  23
ENDBRANCH  19  22
ENDBRANCH  17  18
ENDBRANCH   5  17
TORSDOF 7
ENDMDL
MODEL 7
REMARK VINA RESULT:      -7.3      3.860      5.202
REMARK  Name = 
REMARK  8 active torsions:
REMARK  status: ('A' for Active; 'I' for Inactive)
REMARK    1  A    between atoms: C_1  and  C_2
REMARK    2  A    between atoms: C_2  and  C_3
REMARK    3  A    between atoms: C_6  and  C_7
REMARK    4  A    between atoms: C_11  and  C_12
REMARK    5  A    between atoms: C_12  and  N_13
REMARK    6  A    between atoms: C_14  and  C_16
REMARK    7  A    between atoms: C_16  and  C_17
REMARK    8  A    between atoms: C_17  and  C_18
REMARK                            x       y       z     vdW  Elec       q    Type
REMARK                         _______ _______ _______ _____ _____    ______ ____
ROOT
ATOM      1  C   UNL     1       4.932   4.974  16.727  0.00  0.00    +0.000 A 
ATOM      2  C   UNL     1       5.131   6.001  17.763  0.00  0.00    +0.000 A 
ATOM      3  C   UNL     1       4.287   6.091  18.803  0.00  0.00    +0.000 A 
ATOM      4  N   UNL     1       3.229   5.193  18.896  0.00  0.00    +0.000 N 
ATOM      5  C   UNL     1       2.204   5.049  19.802  0.00  0.00    +0.000 A 
ATOM      6  N   UNL     1       1.471   3.999  19.475  0.00  0.00    +0.000 NA
ATOM      7  N   UNL     1       1.979   3.466  18.317  0.00  0.00    +0.000 NA
ATOM      8  C   UNL     1       3.021   4.186  17.961  0.00  0.00    +0.000 A 
ATOM      9  C   UNL     1       3.904   4.101  16.851  0.00  0.00    +0.000 A 
ENDROOT
BRANCH   1  13
ATOM     10  C   UNL     1       6.662   4.342  13.734  0.00  0.00    +0.000 A 
ATOM     11  N   UNL     1       7.519   5.255  14.197  0.00  0.00    +0.000 NA
ATOM     12  O   UNL     1       6.966   5.608  15.427  0.00  0.00    +0.000 OA
ATOM     13  C   UNL     1       5.806   4.870  15.596  0.00  0.00    +0.000 A 
ATOM     14  N   UNL     1       5.611   4.071  14.559  0.00  0.00    +0.000 NA
BRANCH  10  16
ATOM     15  C   UNL     1       5.443   3.121  11.959  0.00  0.00    +0.000 C 
ATOM     16  C   UNL     1       6.770   3.725  12.392  0.00  0.00    +0.000 C 
ENDBRANCH  10  16
ENDBRANCH   1  13
BRANCH   5  17
ATOM     17  C   UNL     1       1.931   5.960  20.939  0.00  0.00    +0.000 C 
BRANCH  17  18
ATOM     18  N   UNL     1       1.161   7.092  20.485  0.00  0.00    +0.000 N 
ATOM     19  C   UNL     1       1.171   8.292  21.152  0.00  0.00    +0.000 C 
ATOM     20  O   UNL     1       1.731   8.450  22.231  0.00  0.00    +0.000 OA
ATOM     21  H   UNL     1       0.501   6.942  19.731  0.00  0.00    +0.000 HD
BRANCH  19  22
ATOM     22  C   UNL     1       0.416   9.389  20.432  0.00  0.00    +0.000 C 
BRANCH  22  23
ATOM     23  C   UNL     1       0.939   9.635  19.015  0.00  0.00    +0.000 C 
BRANCH  23  24
ATOM     24  C   UNL     1       0.074  10.584  18.177  0.00  0.00    +0.000 C 
ATOM     25  C   UNL     1      -1.345  10.093  17.902  0.00  0.00    +0.000 C 
ATOM     26  C   UNL     1      -2.077  11.355  17.460  0.00  0.00    +0.000 C 
ATOM     27  C   UNL     1      -1.404  12.507  18.204  0.00  0.00    +0.000 C 
ATOM     28  C   UNL     1      -0.167  11.921  18.879  0.00  0.00    +0.000 C 
ENDBRANCH  23  24
ENDBRANCH  22  23
ENDBRANCH  19  22
ENDBRANCH  17  18
ENDBRANCH   5  17
TORSDOF 7
ENDMDL
MODEL 8
REMARK VINA RESULT:      -7.3      7.897     12.214
REMARK  Name = 
REMARK  8 active torsions:
REMARK  status: ('A' for Active; 'I' for Inactive)
REMARK    1  A    between atoms: C_1  and  C_2
REMARK    2  A    between atoms: C_2  and  C_3
REMARK    3  A    between atoms: C_6  and  C_7
REMARK    4  A    between atoms: C_11  and  C_12
REMARK    5  A    between atoms: C_12  and  N_13
REMARK    6  A    between atoms: C_14  and  C_16
REMARK    7  A    between atoms: C_16  and  C_17
REMARK    8  A    between atoms: C_17  and  C_18
REMARK                            x       y       z     vdW  Elec       q    Type
REMARK                         _______ _______ _______ _____ _____    ______ ____
ROOT
ATOM      1  C   UNL     1      -2.862  12.481  22.342  0.00  0.00    +0.000 A 
ATOM      2  C   UNL     1      -2.635  12.460  20.888  0.00  0.00    +0.000 A 
ATOM      3  C   UNL     1      -1.599  11.783  20.370  0.00  0.00    +0.000 A 
ATOM      4  N   UNL     1      -0.748  11.089  21.225  0.00  0.00    +0.000 N 
ATOM      5  C   UNL     1       0.387  10.343  21.009  0.00  0.00    +0.000 A 
ATOM      6  N   UNL     1       0.810   9.842  22.157  0.00  0.00    +0.000 NA
ATOM      7  N   UNL     1      -0.019  10.294  23.153  0.00  0.00    +0.000 NA
ATOM      8  C   UNL     1      -0.942  11.050  22.601  0.00  0.00    +0.000 A 
ATOM      9  C   UNL     1      -2.029  11.782  23.151  0.00  0.00    +0.000 A 
ENDROOT
BRANCH   1  13
ATOM     10  C   UNL     1      -5.174  14.760  23.690  0.00  0.00    +0.000 A 
ATOM     11  N   UNL     1      -5.977  13.695  23.755  0.00  0.00    +0.000 NA
ATOM     12  O   UNL     1      -5.178  12.668  23.254  0.00  0.00    +0.000 OA
ATOM     13  C   UNL     1      -3.949  13.214  22.922  0.00  0.00    +0.000 A 
ATOM     14  N   UNL     1      -3.927  14.508  23.198  0.00  0.00    +0.000 NA
BRANCH  10  16
ATOM     15  C   UNL     1      -4.611  16.807  24.960  0.00  0.00    +0.000 C 
ATOM     16  C   UNL     1      -5.609  16.133  24.030  0.00  0.00    +0.000 C 
ENDBRANCH  10  16
ENDBRANCH   1  13
BRANCH   5  17
ATOM     17  C   UNL     1       1.063  10.170  19.702  0.00  0.00    +0.000 C 
BRANCH  17  18
ATOM     18  N   UNL     1       1.434   8.786  19.522  0.00  0.00    +0.000 N 
ATOM     19  C   UNL     1       2.088   8.351  18.396  0.00  0.00    +0.000 C 
ATOM     20  O   UNL     1       2.294   9.069  17.425  0.00  0.00    +0.000 OA
ATOM     21  H   UNL     1       1.080   8.113  20.191  0.00  0.00    +0.000 HD
BRANCH  19  22
ATOM     22  C   UNL     1       2.515   6.900  18.471  0.00  0.00    +0.000 C 
BRANCH  22  23
ATOM     23  C   UNL     1       2.330   6.300  19.866  0.00  0.00    +0.000 C 
BRANCH  23  24
ATOM     24  C   UNL     1       2.377   4.767  19.908  0.00  0.00    +0.000 C 
ATOM     25  C   UNL     1       2.032   4.146  21.258  0.00  0.00    +0.000 C 
ATOM     26  C   UNL     1       1.737   2.691  20.913  0.00  0.00    +0.000 C 
ATOM     27  C   UNL     1       1.163   2.709  19.497  0.00  0.00    +0.000 C 
ATOM     28  C   UNL     1       1.347   4.131  18.975  0.00  0.00    +0.000 C 
ENDBRANCH  23  24
ENDBRANCH  22  23
ENDBRANCH  19  22
ENDBRANCH  17  18
ENDBRANCH   5  17
TORSDOF 7
ENDMDL
MODEL 9
REMARK VINA RESULT:      -7.3      3.184      4.937
REMARK  Name = 
REMARK  8 active torsions:
REMARK  status: ('A' for Active; 'I' for Inactive)
REMARK    1  A    between atoms: C_1  and  C_2
REMARK    2  A    between atoms: C_2  and  C_3
REMARK    3  A    between atoms: C_6  and  C_7
REMARK    4  A    between atoms: C_11  and  C_12
REMARK    5  A    between atoms: C_12  and  N_13
REMARK    6  A    between atoms: C_14  and  C_16
REMARK    7  A    between atoms: C_16  and  C_17
REMARK    8  A    between atoms: C_17  and  C_18
REMARK                            x       y       z     vdW  Elec       q    Type
REMARK                         _______ _______ _______ _____ _____    ______ ____
ROOT
ATOM      1  C   UNL     1       5.364   4.278  16.870  0.00  0.00    +0.000 A 
ATOM      2  C   UNL     1       5.473   5.163  18.040  0.00  0.00    +0.000 A 
ATOM      3  C   UNL     1       4.726   4.942  19.133  0.00  0.00    +0.000 A 
ATOM      4  N   UNL     1       3.856   3.856  19.151  0.00  0.00    +0.000 N 
ATOM      5  C   UNL     1       2.961   3.393  20.086  0.00  0.00    +0.000 A 
ATOM      6  N   UNL     1       2.399   2.282  19.644  0.00  0.00    +0.000 NA
ATOM      7  N   UNL     1       2.884   2.026  18.386  0.00  0.00    +0.000 NA
ATOM      8  C   UNL     1       3.745   2.973  18.083  0.00  0.00    +0.000 A 
ATOM      9  C   UNL     1       4.523   3.217  16.920  0.00  0.00    +0.000 A 
ENDROOT
BRANCH   1  13
ATOM     10  C   UNL     1       6.887   4.430  13.706  0.00  0.00    +0.000 A 
ATOM     11  N   UNL     1       7.629   5.392  14.261  0.00  0.00    +0.000 NA
ATOM     12  O   UNL     1       7.144   5.447  15.567  0.00  0.00    +0.000 OA
ATOM     13  C   UNL     1       6.136   4.504  15.682  0.00  0.00    +0.000 A 
ATOM     14  N   UNL     1       5.974   3.857  14.540  0.00  0.00    +0.000 NA
BRANCH  10  16
ATOM     15  C   UNL     1       5.923   3.013  11.921  0.00  0.00    +0.000 C 
ATOM     16  C   UNL     1       6.967   4.061  12.274  0.00  0.00    +0.000 C 
ENDBRANCH  10  16
ENDBRANCH   1  13
BRANCH   5  17
ATOM     17  C   UNL     1       2.637   4.063  21.368  0.00  0.00    +0.000 C 
BRANCH  17  18
ATOM     18  N   UNL     1       2.536   5.488  21.163  0.00  0.00    +0.000 N 
ATOM     19  C   UNL     1       1.403   6.069  20.651  0.00  0.00    +0.000 C 
ATOM     20  O   UNL     1       0.454   5.420  20.226  0.00  0.00    +0.000 OA
ATOM     21  H   UNL     1       3.377   6.042  21.281  0.00  0.00    +0.000 HD
BRANCH  19  22
ATOM     22  C   UNL     1       1.448   7.583  20.654  0.00  0.00    +0.000 C 
BRANCH  22  23
ATOM     23  C   UNL     1       1.025   8.184  21.996  0.00  0.00    +0.000 C 
BRANCH  23  24
ATOM     24  C   UNL     1      -0.138   9.180  21.905  0.00  0.00    +0.000 C 
ATOM     25  C   UNL     1      -0.370  10.020  23.159  0.00  0.00    +0.000 C 
ATOM     26  C   UNL     1      -1.243  11.166  22.661  0.00  0.00    +0.000 C 
ATOM     27  C   UNL     1      -0.835  11.396  21.206  0.00  0.00    +0.000 C 
ATOM     28  C   UNL     1       0.093  10.243  20.831  0.00  0.00    +0.000 C 
ENDBRANCH  23  24
ENDBRANCH  22  23
ENDBRANCH  19  22
ENDBRANCH  17  18
ENDBRANCH   5  17
TORSDOF 7
ENDMDL
