MODEL 1
REMARK VINA RESULT:      -8.4      0.000      0.000
REMARK  Name = 
REMARK  4 active torsions:
REMARK  status: ('A' for Active; 'I' for Inactive)
REMARK    1  A    between atoms: C_2  and  C_3
REMARK    2  A    between atoms: N_11  and  C_12
REMARK    3  A    between atoms: C_14  and  C_15
REMARK    4  A    between atoms: C_24  and  C_25
REMARK                            x       y       z     vdW  Elec       q    Type
REMARK                         _______ _______ _______ _____ _____    ______ ____
ROOT
ATOM      1  C   UNL     1       0.935  11.520  19.356  0.00  0.00    +0.000 A 
ATOM      2  C   UNL     1       2.034  12.277  19.178  0.00  0.00    +0.000 A 
ATOM      3  C   UNL     1       1.889  13.763  19.199  0.00  0.00    +0.000 A 
ATOM      4  N   UNL     1       0.767  14.390  19.404  0.00  0.00    +0.000 NA
ATOM      5  C   UNL     1      -0.337  13.609  19.586  0.00  0.00    +0.000 A 
ATOM      6  C   UNL     1      -1.645  13.954  19.810  0.00  0.00    +0.000 A 
ATOM      7  C   UNL     1      -2.355  12.740  19.947  0.00  0.00    +0.000 A 
ATOM      8  N   UNL     1      -1.535  11.686  19.820  0.00  0.00    +0.000 NA
ATOM      9  N   UNL     1      -0.298  12.206  19.570  0.00  0.00    +0.000 N 
ENDROOT
BRANCH   1  15
ATOM     10  O   UNL     1       1.729   5.536  20.828  0.00  0.00    +0.000 OA
ATOM     11  C   UNL     1       2.135   6.076  19.796  0.00  0.00    +0.000 C 
ATOM     12  N   UNL     1       2.067   7.463  19.659  0.00  0.00    +0.000 N 
ATOM     13  C   UNL     1       2.385   8.243  18.449  0.00  0.00    +0.000 C 
ATOM     14  C   UNL     1       1.317   9.317  18.129  0.00  0.00    +0.000 C 
ATOM     15  N   UNL     1       1.013  10.114  19.335  0.00  0.00    +0.000 N 
ATOM     16  C   UNL     1       0.577   9.273  20.469  0.00  0.00    +0.000 C 
ATOM     17  C   UNL     1       1.678   8.266  20.823  0.00  0.00    +0.000 C 
BRANCH  11  18
ATOM     18  C   UNL     1       2.657   5.270  18.709  0.00  0.00    +0.000 A 
ATOM     19  C   UNL     1       1.985   4.434  17.835  0.00  0.00    +0.000 A 
ATOM     20  C   UNL     1       2.964   3.796  17.039  0.00  0.00    +0.000 A 
ATOM     21  C   UNL     1       4.178   4.268  17.480  0.00  0.00    +0.000 A 
ATOM     22  O   UNL     1       4.005   5.157  18.492  0.00  0.00    +0.000 OA
ENDBRANCH  11  18
ENDBRANCH   1  15
BRANCH   7  23
ATOM     23  C   UNL     1      -3.780  12.574  20.210  0.00  0.00    +0.000 A 
ATOM     24  C   UNL     1      -4.313  12.890  21.469  0.00  0.00    +0.000 A 
ATOM     25  C   UNL     1      -5.672  12.712  21.733  0.00  0.00    +0.000 A 
ATOM     26  C   UNL     1      -6.510  12.212  20.740  0.00  0.00    +0.000 A 
ATOM     27  C   UNL     1      -5.991  11.900  19.483  0.00  0.00    +0.000 A 
ATOM     28 CL   UNL     1      -7.030  11.279  18.263  0.00  0.00    +0.000 Cl
ATOM     29  C   UNL     1      -4.634  12.085  19.213  0.00  0.00    +0.000 A 
ENDBRANCH   7  23
BRANCH   3  30
ATOM     30  C   UNL     1       3.147  14.533  19.002  0.00  0.00    +0.000 A 
ATOM     31  C   UNL     1       4.058  14.196  17.991  0.00  0.00    +0.000 A 
ATOM     32  C   UNL     1       5.267  14.880  17.879  0.00  0.00    +0.000 A 
ATOM     33  C   UNL     1       5.563  15.919  18.760  0.00  0.00    +0.000 A 
ATOM     34  C   UNL     1       4.644  16.286  19.743  0.00  0.00    +0.000 A 
ATOM     35  C   UNL     1       3.433  15.599  19.863  0.00  0.00    +0.000 A 
ENDBRANCH   3  30
TORSDOF 4
ENDMDL
MODEL 2
REMARK VINA RESULT:      -8.3      1.052      1.330
REMARK  Name = 
REMARK  4 active torsions:
REMARK  status: ('A' for Active; 'I' for Inactive)
REMARK    1  A    between atoms: C_2  and  C_3
REMARK    2  A    between atoms: N_11  and  C_12
REMARK    3  A    between atoms: C_14  and  C_15
REMARK    4  A    between atoms: C_24  and  C_25
REMARK                            x       y       z     vdW  Elec       q    Type
REMARK                         _______ _______ _______ _____ _____    ______ ____
ROOT
ATOM      1  C   UNL     1       0.772  11.666  19.430  0.00  0.00    +0.000 A 
ATOM      2  C   UNL     1       1.848  12.434  19.176  0.00  0.00    +0.000 A 
ATOM      3  C   UNL     1       1.687  13.918  19.197  0.00  0.00    +0.000 A 
ATOM      4  N   UNL     1       0.574  14.533  19.471  0.00  0.00    +0.000 NA
ATOM      5  C   UNL     1      -0.507  13.741  19.729  0.00  0.00    +0.000 A 
ATOM      6  C   UNL     1      -1.801  14.073  20.037  0.00  0.00    +0.000 A 
ATOM      7  C   UNL     1      -2.486  12.852  20.227  0.00  0.00    +0.000 A 
ATOM      8  N   UNL     1      -1.664  11.807  20.054  0.00  0.00    +0.000 NA
ATOM      9  N   UNL     1      -0.452  12.339  19.720  0.00  0.00    +0.000 N 
ENDROOT
BRANCH   1  15
ATOM     10  O   UNL     1       1.676   5.697  20.902  0.00  0.00    +0.000 OA
ATOM     11  C   UNL     1       2.046   6.237  19.856  0.00  0.00    +0.000 C 
ATOM     12  N   UNL     1       1.957   7.623  19.715  0.00  0.00    +0.000 N 
ATOM     13  C   UNL     1       2.231   8.400  18.494  0.00  0.00    +0.000 C 
ATOM     14  C   UNL     1       1.142   9.461  18.201  0.00  0.00    +0.000 C 
ATOM     15  N   UNL     1       0.865  10.261  19.413  0.00  0.00    +0.000 N 
ATOM     16  C   UNL     1       0.472   9.419  20.563  0.00  0.00    +0.000 C 
ATOM     17  C   UNL     1       1.595   8.427  20.888  0.00  0.00    +0.000 C 
BRANCH  11  18
ATOM     18  C   UNL     1       2.544   5.432  18.758  0.00  0.00    +0.000 A 
ATOM     19  C   UNL     1       1.864   4.550  17.936  0.00  0.00    +0.000 A 
ATOM     20  C   UNL     1       2.826   3.938  17.101  0.00  0.00    +0.000 A 
ATOM     21  C   UNL     1       4.039   4.471  17.466  0.00  0.00    +0.000 A 
ATOM     22  O   UNL     1       3.882   5.372  18.470  0.00  0.00    +0.000 OA
ENDBRANCH  11  18
ENDBRANCH   1  15
BRANCH   7  23
ATOM     23  C   UNL     1      -3.889  12.671  20.584  0.00  0.00    +0.000 A 
ATOM     24  C   UNL     1      -4.827  12.290  19.611  0.00  0.00    +0.000 A 
ATOM     25  C   UNL     1      -6.174  12.138  19.941  0.00  0.00    +0.000 A 
ATOM     26  C   UNL     1      -6.597  12.369  21.248  0.00  0.00    +0.000 A 
ATOM     27  C   UNL     1      -5.672  12.742  22.223  0.00  0.00    +0.000 A 
ATOM     28 CL   UNL     1      -6.201  13.031  23.832  0.00  0.00    +0.000 Cl
ATOM     29  C   UNL     1      -4.322  12.887  21.898  0.00  0.00    +0.000 A 
ENDBRANCH   7  23
BRANCH   3  30
ATOM     30  C   UNL     1       2.921  14.701  18.914  0.00  0.00    +0.000 A 
ATOM     31  C   UNL     1       3.955  14.174  18.127  0.00  0.00    +0.000 A 
ATOM     32  C   UNL     1       5.135  14.893  17.944  0.00  0.00    +0.000 A 
ATOM     33  C   UNL     1       5.279  16.152  18.525  0.00  0.00    +0.000 A 
ATOM     34  C   UNL     1       4.238  16.700  19.276  0.00  0.00    +0.000 A 
ATOM     35  C   UNL     1       3.057  15.980  19.467  0.00  0.00    +0.000 A 
ENDBRANCH   3  30
TORSDOF 4
ENDMDL
MODEL 3
REMARK VINA RESULT:      -8.1      0.919      1.267
REMARK  Name = 
REMARK  4 active torsions:
REMARK  status: ('A' for Active; 'I' for Inactive)
REMARK    1  A    between atoms: C_2  and  C_3
REMARK    2  A    between atoms: N_11  and  C_12
REMARK    3  A    between atoms: C_14  and  C_15
REMARK    4  A    between atoms: C_24  and  C_25
REMARK                            x       y       z     vdW  Elec       q    Type
REMARK                         _______ _______ _______ _____ _____    ______ ____
ROOT
ATOM      1  C   UNL     1       0.897  11.185  19.231  0.00  0.00    +0.000 A 
ATOM      2  C   UNL     1       1.985  11.979  19.210  0.00  0.00    +0.000 A 
ATOM      3  C   UNL     1       1.788  13.459  19.193  0.00  0.00    +0.000 A 
ATOM      4  N   UNL     1       0.628  14.047  19.224  0.00  0.00    +0.000 NA
ATOM      5  C   UNL     1      -0.465  13.229  19.247  0.00  0.00    +0.000 A 
ATOM      6  C   UNL     1      -1.802  13.530  19.272  0.00  0.00    +0.000 A 
ATOM      7  C   UNL     1      -2.483  12.292  19.315  0.00  0.00    +0.000 A 
ATOM      8  N   UNL     1      -1.618  11.267  19.322  0.00  0.00    +0.000 NA
ATOM      9  N   UNL     1      -0.376  11.829  19.253  0.00  0.00    +0.000 N 
ENDROOT
BRANCH   1  15
ATOM     10  O   UNL     1       1.867   5.258  20.824  0.00  0.00    +0.000 OA
ATOM     11  C   UNL     1       2.278   5.795  19.792  0.00  0.00    +0.000 C 
ATOM     12  N   UNL     1       2.164   7.176  19.629  0.00  0.00    +0.000 N 
ATOM     13  C   UNL     1       2.481   7.946  18.413  0.00  0.00    +0.000 C 
ATOM     14  C   UNL     1       1.384   8.976  18.051  0.00  0.00    +0.000 C 
ATOM     15  N   UNL     1       1.025   9.783  19.236  0.00  0.00    +0.000 N 
ATOM     16  C   UNL     1       0.594   8.945  20.375  0.00  0.00    +0.000 C 
ATOM     17  C   UNL     1       1.722   7.984  20.770  0.00  0.00    +0.000 C 
BRANCH  11  18
ATOM     18  C   UNL     1       2.852   4.990  18.731  0.00  0.00    +0.000 A 
ATOM     19  C   UNL     1       2.218   4.224  17.769  0.00  0.00    +0.000 A 
ATOM     20  C   UNL     1       3.228   3.548  17.046  0.00  0.00    +0.000 A 
ATOM     21  C   UNL     1       4.420   3.930  17.615  0.00  0.00    +0.000 A 
ATOM     22  O   UNL     1       4.205   4.798  18.637  0.00  0.00    +0.000 OA
ENDBRANCH  11  18
ENDBRANCH   1  15
BRANCH   7  23
ATOM     23  C   UNL     1      -3.925  12.077  19.365  0.00  0.00    +0.000 A 
ATOM     24  C   UNL     1      -4.583  11.420  18.314  0.00  0.00    +0.000 A 
ATOM     25  C   UNL     1      -5.966  11.232  18.346  0.00  0.00    +0.000 A 
ATOM     26  C   UNL     1      -6.704  11.703  19.429  0.00  0.00    +0.000 A 
ATOM     27  C   UNL     1      -6.057  12.352  20.482  0.00  0.00    +0.000 A 
ATOM     28 CL   UNL     1      -6.974  12.935  21.814  0.00  0.00    +0.000 Cl
ATOM     29  C   UNL     1      -4.674  12.534  20.457  0.00  0.00    +0.000 A 
ENDBRANCH   7  23
BRANCH   3  30
ATOM     30  C   UNL     1       3.035  14.271  19.177  0.00  0.00    +0.000 A 
ATOM     31  C   UNL     1       3.549  14.795  17.983  0.00  0.00    +0.000 A 
ATOM     32  C   UNL     1       4.762  15.482  17.982  0.00  0.00    +0.000 A 
ATOM     33  C   UNL     1       5.454  15.672  19.177  0.00  0.00    +0.000 A 
ATOM     34  C   UNL     1       4.928  15.188  20.376  0.00  0.00    +0.000 A 
ATOM     35  C   UNL     1       3.717  14.493  20.380  0.00  0.00    +0.000 A 
ENDBRANCH   3  30
TORSDOF 4
ENDMDL
MODEL 4
REMARK VINA RESULT:      -8.0      4.245      8.045
REMARK  Name = 
REMARK  4 active torsions:
REMARK  status: ('A' for Active; 'I' for Inactive)
REMARK    1  A    between atoms: C_2  and  C_3
REMARK    2  A    between atoms: N_11  and  C_12
REMARK    3  A    between atoms: C_14  and  C_15
REMARK    4  A    between atoms: C_24  and  C_25
REMARK                            x       y       z     vdW  Elec       q    Type
REMARK                         _______ _______ _______ _____ _____    ______ ____
ROOT
ATOM      1  C   UNL     1       1.097  11.342  19.870  0.00  0.00    +0.000 A 
ATOM      2  C   UNL     1       1.617  10.161  19.485  0.00  0.00    +0.000 A 
ATOM      3  C   UNL     1       1.241   8.934  20.248  0.00  0.00    +0.000 A 
ATOM      4  N   UNL     1       0.417   8.917  21.255  0.00  0.00    +0.000 NA
ATOM      5  C   UNL     1      -0.103  10.121  21.631  0.00  0.00    +0.000 A 
ATOM      6  C   UNL     1      -0.976  10.438  22.639  0.00  0.00    +0.000 A 
ATOM      7  C   UNL     1      -1.189  11.833  22.551  0.00  0.00    +0.000 A 
ATOM      8  N   UNL     1      -0.491  12.363  21.537  0.00  0.00    +0.000 NA
ATOM      9  N   UNL     1       0.202  11.327  20.981  0.00  0.00    +0.000 N 
ENDROOT
BRANCH   1  15
ATOM     10  O   UNL     1       3.626  16.738  18.110  0.00  0.00    +0.000 OA
ATOM     11  C   UNL     1       2.417  16.490  18.131  0.00  0.00    +0.000 C 
ATOM     12  N   UNL     1       1.954  15.315  18.723  0.00  0.00    +0.000 N 
ATOM     13  C   UNL     1       0.568  14.814  18.713  0.00  0.00    +0.000 C 
ATOM     14  C   UNL     1       0.477  13.308  18.367  0.00  0.00    +0.000 C 
ATOM     15  N   UNL     1       1.426  12.532  19.192  0.00  0.00    +0.000 N 
ATOM     16  C   UNL     1       2.816  13.013  19.050  0.00  0.00    +0.000 C 
ATOM     17  C   UNL     1       2.903  14.484  19.472  0.00  0.00    +0.000 C 
BRANCH  11  18
ATOM     18  C   UNL     1       1.476  17.404  17.511  0.00  0.00    +0.000 A 
ATOM     19  C   UNL     1       0.244  17.838  17.967  0.00  0.00    +0.000 A 
ATOM     20  C   UNL     1      -0.320  18.630  16.941  0.00  0.00    +0.000 A 
ATOM     21  C   UNL     1       0.593  18.626  15.913  0.00  0.00    +0.000 A 
ATOM     22  O   UNL     1       1.681  17.885  16.245  0.00  0.00    +0.000 OA
ENDBRANCH  11  18
ENDBRANCH   1  15
BRANCH   7  23
ATOM     23  C   UNL     1      -2.050  12.651  23.398  0.00  0.00    +0.000 A 
ATOM     24  C   UNL     1      -3.333  12.204  23.752  0.00  0.00    +0.000 A 
ATOM     25  C   UNL     1      -4.169  12.992  24.544  0.00  0.00    +0.000 A 
ATOM     26  C   UNL     1      -3.731  14.238  24.986  0.00  0.00    +0.000 A 
ATOM     27  C   UNL     1      -2.455  14.688  24.646  0.00  0.00    +0.000 A 
ATOM     28 CL   UNL     1      -1.923  16.228  25.191  0.00  0.00    +0.000 Cl
ATOM     29  C   UNL     1      -1.613  13.899  23.861  0.00  0.00    +0.000 A 
ENDBRANCH   7  23
BRANCH   3  30
ATOM     30  C   UNL     1       1.849   7.665  19.762  0.00  0.00    +0.000 A 
ATOM     31  C   UNL     1       1.772   6.484  20.513  0.00  0.00    +0.000 A 
ATOM     32  C   UNL     1       2.420   5.330  20.075  0.00  0.00    +0.000 A 
ATOM     33  C   UNL     1       3.127   5.343  18.874  0.00  0.00    +0.000 A 
ATOM     34  C   UNL     1       3.174   6.503  18.101  0.00  0.00    +0.000 A 
ATOM     35  C   UNL     1       2.532   7.664  18.539  0.00  0.00    +0.000 A 
ENDBRANCH   3  30
TORSDOF 4
ENDMDL
MODEL 5
REMARK VINA RESULT:      -7.7      3.872      7.883
REMARK  Name = 
REMARK  4 active torsions:
REMARK  status: ('A' for Active; 'I' for Inactive)
REMARK    1  A    between atoms: C_2  and  C_3
REMARK    2  A    between atoms: N_11  and  C_12
REMARK    3  A    between atoms: C_14  and  C_15
REMARK    4  A    between atoms: C_24  and  C_25
REMARK                            x       y       z     vdW  Elec       q    Type
REMARK                         _______ _______ _______ _____ _____    ______ ____
ROOT
ATOM      1  C   UNL     1       1.087  10.970  19.787  0.00  0.00    +0.000 A 
ATOM      2  C   UNL     1       1.605   9.769  19.467  0.00  0.00    +0.000 A 
ATOM      3  C   UNL     1       1.258   8.593  20.318  0.00  0.00    +0.000 A 
ATOM      4  N   UNL     1       0.462   8.637  21.345  0.00  0.00    +0.000 NA
ATOM      5  C   UNL     1      -0.058   9.861  21.655  0.00  0.00    +0.000 A 
ATOM      6  C   UNL     1      -0.906  10.238  22.664  0.00  0.00    +0.000 A 
ATOM      7  C   UNL     1      -1.131  11.623  22.491  0.00  0.00    +0.000 A 
ATOM      8  N   UNL     1      -0.464  12.090  21.426  0.00  0.00    +0.000 NA
ATOM      9  N   UNL     1       0.222  11.023  20.921  0.00  0.00    +0.000 N 
ENDROOT
BRANCH   1  15
ATOM     10  O   UNL     1       3.923  15.765  17.035  0.00  0.00    +0.000 OA
ATOM     11  C   UNL     1       2.827  15.814  17.600  0.00  0.00    +0.000 C 
ATOM     12  N   UNL     1       2.376  14.725  18.347  0.00  0.00    +0.000 N 
ATOM     13  C   UNL     1       1.048  14.575  18.967  0.00  0.00    +0.000 C 
ATOM     14  C   UNL     1       0.419  13.184  18.710  0.00  0.00    +0.000 C 
ATOM     15  N   UNL     1       1.390  12.115  19.025  0.00  0.00    +0.000 N 
ATOM     16  C   UNL     1       2.650  12.261  18.267  0.00  0.00    +0.000 C 
ATOM     17  C   UNL     1       3.299  13.612  18.594  0.00  0.00    +0.000 C 
BRANCH  11  18
ATOM     18  C   UNL     1       1.990  16.991  17.465  0.00  0.00    +0.000 A 
ATOM     19  C   UNL     1       1.140  17.574  18.387  0.00  0.00    +0.000 A 
ATOM     20  C   UNL     1       0.473  18.630  17.724  0.00  0.00    +0.000 A 
ATOM     21  C   UNL     1       0.946  18.625  16.433  0.00  0.00    +0.000 A 
ATOM     22  O   UNL     1       1.860  17.635  16.263  0.00  0.00    +0.000 OA
ENDBRANCH  11  18
ENDBRANCH   1  15
BRANCH   7  23
ATOM     23  C   UNL     1      -1.975  12.490  23.306  0.00  0.00    +0.000 A 
ATOM     24  C   UNL     1      -1.485  13.716  23.783  0.00  0.00    +0.000 A 
ATOM     25  C   UNL     1      -2.280  14.539  24.582  0.00  0.00    +0.000 A 
ATOM     26  C   UNL     1      -3.572  14.141  24.914  0.00  0.00    +0.000 A 
ATOM     27  C   UNL     1      -4.071  12.928  24.439  0.00  0.00    +0.000 A 
ATOM     28 CL   UNL     1      -5.665  12.441  24.858  0.00  0.00    +0.000 Cl
ATOM     29  C   UNL     1      -3.281  12.106  23.634  0.00  0.00    +0.000 A 
ENDBRANCH   7  23
BRANCH   3  30
ATOM     30  C   UNL     1       1.863   7.298  19.899  0.00  0.00    +0.000 A 
ATOM     31  C   UNL     1       2.571   7.180  18.695  0.00  0.00    +0.000 A 
ATOM     32  C   UNL     1       3.056   5.939  18.285  0.00  0.00    +0.000 A 
ATOM     33  C   UNL     1       2.858   4.816  19.086  0.00  0.00    +0.000 A 
ATOM     34  C   UNL     1       2.188   4.934  20.304  0.00  0.00    +0.000 A 
ATOM     35  C   UNL     1       1.695   6.174  20.716  0.00  0.00    +0.000 A 
ENDBRANCH   3  30
TORSDOF 4
ENDMDL
MODEL 6
REMARK VINA RESULT:      -7.6      2.669      6.795
REMARK  Name = 
REMARK  4 active torsions:
REMARK  status: ('A' for Active; 'I' for Inactive)
REMARK    1  A    between atoms: C_2  and  C_3
REMARK    2  A    between atoms: N_11  and  C_12
REMARK    3  A    between atoms: C_14  and  C_15
REMARK    4  A    between atoms: C_24  and  C_25
REMARK                            x       y       z     vdW  Elec       q    Type
REMARK                         _______ _______ _______ _____ _____    ______ ____
ROOT
ATOM      1  C   UNL     1      -0.280  11.130  19.646  0.00  0.00    +0.000 A 
ATOM      2  C   UNL     1      -1.603  11.260  19.860  0.00  0.00    +0.000 A 
ATOM      3  C   UNL     1      -2.157  12.626  20.098  0.00  0.00    +0.000 A 
ATOM      4  N   UNL     1      -1.451  13.718  20.088  0.00  0.00    +0.000 NA
ATOM      5  C   UNL     1      -0.112  13.571  19.866  0.00  0.00    +0.000 A 
ATOM      6  C   UNL     1       0.889  14.506  19.804  0.00  0.00    +0.000 A 
ATOM      7  C   UNL     1       2.076  13.793  19.523  0.00  0.00    +0.000 A 
ATOM      8  N   UNL     1       1.834  12.480  19.410  0.00  0.00    +0.000 NA
ATOM      9  N   UNL     1       0.498  12.327  19.645  0.00  0.00    +0.000 N 
ENDROOT
BRANCH   1  15
ATOM     10  O   UNL     1       2.653   5.688  20.268  0.00  0.00    +0.000 OA
ATOM     11  C   UNL     1       2.808   6.478  19.333  0.00  0.00    +0.000 C 
ATOM     12  N   UNL     1       2.242   7.752  19.393  0.00  0.00    +0.000 N 
ATOM     13  C   UNL     1       2.222   8.756  18.314  0.00  0.00    +0.000 C 
ATOM     14  C   UNL     1       0.830   9.408  18.127  0.00  0.00    +0.000 C 
ATOM     15  N   UNL     1       0.297   9.865  19.427  0.00  0.00    +0.000 N 
ATOM     16  C   UNL     1       0.227   8.772  20.420  0.00  0.00    +0.000 C 
ATOM     17  C   UNL     1       1.627   8.190  20.651  0.00  0.00    +0.000 C 
BRANCH  11  18
ATOM     18  C   UNL     1       3.550   6.075  18.155  0.00  0.00    +0.000 A 
ATOM     19  C   UNL     1       3.503   4.884  17.452  0.00  0.00    +0.000 A 
ATOM     20  C   UNL     1       4.503   4.953  16.455  0.00  0.00    +0.000 A 
ATOM     21  C   UNL     1       5.111   6.176  16.612  0.00  0.00    +0.000 A 
ATOM     22  O   UNL     1       4.547   6.861  17.639  0.00  0.00    +0.000 OA
ENDBRANCH  11  18
ENDBRANCH   1  15
BRANCH   7  23
ATOM     23  C   UNL     1       3.417  14.343  19.349  0.00  0.00    +0.000 A 
ATOM     24  C   UNL     1       3.983  14.442  18.069  0.00  0.00    +0.000 A 
ATOM     25  C   UNL     1       5.274  14.946  17.898  0.00  0.00    +0.000 A 
ATOM     26  C   UNL     1       6.011  15.351  19.007  0.00  0.00    +0.000 A 
ATOM     27  C   UNL     1       5.454  15.262  20.284  0.00  0.00    +0.000 A 
ATOM     28 CL   UNL     1       6.371  15.760  21.649  0.00  0.00    +0.000 Cl
ATOM     29  C   UNL     1       4.161  14.767  20.457  0.00  0.00    +0.000 A 
ENDBRANCH   7  23
BRANCH   3  30
ATOM     30  C   UNL     1      -3.627  12.691  20.321  0.00  0.00    +0.000 A 
ATOM     31  C   UNL     1      -4.161  13.087  21.555  0.00  0.00    +0.000 A 
ATOM     32  C   UNL     1      -5.539  13.061  21.766  0.00  0.00    +0.000 A 
ATOM     33  C   UNL     1      -6.391  12.663  20.738  0.00  0.00    +0.000 A 
ATOM     34  C   UNL     1      -5.870  12.306  19.493  0.00  0.00    +0.000 A 
ATOM     35  C   UNL     1      -4.490  12.324  19.280  0.00  0.00    +0.000 A 
ENDBRANCH   3  30
TORSDOF 4
ENDMDL
MODEL 7
REMARK VINA RESULT:      -7.6      1.184      1.644
REMARK  Name = 
REMARK  4 active torsions:
REMARK  status: ('A' for Active; 'I' for Inactive)
REMARK    1  A    between atoms: C_2  and  C_3
REMARK    2  A    between atoms: N_11  and  C_12
REMARK    3  A    between atoms: C_14  and  C_15
REMARK    4  A    between atoms: C_24  and  C_25
REMARK                            x       y       z     vdW  Elec       q    Type
REMARK                         _______ _______ _______ _____ _____    ______ ____
ROOT
ATOM      1  C   UNL     1       0.396  11.468  19.736  0.00  0.00    +0.000 A 
ATOM      2  C   UNL     1       1.414  12.337  19.883  0.00  0.00    +0.000 A 
ATOM      3  C   UNL     1       1.101  13.794  19.970  0.00  0.00    +0.000 A 
ATOM      4  N   UNL     1      -0.100  14.292  19.939  0.00  0.00    +0.000 NA
ATOM      5  C   UNL     1      -1.121  13.398  19.792  0.00  0.00    +0.000 A 
ATOM      6  C   UNL     1      -2.476  13.598  19.715  0.00  0.00    +0.000 A 
ATOM      7  C   UNL     1      -3.056  12.315  19.592  0.00  0.00    +0.000 A 
ATOM      8  N   UNL     1      -2.116  11.359  19.596  0.00  0.00    +0.000 NA
ATOM      9  N   UNL     1      -0.921  12.013  19.691  0.00  0.00    +0.000 N 
ENDROOT
BRANCH   1  15
ATOM     10  O   UNL     1       1.826   5.533  20.894  0.00  0.00    +0.000 OA
ATOM     11  C   UNL     1       2.199   6.177  19.909  0.00  0.00    +0.000 C 
ATOM     12  N   UNL     1       1.976   7.553  19.849  0.00  0.00    +0.000 N 
ATOM     13  C   UNL     1       2.238   8.435  18.698  0.00  0.00    +0.000 C 
ATOM     14  C   UNL     1       1.065   9.399  18.401  0.00  0.00    +0.000 C 
ATOM     15  N   UNL     1       0.636  10.083  19.638  0.00  0.00    +0.000 N 
ATOM     16  C   UNL     1       0.266   9.131  20.706  0.00  0.00    +0.000 C 
ATOM     17  C   UNL     1       1.464   8.235  21.042  0.00  0.00    +0.000 C 
BRANCH  11  18
ATOM     18  C   UNL     1       2.841   5.501  18.798  0.00  0.00    +0.000 A 
ATOM     19  C   UNL     1       2.304   4.620  17.877  0.00  0.00    +0.000 A 
ATOM     20  C   UNL     1       3.372   4.161  17.072  0.00  0.00    +0.000 A 
ATOM     21  C   UNL     1       4.501   4.779  17.554  0.00  0.00    +0.000 A 
ATOM     22  O   UNL     1       4.194   5.588  18.600  0.00  0.00    +0.000 OA
ENDBRANCH  11  18
ENDBRANCH   1  15
BRANCH   7  23
ATOM     23  C   UNL     1      -4.475  11.993  19.488  0.00  0.00    +0.000 A 
ATOM     24  C   UNL     1      -4.991  11.426  18.313  0.00  0.00    +0.000 A 
ATOM     25  C   UNL     1      -6.352  11.137  18.200  0.00  0.00    +0.000 A 
ATOM     26  C   UNL     1      -7.210  11.415  19.261  0.00  0.00    +0.000 A 
ATOM     27  C   UNL     1      -6.705  11.972  20.436  0.00  0.00    +0.000 A 
ATOM     28 CL   UNL     1      -7.769  12.318  21.740  0.00  0.00    +0.000 Cl
ATOM     29  C   UNL     1      -5.343  12.255  20.556  0.00  0.00    +0.000 A 
ENDBRANCH   7  23
BRANCH   3  30
ATOM     30  C   UNL     1       2.276  14.694  20.138  0.00  0.00    +0.000 A 
ATOM     31  C   UNL     1       2.136  16.088  20.115  0.00  0.00    +0.000 A 
ATOM     32  C   UNL     1       3.261  16.908  20.192  0.00  0.00    +0.000 A 
ATOM     33  C   UNL     1       4.527  16.340  20.317  0.00  0.00    +0.000 A 
ATOM     34  C   UNL     1       4.671  14.954  20.381  0.00  0.00    +0.000 A 
ATOM     35  C   UNL     1       3.547  14.128  20.297  0.00  0.00    +0.000 A 
ENDBRANCH   3  30
TORSDOF 4
ENDMDL
MODEL 8
REMARK VINA RESULT:      -7.6      3.977      8.636
REMARK  Name = 
REMARK  4 active torsions:
REMARK  status: ('A' for Active; 'I' for Inactive)
REMARK    1  A    between atoms: C_2  and  C_3
REMARK    2  A    between atoms: N_11  and  C_12
REMARK    3  A    between atoms: C_14  and  C_15
REMARK    4  A    between atoms: C_24  and  C_25
REMARK                            x       y       z     vdW  Elec       q    Type
REMARK                         _______ _______ _______ _____ _____    ______ ____
ROOT
ATOM      1  C   UNL     1       0.445  12.749  21.035  0.00  0.00    +0.000 A 
ATOM      2  C   UNL     1      -0.489  13.211  21.888  0.00  0.00    +0.000 A 
ATOM      3  C   UNL     1      -1.378  12.228  22.575  0.00  0.00    +0.000 A 
ATOM      4  N   UNL     1      -1.300  10.937  22.428  0.00  0.00    +0.000 NA
ATOM      5  C   UNL     1      -0.347  10.484  21.563  0.00  0.00    +0.000 A 
ATOM      6  C   UNL     1      -0.021   9.206  21.187  0.00  0.00    +0.000 A 
ATOM      7  C   UNL     1       1.061   9.326  20.285  0.00  0.00    +0.000 A 
ATOM      8  N   UNL     1       1.400  10.611  20.106  0.00  0.00    +0.000 NA
ATOM      9  N   UNL     1       0.524  11.334  20.865  0.00  0.00    +0.000 N 
ENDROOT
BRANCH   1  15
ATOM     10  O   UNL     1       3.774  15.748  16.731  0.00  0.00    +0.000 OA
ATOM     11  C   UNL     1       4.189  15.402  17.840  0.00  0.00    +0.000 C 
ATOM     12  N   UNL     1       3.415  14.569  18.648  0.00  0.00    +0.000 N 
ATOM     13  C   UNL     1       3.706  14.178  20.039  0.00  0.00    +0.000 C 
ATOM     14  C   UNL     1       2.472  14.295  20.966  0.00  0.00    +0.000 C 
ATOM     15  N   UNL     1       1.303  13.633  20.353  0.00  0.00    +0.000 N 
ATOM     16  C   UNL     1       0.994  14.169  19.010  0.00  0.00    +0.000 C 
ATOM     17  C   UNL     1       2.199  13.973  18.083  0.00  0.00    +0.000 C 
BRANCH  11  18
ATOM     18  C   UNL     1       5.469  15.886  18.321  0.00  0.00    +0.000 A 
ATOM     19  C   UNL     1       5.772  17.069  18.973  0.00  0.00    +0.000 A 
ATOM     20  C   UNL     1       7.177  17.109  19.123  0.00  0.00    +0.000 A 
ATOM     21  C   UNL     1       7.653  15.956  18.545  0.00  0.00    +0.000 A 
ATOM     22  O   UNL     1       6.630  15.211  18.053  0.00  0.00    +0.000 OA
ENDBRANCH  11  18
ENDBRANCH   1  15
BRANCH   7  23
ATOM     23  C   UNL     1       1.775   8.246  19.613  0.00  0.00    +0.000 A 
ATOM     24  C   UNL     1       2.272   8.423  18.312  0.00  0.00    +0.000 A 
ATOM     25  C   UNL     1       2.936   7.386  17.655  0.00  0.00    +0.000 A 
ATOM     26  C   UNL     1       3.106   6.160  18.294  0.00  0.00    +0.000 A 
ATOM     27  C   UNL     1       2.622   5.976  19.589  0.00  0.00    +0.000 A 
ATOM     28 CL   UNL     1       2.831   4.459  20.369  0.00  0.00    +0.000 Cl
ATOM     29  C   UNL     1       1.964   7.014  20.251  0.00  0.00    +0.000 A 
ENDBRANCH   7  23
BRANCH   3  30
ATOM     30  C   UNL     1      -2.381  12.812  23.507  0.00  0.00    +0.000 A 
ATOM     31  C   UNL     1      -3.550  12.118  23.850  0.00  0.00    +0.000 A 
ATOM     32  C   UNL     1      -4.512  12.720  24.659  0.00  0.00    +0.000 A 
ATOM     33  C   UNL     1      -4.302  14.007  25.149  0.00  0.00    +0.000 A 
ATOM     34  C   UNL     1      -3.123  14.689  24.845  0.00  0.00    +0.000 A 
ATOM     35  C   UNL     1      -2.158  14.092  24.030  0.00  0.00    +0.000 A 
ENDBRANCH   3  30
TORSDOF 4
ENDMDL
MODEL 9
REMARK VINA RESULT:      -7.5      3.675      8.316
REMARK  Name = 
REMARK  4 active torsions:
REMARK  status: ('A' for Active; 'I' for Inactive)
REMARK    1  A    between atoms: C_2  and  C_3
REMARK    2  A    between atoms: N_11  and  C_12
REMARK    3  A    between atoms: C_14  and  C_15
REMARK    4  A    between atoms: C_24  and  C_25
REMARK                            x       y       z     vdW  Elec       q    Type
REMARK                         _______ _______ _______ _____ _____    ______ ____
ROOT
ATOM      1  C   UNL     1      -0.679  11.050  18.810  0.00  0.00    +0.000 A 
ATOM      2  C   UNL     1      -0.022   9.875  18.771  0.00  0.00    +0.000 A 
ATOM      3  C   UNL     1       1.462   9.892  18.615  0.00  0.00    +0.000 A 
ATOM      4  N   UNL     1       2.182  10.973  18.538  0.00  0.00    +0.000 NA
ATOM      5  C   UNL     1       1.502  12.156  18.581  0.00  0.00    +0.000 A 
ATOM      6  C   UNL     1       1.957  13.448  18.515  0.00  0.00    +0.000 A 
ATOM      7  C   UNL     1       0.816  14.273  18.634  0.00  0.00    +0.000 A 
ATOM      8  N   UNL     1      -0.297  13.540  18.772  0.00  0.00    +0.000 NA
ATOM      9  N   UNL     1       0.108  12.237  18.714  0.00  0.00    +0.000 N 
ENDROOT
BRANCH   1  15
ATOM     10  O   UNL     1      -6.794  11.434  17.778  0.00  0.00    +0.000 OA
ATOM     11  C   UNL     1      -6.186  12.015  18.680  0.00  0.00    +0.000 C 
ATOM     12  N   UNL     1      -4.791  12.007  18.701  0.00  0.00    +0.000 N 
ATOM     13  C   UNL     1      -3.926  12.535  19.771  0.00  0.00    +0.000 C 
ATOM     14  C   UNL     1      -2.785  11.562  20.155  0.00  0.00    +0.000 C 
ATOM     15  N   UNL     1      -2.080  11.092  18.944  0.00  0.00    +0.000 N 
ATOM     16  C   UNL     1      -2.996  10.458  17.973  0.00  0.00    +0.000 C 
ATOM     17  C   UNL     1      -4.074  11.461  17.544  0.00  0.00    +0.000 C 
BRANCH  11  18
ATOM     18  C   UNL     1      -6.919  12.680  19.740  0.00  0.00    +0.000 A 
ATOM     19  C   UNL     1      -7.353  13.992  19.819  0.00  0.00    +0.000 A 
ATOM     20  C   UNL     1      -7.916  14.164  21.104  0.00  0.00    +0.000 A 
ATOM     21  C   UNL     1      -7.785  12.953  21.741  0.00  0.00    +0.000 A 
ATOM     22  O   UNL     1      -7.179  12.049  20.929  0.00  0.00    +0.000 OA
ENDBRANCH  11  18
ENDBRANCH   1  15
BRANCH   7  23
ATOM     23  C   UNL     1       0.777  15.732  18.634  0.00  0.00    +0.000 A 
ATOM     24  C   UNL     1       1.945  16.475  18.861  0.00  0.00    +0.000 A 
ATOM     25  C   UNL     1       1.909  17.870  18.884  0.00  0.00    +0.000 A 
ATOM     26  C   UNL     1       0.702  18.535  18.683  0.00  0.00    +0.000 A 
ATOM     27  C   UNL     1      -0.464  17.805  18.449  0.00  0.00    +0.000 A 
ATOM     28 CL   UNL     1      -1.951  18.631  18.207  0.00  0.00    +0.000 Cl
ATOM     29  C   UNL     1      -0.429  16.410  18.418  0.00  0.00    +0.000 A 
ENDBRANCH   7  23
BRANCH   3  30
ATOM     30  C   UNL     1       2.119   8.556  18.588  0.00  0.00    +0.000 A 
ATOM     31  C   UNL     1       1.927   7.628  19.621  0.00  0.00    +0.000 A 
ATOM     32  C   UNL     1       2.618   6.417  19.614  0.00  0.00    +0.000 A 
ATOM     33  C   UNL     1       3.484   6.117  18.564  0.00  0.00    +0.000 A 
ATOM     34  C   UNL     1       3.649   7.019  17.512  0.00  0.00    +0.000 A 
ATOM     35  C   UNL     1       2.964   8.236  17.518  0.00  0.00    +0.000 A 
ENDBRANCH   3  30
TORSDOF 4
ENDMDL
