MODEL 1
REMARK VINA RESULT:      -8.2      0.000      0.000
REMARK  Name = 
REMARK  7 active torsions:
REMARK  status: ('A' for Active; 'I' for Inactive)
REMARK    1  A    between atoms: C_1  and  C_2
REMARK    2  A    between atoms: C_2  and  C_3
REMARK    3  A    between atoms: C_7  and  C_8
REMARK    4  A    between atoms: C_9  and  N_10
REMARK    5  A    between atoms: C_11  and  C_13
REMARK    6  A    between atoms: C_13  and  C_14
REMARK    7  A    between atoms: C_14  and  N_15
REMARK                            x       y       z     vdW  Elec       q    Type
REMARK                         _______ _______ _______ _____ _____    ______ ____
ROOT
ATOM      1  N   UNL     1       3.863   5.521  18.985  0.00  0.00    +0.000 N 
ATOM      2  C   UNL     1       3.446   6.759  18.565  0.00  0.00    +0.000 C 
ATOM      3  O   UNL     1       2.493   7.356  19.062  0.00  0.00    +0.000 OA
ATOM      4  H   UNL     1       4.659   5.117  18.488  0.00  0.00    +0.000 HD
ENDROOT
BRANCH   1  13
ATOM      5  C   UNL     1       0.910   1.907  18.889  0.00  0.00    +0.000 C 
ATOM      6  C   UNL     1       1.535   3.300  19.121  0.00  0.00    +0.000 C 
ATOM      7  C   UNL     1       1.378   4.045  17.783  0.00  0.00    +0.000 C 
ATOM      8  C   UNL     1       0.962   4.066  20.338  0.00  0.00    +0.000 C 
ATOM      9  C   UNL     1       1.342   3.173  21.539  0.00  0.00    +0.000 C 
ATOM     10  C   UNL     1       2.716   2.617  21.131  0.00  0.00    +0.000 C 
ATOM     11  C   UNL     1       2.965   3.281  19.745  0.00  0.00    +0.000 C 
ATOM     12  C   UNL     1       4.039   2.544  18.960  0.00  0.00    +0.000 C 
ATOM     13  C   UNL     1       3.260   4.788  20.068  0.00  0.00    +0.000 C 
ATOM     14  C   UNL     1       1.855   5.325  20.432  0.00  0.00    +0.000 C 
ENDBRANCH   1  13
BRANCH   2  15
ATOM     15  C   UNL     1       4.188   7.300  17.359  0.00  0.00    +0.000 C 
BRANCH  15  16
ATOM     16  C   UNL     1       4.844   6.229  16.478  0.00  0.00    +0.000 C 
BRANCH  16  17
ATOM     17  N   UNL     1       6.249   6.512  16.097  0.00  0.00    +0.000 NA
ATOM     18  C   UNL     1       7.160   6.681  17.253  0.00  0.00    +0.000 C 
ATOM     19  C   UNL     1       7.415   5.380  18.022  0.00  0.00    +0.000 C 
ATOM     20  O   UNL     1       7.964   4.379  17.156  0.00  0.00    +0.000 OA
ATOM     21  C   UNL     1       7.111   4.135  16.030  0.00  0.00    +0.000 C 
ATOM     22  C   UNL     1       6.803   5.427  15.252  0.00  0.00    +0.000 C 
ENDBRANCH  16  17
ENDBRANCH  15  16
ENDBRANCH   2  15
TORSDOF 4
ENDMDL
MODEL 2
REMARK VINA RESULT:      -7.9      1.548      2.071
REMARK  Name = 
REMARK  7 active torsions:
REMARK  status: ('A' for Active; 'I' for Inactive)
REMARK    1  A    between atoms: C_1  and  C_2
REMARK    2  A    between atoms: C_2  and  C_3
REMARK    3  A    between atoms: C_7  and  C_8
REMARK    4  A    between atoms: C_9  and  N_10
REMARK    5  A    between atoms: C_11  and  C_13
REMARK    6  A    between atoms: C_13  and  C_14
REMARK    7  A    between atoms: C_14  and  N_15
REMARK                            x       y       z     vdW  Elec       q    Type
REMARK                         _______ _______ _______ _____ _____    ______ ____
ROOT
ATOM      1  N   UNL     1       3.883   5.659  18.859  0.00  0.00    +0.000 N 
ATOM      2  C   UNL     1       5.225   5.875  18.670  0.00  0.00    +0.000 C 
ATOM      3  O   UNL     1       6.092   5.446  19.428  0.00  0.00    +0.000 OA
ATOM      4  H   UNL     1       3.254   6.075  18.170  0.00  0.00    +0.000 HD
ENDROOT
BRANCH   1  13
ATOM      5  C   UNL     1       0.852   2.110  18.778  0.00  0.00    +0.000 C 
ATOM      6  C   UNL     1       1.520   3.478  19.036  0.00  0.00    +0.000 C 
ATOM      7  C   UNL     1       1.297   4.290  17.747  0.00  0.00    +0.000 C 
ATOM      8  C   UNL     1       1.040   4.195  20.322  0.00  0.00    +0.000 C 
ATOM      9  C   UNL     1       1.474   3.238  21.453  0.00  0.00    +0.000 C 
ATOM     10  C   UNL     1       2.807   2.677  20.934  0.00  0.00    +0.000 C 
ATOM     11  C   UNL     1       2.985   3.402  19.567  0.00  0.00    +0.000 C 
ATOM     12  C   UNL     1       3.992   2.684  18.683  0.00  0.00    +0.000 C 
ATOM     13  C   UNL     1       3.332   4.886  19.942  0.00  0.00    +0.000 C 
ATOM     14  C   UNL     1       1.964   5.431  20.419  0.00  0.00    +0.000 C 
ENDBRANCH   1  13
BRANCH   2  15
ATOM     15  C   UNL     1       5.560   6.781  17.502  0.00  0.00    +0.000 C 
BRANCH  15  16
ATOM     16  C   UNL     1       5.506   6.099  16.128  0.00  0.00    +0.000 C 
BRANCH  16  17
ATOM     17  N   UNL     1       6.139   4.759  16.074  0.00  0.00    +0.000 NA
ATOM     18  C   UNL     1       5.338   3.747  15.347  0.00  0.00    +0.000 C 
ATOM     19  C   UNL     1       5.264   3.999  13.838  0.00  0.00    +0.000 C 
ATOM     20  O   UNL     1       6.576   4.032  13.265  0.00  0.00    +0.000 OA
ATOM     21  C   UNL     1       7.399   5.021  13.897  0.00  0.00    +0.000 C 
ATOM     22  C   UNL     1       7.469   4.821  15.421  0.00  0.00    +0.000 C 
ENDBRANCH  16  17
ENDBRANCH  15  16
ENDBRANCH   2  15
TORSDOF 4
ENDMDL
MODEL 3
REMARK VINA RESULT:      -7.8      0.902      2.019
REMARK  Name = 
REMARK  7 active torsions:
REMARK  status: ('A' for Active; 'I' for Inactive)
REMARK    1  A    between atoms: C_1  and  C_2
REMARK    2  A    between atoms: C_2  and  C_3
REMARK    3  A    between atoms: C_7  and  C_8
REMARK    4  A    between atoms: C_9  and  N_10
REMARK    5  A    between atoms: C_11  and  C_13
REMARK    6  A    between atoms: C_13  and  C_14
REMARK    7  A    between atoms: C_14  and  N_15
REMARK                            x       y       z     vdW  Elec       q    Type
REMARK                         _______ _______ _______ _____ _____    ______ ____
ROOT
ATOM      1  N   UNL     1       3.217   5.413  17.844  0.00  0.00    +0.000 N 
ATOM      2  C   UNL     1       3.172   6.781  17.741  0.00  0.00    +0.000 C 
ATOM      3  O   UNL     1       2.166   7.445  17.985  0.00  0.00    +0.000 OA
ATOM      4  H   UNL     1       4.104   4.969  17.602  0.00  0.00    +0.000 HD
ENDROOT
BRANCH   1  13
ATOM      5  C   UNL     1       2.947   2.322  21.331  0.00  0.00    +0.000 C 
ATOM      6  C   UNL     1       2.956   2.975  19.932  0.00  0.00    +0.000 C 
ATOM      7  C   UNL     1       4.441   3.087  19.544  0.00  0.00    +0.000 C 
ATOM      8  C   UNL     1       2.083   2.249  18.879  0.00  0.00    +0.000 C 
ATOM      9  C   UNL     1       0.653   2.372  19.448  0.00  0.00    +0.000 C 
ATOM     10  C   UNL     1       0.664   3.762  20.104  0.00  0.00    +0.000 C 
ATOM     11  C   UNL     1       2.104   4.277  19.811  0.00  0.00    +0.000 C 
ATOM     12  C   UNL     1       2.482   5.426  20.734  0.00  0.00    +0.000 C 
ATOM     13  C   UNL     1       2.111   4.597  18.275  0.00  0.00    +0.000 C 
ATOM     14  C   UNL     1       2.143   3.182  17.647  0.00  0.00    +0.000 C 
ENDBRANCH   1  13
BRANCH   2  15
ATOM     15  C   UNL     1       4.436   7.415  17.196  0.00  0.00    +0.000 C 
BRANCH  15  16
ATOM     16  C   UNL     1       5.196   6.553  16.179  0.00  0.00    +0.000 C 
BRANCH  16  17
ATOM     17  N   UNL     1       6.674   6.630  16.282  0.00  0.00    +0.000 NA
ATOM     18  C   UNL     1       7.166   6.917  17.650  0.00  0.00    +0.000 C 
ATOM     19  C   UNL     1       6.952   5.757  18.628  0.00  0.00    +0.000 C 
ATOM     20  O   UNL     1       7.600   4.570  18.156  0.00  0.00    +0.000 OA
ATOM     21  C   UNL     1       7.142   4.209  16.846  0.00  0.00    +0.000 C 
ATOM     22  C   UNL     1       7.307   5.363  15.841  0.00  0.00    +0.000 C 
ENDBRANCH  16  17
ENDBRANCH  15  16
ENDBRANCH   2  15
TORSDOF 4
ENDMDL
MODEL 4
REMARK VINA RESULT:      -7.6      1.569      2.047
REMARK  Name = 
REMARK  7 active torsions:
REMARK  status: ('A' for Active; 'I' for Inactive)
REMARK    1  A    between atoms: C_1  and  C_2
REMARK    2  A    between atoms: C_2  and  C_3
REMARK    3  A    between atoms: C_7  and  C_8
REMARK    4  A    between atoms: C_9  and  N_10
REMARK    5  A    between atoms: C_11  and  C_13
REMARK    6  A    between atoms: C_13  and  C_14
REMARK    7  A    between atoms: C_14  and  N_15
REMARK                            x       y       z     vdW  Elec       q    Type
REMARK                         _______ _______ _______ _____ _____    ______ ____
ROOT
ATOM      1  N   UNL     1       4.253   5.455  19.255  0.00  0.00    +0.000 N 
ATOM      2  C   UNL     1       5.623   5.495  19.177  0.00  0.00    +0.000 C 
ATOM      3  O   UNL     1       6.362   4.879  19.942  0.00  0.00    +0.000 OA
ATOM      4  H   UNL     1       3.743   6.019  18.574  0.00  0.00    +0.000 HD
ENDROOT
BRANCH   1  13
ATOM      5  C   UNL     1       0.849   2.329  18.605  0.00  0.00    +0.000 C 
ATOM      6  C   UNL     1       1.645   3.578  19.040  0.00  0.00    +0.000 C 
ATOM      7  C   UNL     1       1.637   4.514  17.818  0.00  0.00    +0.000 C 
ATOM      8  C   UNL     1       1.138   4.242  20.344  0.00  0.00    +0.000 C 
ATOM      9  C   UNL     1       1.353   3.149  21.414  0.00  0.00    +0.000 C 
ATOM     10  C   UNL     1       2.653   2.470  20.954  0.00  0.00    +0.000 C 
ATOM     11  C   UNL     1       3.038   3.278  19.679  0.00  0.00    +0.000 C 
ATOM     12  C   UNL     1       4.030   2.514  18.815  0.00  0.00    +0.000 C 
ATOM     13  C   UNL     1       3.520   4.671  20.215  0.00  0.00    +0.000 C 
ATOM     14  C   UNL     1       2.187   5.341  20.629  0.00  0.00    +0.000 C 
ENDBRANCH   1  13
BRANCH   2  15
ATOM     15  C   UNL     1       6.168   6.449  18.133  0.00  0.00    +0.000 C 
BRANCH  15  16
ATOM     16  C   UNL     1       7.129   5.810  17.122  0.00  0.00    +0.000 C 
BRANCH  16  17
ATOM     17  N   UNL     1       6.782   6.047  15.699  0.00  0.00    +0.000 NA
ATOM     18  C   UNL     1       7.253   4.983  14.782  0.00  0.00    +0.000 C 
ATOM     19  C   UNL     1       6.506   3.656  14.957  0.00  0.00    +0.000 C 
ATOM     20  O   UNL     1       5.100   3.836  14.755  0.00  0.00    +0.000 OA
ATOM     21  C   UNL     1       4.566   4.829  15.641  0.00  0.00    +0.000 C 
ATOM     22  C   UNL     1       5.315   6.168  15.519  0.00  0.00    +0.000 C 
ENDBRANCH  16  17
ENDBRANCH  15  16
ENDBRANCH   2  15
TORSDOF 4
ENDMDL
MODEL 5
REMARK VINA RESULT:      -7.5      1.815      2.662
REMARK  Name = 
REMARK  7 active torsions:
REMARK  status: ('A' for Active; 'I' for Inactive)
REMARK    1  A    between atoms: C_1  and  C_2
REMARK    2  A    between atoms: C_2  and  C_3
REMARK    3  A    between atoms: C_7  and  C_8
REMARK    4  A    between atoms: C_9  and  N_10
REMARK    5  A    between atoms: C_11  and  C_13
REMARK    6  A    between atoms: C_13  and  C_14
REMARK    7  A    between atoms: C_14  and  N_15
REMARK                            x       y       z     vdW  Elec       q    Type
REMARK                         _______ _______ _______ _____ _____    ______ ____
ROOT
ATOM      1  N   UNL     1       5.159   4.824  18.408  0.00  0.00    +0.000 N 
ATOM      2  C   UNL     1       6.485   4.969  18.732  0.00  0.00    +0.000 C 
ATOM      3  O   UNL     1       6.880   5.240  19.864  0.00  0.00    +0.000 OA
ATOM      4  H   UNL     1       4.951   4.612  17.432  0.00  0.00    +0.000 HD
ENDROOT
BRANCH   1  13
ATOM      5  C   UNL     1       1.267   2.286  18.850  0.00  0.00    +0.000 C 
ATOM      6  C   UNL     1       2.254   3.451  18.620  0.00  0.00    +0.000 C 
ATOM      7  C   UNL     1       2.722   3.307  17.161  0.00  0.00    +0.000 C 
ATOM      8  C   UNL     1       1.687   4.850  18.965  0.00  0.00    +0.000 C 
ATOM      9  C   UNL     1       1.405   4.763  20.480  0.00  0.00    +0.000 C 
ATOM     10  C   UNL     1       2.555   3.881  20.993  0.00  0.00    +0.000 C 
ATOM     11  C   UNL     1       3.373   3.585  19.701  0.00  0.00    +0.000 C 
ATOM     12  C   UNL     1       4.288   2.384  19.885  0.00  0.00    +0.000 C 
ATOM     13  C   UNL     1       4.079   4.942  19.353  0.00  0.00    +0.000 C 
ATOM     14  C   UNL     1       2.905   5.789  18.802  0.00  0.00    +0.000 C 
ENDBRANCH   1  13
BRANCH   2  15
ATOM     15  C   UNL     1       7.436   4.873  17.555  0.00  0.00    +0.000 C 
BRANCH  15  16
ATOM     16  C   UNL     1       6.854   4.177  16.318  0.00  0.00    +0.000 C 
BRANCH  16  17
ATOM     17  N   UNL     1       6.160   5.079  15.367  0.00  0.00    +0.000 NA
ATOM     18  C   UNL     1       7.078   5.864  14.508  0.00  0.00    +0.000 C 
ATOM     19  C   UNL     1       7.822   5.011  13.475  0.00  0.00    +0.000 C 
ATOM     20  O   UNL     1       6.898   4.315  12.631  0.00  0.00    +0.000 OA
ATOM     21  C   UNL     1       5.999   3.502  13.396  0.00  0.00    +0.000 C 
ATOM     22  C   UNL     1       5.258   4.318  14.469  0.00  0.00    +0.000 C 
ENDBRANCH  16  17
ENDBRANCH  15  16
ENDBRANCH   2  15
TORSDOF 4
ENDMDL
MODEL 6
REMARK VINA RESULT:      -7.5      1.692      2.753
REMARK  Name = 
REMARK  7 active torsions:
REMARK  status: ('A' for Active; 'I' for Inactive)
REMARK    1  A    between atoms: C_1  and  C_2
REMARK    2  A    between atoms: C_2  and  C_3
REMARK    3  A    between atoms: C_7  and  C_8
REMARK    4  A    between atoms: C_9  and  N_10
REMARK    5  A    between atoms: C_11  and  C_13
REMARK    6  A    between atoms: C_13  and  C_14
REMARK    7  A    between atoms: C_14  and  N_15
REMARK                            x       y       z     vdW  Elec       q    Type
REMARK                         _______ _______ _______ _____ _____    ______ ____
ROOT
ATOM      1  N   UNL     1       5.574   4.481  18.926  0.00  0.00    +0.000 N 
ATOM      2  C   UNL     1       6.840   4.886  19.268  0.00  0.00    +0.000 C 
ATOM      3  O   UNL     1       7.097   5.503  20.300  0.00  0.00    +0.000 OA
ATOM      4  H   UNL     1       5.480   3.987  18.037  0.00  0.00    +0.000 HD
ENDROOT
BRANCH   1  13
ATOM      5  C   UNL     1       1.278   2.692  18.560  0.00  0.00    +0.000 C 
ATOM      6  C   UNL     1       2.475   3.667  18.605  0.00  0.00    +0.000 C 
ATOM      7  C   UNL     1       3.113   3.594  17.206  0.00  0.00    +0.000 C 
ATOM      8  C   UNL     1       2.115   5.103  19.058  0.00  0.00    +0.000 C 
ATOM      9  C   UNL     1       1.609   4.910  20.504  0.00  0.00    +0.000 C 
ATOM     10  C   UNL     1       2.504   3.777  21.032  0.00  0.00    +0.000 C 
ATOM     11  C   UNL     1       3.434   3.471  19.820  0.00  0.00    +0.000 C 
ATOM     12  C   UNL     1       4.091   2.106  19.954  0.00  0.00    +0.000 C 
ATOM     13  C   UNL     1       4.406   4.699  19.741  0.00  0.00    +0.000 C 
ATOM     14  C   UNL     1       3.488   5.807  19.168  0.00  0.00    +0.000 C 
ENDBRANCH   1  13
BRANCH   2  15
ATOM     15  C   UNL     1       7.897   4.608  18.218  0.00  0.00    +0.000 C 
BRANCH  15  16
ATOM     16  C   UNL     1       7.344   4.318  16.816  0.00  0.00    +0.000 C 
BRANCH  16  17
ATOM     17  N   UNL     1       7.570   5.396  15.823  0.00  0.00    +0.000 NA
ATOM     18  C   UNL     1       6.830   5.206  14.553  0.00  0.00    +0.000 C 
ATOM     19  C   UNL     1       5.315   5.378  14.702  0.00  0.00    +0.000 C 
ATOM     20  O   UNL     1       5.000   6.676  15.217  0.00  0.00    +0.000 OA
ATOM     21  C   UNL     1       5.655   6.915  16.470  0.00  0.00    +0.000 C 
ATOM     22  C   UNL     1       7.177   6.717  16.370  0.00  0.00    +0.000 C 
ENDBRANCH  16  17
ENDBRANCH  15  16
ENDBRANCH   2  15
TORSDOF 4
ENDMDL
MODEL 7
REMARK VINA RESULT:      -7.3      3.391      6.153
REMARK  Name = 
REMARK  7 active torsions:
REMARK  status: ('A' for Active; 'I' for Inactive)
REMARK    1  A    between atoms: C_1  and  C_2
REMARK    2  A    between atoms: C_2  and  C_3
REMARK    3  A    between atoms: C_7  and  C_8
REMARK    4  A    between atoms: C_9  and  N_10
REMARK    5  A    between atoms: C_11  and  C_13
REMARK    6  A    between atoms: C_13  and  C_14
REMARK    7  A    between atoms: C_14  and  N_15
REMARK                            x       y       z     vdW  Elec       q    Type
REMARK                         _______ _______ _______ _____ _____    ______ ____
ROOT
ATOM      1  N   UNL     1       2.495   6.977  18.853  0.00  0.00    +0.000 N 
ATOM      2  C   UNL     1       2.334   8.145  18.151  0.00  0.00    +0.000 C 
ATOM      3  O   UNL     1       2.907   8.380  17.089  0.00  0.00    +0.000 OA
ATOM      4  H   UNL     1       1.978   6.900  19.731  0.00  0.00    +0.000 HD
ENDROOT
BRANCH   1  13
ATOM      5  C   UNL     1       2.065   2.397  19.645  0.00  0.00    +0.000 C 
ATOM      6  C   UNL     1       2.588   3.850  19.616  0.00  0.00    +0.000 C 
ATOM      7  C   UNL     1       1.845   4.575  20.752  0.00  0.00    +0.000 C 
ATOM      8  C   UNL     1       4.130   3.978  19.689  0.00  0.00    +0.000 C 
ATOM      9  C   UNL     1       4.613   3.276  18.402  0.00  0.00    +0.000 C 
ATOM     10  C   UNL     1       3.522   3.640  17.382  0.00  0.00    +0.000 C 
ATOM     11  C   UNL     1       2.550   4.531  18.212  0.00  0.00    +0.000 C 
ATOM     12  C   UNL     1       1.187   4.638  17.545  0.00  0.00    +0.000 C 
ATOM     13  C   UNL     1       3.322   5.880  18.422  0.00  0.00    +0.000 C 
ATOM     14  C   UNL     1       4.382   5.489  19.481  0.00  0.00    +0.000 C 
ENDBRANCH   1  13
BRANCH   2  15
ATOM     15  C   UNL     1       1.471   9.183  18.841  0.00  0.00    +0.000 C 
BRANCH  15  16
ATOM     16  C   UNL     1       1.178   8.890  20.318  0.00  0.00    +0.000 C 
BRANCH  16  17
ATOM     17  N   UNL     1      -0.231   9.113  20.728  0.00  0.00    +0.000 NA
ATOM     18  C   UNL     1      -0.531   8.666  22.108  0.00  0.00    +0.000 C 
ATOM     19  C   UNL     1       0.135   9.530  23.185  0.00  0.00    +0.000 C 
ATOM     20  O   UNL     1      -0.268  10.898  23.056  0.00  0.00    +0.000 OA
ATOM     21  C   UNL     1       0.029  11.411  21.750  0.00  0.00    +0.000 C 
ATOM     22  C   UNL     1      -0.593  10.547  20.639  0.00  0.00    +0.000 C 
ENDBRANCH  16  17
ENDBRANCH  15  16
ENDBRANCH   2  15
TORSDOF 4
ENDMDL
MODEL 8
REMARK VINA RESULT:      -7.3      1.455      2.608
REMARK  Name = 
REMARK  7 active torsions:
REMARK  status: ('A' for Active; 'I' for Inactive)
REMARK    1  A    between atoms: C_1  and  C_2
REMARK    2  A    between atoms: C_2  and  C_3
REMARK    3  A    between atoms: C_7  and  C_8
REMARK    4  A    between atoms: C_9  and  N_10
REMARK    5  A    between atoms: C_11  and  C_13
REMARK    6  A    between atoms: C_13  and  C_14
REMARK    7  A    between atoms: C_14  and  N_15
REMARK                            x       y       z     vdW  Elec       q    Type
REMARK                         _______ _______ _______ _____ _____    ______ ____
ROOT
ATOM      1  N   UNL     1       3.401   5.207  17.888  0.00  0.00    +0.000 N 
ATOM      2  C   UNL     1       3.453   6.568  17.717  0.00  0.00    +0.000 C 
ATOM      3  O   UNL     1       2.482   7.306  17.867  0.00  0.00    +0.000 OA
ATOM      4  H   UNL     1       4.269   4.695  17.722  0.00  0.00    +0.000 HD
ENDROOT
BRANCH   1  13
ATOM      5  C   UNL     1       2.732   2.313  21.489  0.00  0.00    +0.000 C 
ATOM      6  C   UNL     1       2.862   2.896  20.065  0.00  0.00    +0.000 C 
ATOM      7  C   UNL     1       4.370   2.892  19.758  0.00  0.00    +0.000 C 
ATOM      8  C   UNL     1       2.001   2.178  18.996  0.00  0.00    +0.000 C 
ATOM      9  C   UNL     1       0.553   2.421  19.475  0.00  0.00    +0.000 C 
ATOM     10  C   UNL     1       0.622   3.838  20.068  0.00  0.00    +0.000 C 
ATOM     11  C   UNL     1       2.108   4.243  19.836  0.00  0.00    +0.000 C 
ATOM     12  C   UNL     1       2.512   5.408  20.728  0.00  0.00    +0.000 C 
ATOM     13  C   UNL     1       2.221   4.487  18.291  0.00  0.00    +0.000 C 
ATOM     14  C   UNL     1       2.192   3.044  17.730  0.00  0.00    +0.000 C 
ENDBRANCH   1  13
BRANCH   2  15
ATOM     15  C   UNL     1       4.786   7.091  17.219  0.00  0.00    +0.000 C 
BRANCH  15  16
ATOM     16  C   UNL     1       5.294   6.425  15.933  0.00  0.00    +0.000 C 
BRANCH  16  17
ATOM     17  N   UNL     1       5.944   5.107  16.131  0.00  0.00    +0.000 NA
ATOM     18  C   UNL     1       5.221   3.980  15.495  0.00  0.00    +0.000 C 
ATOM     19  C   UNL     1       5.277   4.009  13.964  0.00  0.00    +0.000 C 
ATOM     20  O   UNL     1       6.635   3.990  13.506  0.00  0.00    +0.000 OA
ATOM     21  C   UNL     1       7.388   5.080  14.055  0.00  0.00    +0.000 C 
ATOM     22  C   UNL     1       7.325   5.105  15.592  0.00  0.00    +0.000 C 
ENDBRANCH  16  17
ENDBRANCH  15  16
ENDBRANCH   2  15
TORSDOF 4
ENDMDL
MODEL 9
REMARK VINA RESULT:      -7.3      1.129      2.379
REMARK  Name = 
REMARK  7 active torsions:
REMARK  status: ('A' for Active; 'I' for Inactive)
REMARK    1  A    between atoms: C_1  and  C_2
REMARK    2  A    between atoms: C_2  and  C_3
REMARK    3  A    between atoms: C_7  and  C_8
REMARK    4  A    between atoms: C_9  and  N_10
REMARK    5  A    between atoms: C_11  and  C_13
REMARK    6  A    between atoms: C_13  and  C_14
REMARK    7  A    between atoms: C_14  and  N_15
REMARK                            x       y       z     vdW  Elec       q    Type
REMARK                         _______ _______ _______ _____ _____    ______ ____
ROOT
ATOM      1  N   UNL     1       3.166   5.375  18.055  0.00  0.00    +0.000 N 
ATOM      2  C   UNL     1       3.111   6.725  17.815  0.00  0.00    +0.000 C 
ATOM      3  O   UNL     1       2.073   7.381  17.874  0.00  0.00    +0.000 OA
ATOM      4  H   UNL     1       4.082   4.934  17.963  0.00  0.00    +0.000 HD
ENDROOT
BRANCH   1  13
ATOM      5  C   UNL     1       2.691   2.283  21.520  0.00  0.00    +0.000 C 
ATOM      6  C   UNL     1       2.775   2.938  20.124  0.00  0.00    +0.000 C 
ATOM      7  C   UNL     1       4.278   3.030  19.806  0.00  0.00    +0.000 C 
ATOM      8  C   UNL     1       1.942   2.225  19.029  0.00  0.00    +0.000 C 
ATOM      9  C   UNL     1       0.489   2.367  19.531  0.00  0.00    +0.000 C 
ATOM     10  C   UNL     1       0.488   3.755  20.190  0.00  0.00    +0.000 C 
ATOM     11  C   UNL     1       1.947   4.251  19.966  0.00  0.00    +0.000 C 
ATOM     12  C   UNL     1       2.297   5.393  20.908  0.00  0.00    +0.000 C 
ATOM     13  C   UNL     1       2.031   4.573  18.433  0.00  0.00    +0.000 C 
ATOM     14  C   UNL     1       2.073   3.159  17.804  0.00  0.00    +0.000 C 
ENDBRANCH   1  13
BRANCH   2  15
ATOM     15  C   UNL     1       4.421   7.339  17.361  0.00  0.00    +0.000 C 
BRANCH  15  16
ATOM     16  C   UNL     1       5.002   6.729  16.079  0.00  0.00    +0.000 C 
BRANCH  16  17
ATOM     17  N   UNL     1       5.094   5.248  16.081  0.00  0.00    +0.000 NA
ATOM     18  C   UNL     1       5.574   4.676  14.801  0.00  0.00    +0.000 C 
ATOM     19  C   UNL     1       7.051   4.973  14.518  0.00  0.00    +0.000 C 
ATOM     20  O   UNL     1       7.879   4.474  15.575  0.00  0.00    +0.000 OA
ATOM     21  C   UNL     1       7.495   5.019  16.844  0.00  0.00    +0.000 C 
ATOM     22  C   UNL     1       6.006   4.771  17.148  0.00  0.00    +0.000 C 
ENDBRANCH  16  17
ENDBRANCH  15  16
ENDBRANCH   2  15
TORSDOF 4
ENDMDL
