MODEL 1
REMARK VINA RESULT:      -9.1      0.000      0.000
REMARK  Name = 
REMARK  5 active torsions:
REMARK  status: ('A' for Active; 'I' for Inactive)
REMARK    1  A    between atoms: C_4  and  C_5
REMARK    2  A    between atoms: N_8  and  C_9
REMARK    3  A    between atoms: C_16  and  N_17
REMARK    4  A    between atoms: N_17  and  C_18
REMARK    5  A    between atoms: C_24  and  C_25
REMARK                            x       y       z     vdW  Elec       q    Type
REMARK                         _______ _______ _______ _____ _____    ______ ____
ROOT
ATOM      1  O   UNL     1       2.856   8.614  17.234  0.00  0.00    +0.000 OA
ATOM      2  C   UNL     1       3.233   7.619  17.847  0.00  0.00    +0.000 A 
ATOM      3  N   UNL     1       4.215   6.821  17.330  0.00  0.00    +0.000 N 
ATOM      4  C   UNL     1       4.601   5.669  17.937  0.00  0.00    +0.000 A 
ATOM      5  N   UNL     1       4.085   5.272  19.060  0.00  0.00    +0.000 NA
ATOM      6  C   UNL     1       3.106   6.026  19.694  0.00  0.00    +0.000 A 
ATOM      7  C   UNL     1       2.663   7.185  19.147  0.00  0.00    +0.000 A 
ATOM      8  H   UNL     1       4.605   7.119  16.449  0.00  0.00    +0.000 HD
ENDROOT
BRANCH   7   9
ATOM      9  C   UNL     1       1.773   8.075  19.818  0.00  0.00    +0.000 A 
ATOM     10  N   UNL     1       1.422   7.991  21.090  0.00  0.00    +0.000 NA
ATOM     11  C   UNL     1       0.602   9.047  21.452  0.00  0.00    +0.000 A 
ATOM     12  C   UNL     1       0.095   9.293  22.746  0.00  0.00    +0.000 A 
ATOM     13  C   UNL     1      -0.737  10.395  22.973  0.00  0.00    +0.000 A 
ATOM     14  C   UNL     1      -1.072  11.248  21.927  0.00  0.00    +0.000 A 
ATOM     15  C   UNL     1      -0.575  11.029  20.636  0.00  0.00    +0.000 A 
ATOM     16  C   UNL     1       0.267   9.922  20.421  0.00  0.00    +0.000 A 
ATOM     17  S   UNL     1       1.045   9.398  18.973  0.00  0.00    +0.000 S 
ENDBRANCH   7   9
BRANCH   4  18
ATOM     18  C   UNL     1       5.677   4.821  17.231  0.00  0.00    +0.000 C 
ATOM     19  C   UNL     1       6.655   5.624  16.356  0.00  0.00    +0.000 C 
ATOM     20  C   UNL     1       6.492   5.499  14.834  0.00  0.00    +0.000 C 
ATOM     21  N   UNL     1       6.260   4.112  14.402  0.00  0.00    +0.000 NA
ATOM     22  C   UNL     1       4.996   3.658  15.003  0.00  0.00    +0.000 C 
ATOM     23  C   UNL     1       5.113   3.574  16.530  0.00  0.00    +0.000 C 
BRANCH  21  24
ATOM     24  C   UNL     1       6.159   4.054  12.923  0.00  0.00    +0.000 C 
ATOM     25  C   UNL     1       6.587   2.652  12.396  0.00  0.00    +0.000 C 
ATOM     26  C   UNL     1       5.372   2.713  11.448  0.00  0.00    +0.000 C 
ATOM     27  C   UNL     1       4.719   3.657  12.481  0.00  0.00    +0.000 C 
ENDBRANCH  21  24
ENDBRANCH   4  18
BRANCH   6  28
ATOM     28  N   UNL     1       2.593   5.532  20.918  0.00  0.00    +0.000 N 
ATOM     29  H   UNL     1       3.350   5.326  21.570  0.00  0.00    +0.000 HD
BRANCH  28  30
ATOM     30  C   UNL     1       1.662   4.376  20.902  0.00  0.00    +0.000 C 
ATOM     31  C   UNL     1       2.339   3.127  21.483  0.00  0.00    +0.000 C 
ATOM     32  C   UNL     1       3.115   2.296  20.459  0.00  0.00    +0.000 C 
ATOM     33  C   UNL     1       2.333   2.074  19.171  0.00  0.00    +0.000 C 
ATOM     34  N   UNL     1       1.959   3.356  18.573  0.00  0.00    +0.000 NA
ATOM     35  C   UNL     1       1.078   4.103  19.484  0.00  0.00    +0.000 C 
ATOM     36  H   UNL     1       1.463   3.179  17.699  0.00  0.00    +0.000 HD
ENDBRANCH  28  30
ENDBRANCH   6  28
TORSDOF 5
ENDMDL
MODEL 2
REMARK VINA RESULT:      -9.0      3.226      6.014
REMARK  Name = 
REMARK  5 active torsions:
REMARK  status: ('A' for Active; 'I' for Inactive)
REMARK    1  A    between atoms: C_4  and  C_5
REMARK    2  A    between atoms: N_8  and  C_9
REMARK    3  A    between atoms: C_16  and  N_17
REMARK    4  A    between atoms: N_17  and  C_18
REMARK    5  A    between atoms: C_24  and  C_25
REMARK                            x       y       z     vdW  Elec       q    Type
REMARK                         _______ _______ _______ _____ _____    ______ ____
ROOT
ATOM      1  O   UNL     1       1.830   9.116  22.791  0.00  0.00    +0.000 OA
ATOM      2  C   UNL     1       1.587   9.014  21.592  0.00  0.00    +0.000 A 
ATOM      3  N   UNL     1       1.959   7.892  20.905  0.00  0.00    +0.000 N 
ATOM      4  C   UNL     1       1.781   7.776  19.564  0.00  0.00    +0.000 A 
ATOM      5  N   UNL     1       1.219   8.709  18.857  0.00  0.00    +0.000 NA
ATOM      6  C   UNL     1       0.768   9.877  19.458  0.00  0.00    +0.000 A 
ATOM      7  C   UNL     1       0.916  10.069  20.793  0.00  0.00    +0.000 A 
ATOM      8  H   UNL     1       2.411   7.173  21.450  0.00  0.00    +0.000 HD
ENDROOT
BRANCH   7   9
ATOM      9  C   UNL     1       0.343  11.174  21.490  0.00  0.00    +0.000 A 
ATOM     10  N   UNL     1       0.742  12.431  21.392  0.00  0.00    +0.000 NA
ATOM     11  C   UNL     1      -0.066  13.271  22.140  0.00  0.00    +0.000 A 
ATOM     12  C   UNL     1       0.045  14.676  22.213  0.00  0.00    +0.000 A 
ATOM     13  C   UNL     1      -0.832  15.406  23.022  0.00  0.00    +0.000 A 
ATOM     14  C   UNL     1      -1.813  14.753  23.760  0.00  0.00    +0.000 A 
ATOM     15  C   UNL     1      -1.948  13.360  23.699  0.00  0.00    +0.000 A 
ATOM     16  C   UNL     1      -1.064  12.636  22.876  0.00  0.00    +0.000 A 
ATOM     17  S   UNL     1      -0.985  10.940  22.575  0.00  0.00    +0.000 S 
ENDBRANCH   7   9
BRANCH   4  18
ATOM     18  C   UNL     1       2.293   6.488  18.889  0.00  0.00    +0.000 C 
ATOM     19  C   UNL     1       3.073   5.542  19.818  0.00  0.00    +0.000 C 
ATOM     20  C   UNL     1       4.594   5.470  19.621  0.00  0.00    +0.000 C 
ATOM     21  N   UNL     1       4.979   5.410  18.201  0.00  0.00    +0.000 NA
ATOM     22  C   UNL     1       4.526   6.655  17.560  0.00  0.00    +0.000 C 
ATOM     23  C   UNL     1       2.995   6.739  17.543  0.00  0.00    +0.000 C 
BRANCH  21  24
ATOM     24  C   UNL     1       6.453   5.294  18.083  0.00  0.00    +0.000 C 
ATOM     25  C   UNL     1       7.075   6.642  17.609  0.00  0.00    +0.000 C 
ATOM     26  C   UNL     1       8.176   6.427  18.668  0.00  0.00    +0.000 C 
ATOM     27  C   UNL     1       7.143   5.583  19.449  0.00  0.00    +0.000 C 
ENDBRANCH  21  24
ENDBRANCH   4  18
BRANCH   6  28
ATOM     28  N   UNL     1       0.161  10.847  18.625  0.00  0.00    +0.000 N 
ATOM     29  H   UNL     1       0.603  11.758  18.750  0.00  0.00    +0.000 HD
BRANCH  28  30
ATOM     30  C   UNL     1      -1.311  11.032  18.677  0.00  0.00    +0.000 C 
ATOM     31  C   UNL     1      -2.034   9.761  18.211  0.00  0.00    +0.000 C 
ATOM     32  C   UNL     1      -2.270   9.688  16.701  0.00  0.00    +0.000 C 
ATOM     33  C   UNL     1      -2.810  10.993  16.129  0.00  0.00    +0.000 C 
ATOM     34  N   UNL     1      -1.897  12.097  16.424  0.00  0.00    +0.000 NA
ATOM     35  C   UNL     1      -1.781  12.284  17.879  0.00  0.00    +0.000 C 
ATOM     36  H   UNL     1      -2.266  12.951  16.005  0.00  0.00    +0.000 HD
ENDBRANCH  28  30
ENDBRANCH   6  28
TORSDOF 5
ENDMDL
MODEL 3
REMARK VINA RESULT:      -8.9      2.977      5.706
REMARK  Name = 
REMARK  5 active torsions:
REMARK  status: ('A' for Active; 'I' for Inactive)
REMARK    1  A    between atoms: C_4  and  C_5
REMARK    2  A    between atoms: N_8  and  C_9
REMARK    3  A    between atoms: C_16  and  N_17
REMARK    4  A    between atoms: N_17  and  C_18
REMARK    5  A    between atoms: C_24  and  C_25
REMARK                            x       y       z     vdW  Elec       q    Type
REMARK                         _______ _______ _______ _____ _____    ______ ____
ROOT
ATOM      1  O   UNL     1       1.801   9.189  23.033  0.00  0.00    +0.000 OA
ATOM      2  C   UNL     1       1.547   8.975  21.851  0.00  0.00    +0.000 A 
ATOM      3  N   UNL     1       1.868   7.774  21.283  0.00  0.00    +0.000 N 
ATOM      4  C   UNL     1       1.678   7.529  19.961  0.00  0.00    +0.000 A 
ATOM      5  N   UNL     1       1.151   8.407  19.163  0.00  0.00    +0.000 NA
ATOM      6  C   UNL     1       0.752   9.649  19.642  0.00  0.00    +0.000 A 
ATOM      7  C   UNL     1       0.916   9.970  20.949  0.00  0.00    +0.000 A 
ATOM      8  H   UNL     1       2.292   7.097  21.897  0.00  0.00    +0.000 HD
ENDROOT
BRANCH   7   9
ATOM      9  C   UNL     1       0.394  11.164  21.530  0.00  0.00    +0.000 A 
ATOM     10  N   UNL     1       0.852  12.384  21.314  0.00  0.00    +0.000 NA
ATOM     11  C   UNL     1       0.083  13.331  21.969  0.00  0.00    +0.000 A 
ATOM     12  C   UNL     1       0.260  14.729  21.905  0.00  0.00    +0.000 A 
ATOM     13  C   UNL     1      -0.585  15.576  22.631  0.00  0.00    +0.000 A 
ATOM     14  C   UNL     1      -1.598  15.045  23.422  0.00  0.00    +0.000 A 
ATOM     15  C   UNL     1      -1.799  13.661  23.497  0.00  0.00    +0.000 A 
ATOM     16  C   UNL     1      -0.948  12.819  22.755  0.00  0.00    +0.000 A 
ATOM     17  S   UNL     1      -0.948  11.100  22.622  0.00  0.00    +0.000 S 
ENDBRANCH   7   9
BRANCH   4  18
ATOM     18  C   UNL     1       2.131   6.159  19.420  0.00  0.00    +0.000 C 
ATOM     19  C   UNL     1       3.328   5.540  20.163  0.00  0.00    +0.000 C 
ATOM     20  C   UNL     1       4.678   5.541  19.432  0.00  0.00    +0.000 C 
ATOM     21  N   UNL     1       4.556   5.161  18.016  0.00  0.00    +0.000 NA
ATOM     22  C   UNL     1       3.711   6.166  17.351  0.00  0.00    +0.000 C 
ATOM     23  C   UNL     1       2.276   6.121  17.890  0.00  0.00    +0.000 C 
BRANCH  21  24
ATOM     24  C   UNL     1       5.897   5.137  17.382  0.00  0.00    +0.000 C 
ATOM     25  C   UNL     1       5.998   3.973  16.351  0.00  0.00    +0.000 C 
ATOM     26  C   UNL     1       6.703   4.964  15.403  0.00  0.00    +0.000 C 
ATOM     27  C   UNL     1       5.944   6.086  16.148  0.00  0.00    +0.000 C 
ENDBRANCH  21  24
ENDBRANCH   4  18
BRANCH   6  28
ATOM     28  N   UNL     1       0.182  10.553  18.714  0.00  0.00    +0.000 N 
ATOM     29  H   UNL     1       0.678  11.445  18.727  0.00  0.00    +0.000 HD
BRANCH  28  30
ATOM     30  C   UNL     1      -1.276  10.830  18.772  0.00  0.00    +0.000 C 
ATOM     31  C   UNL     1      -2.072   9.675  18.150  0.00  0.00    +0.000 C 
ATOM     32  C   UNL     1      -2.283   9.795  16.640  0.00  0.00    +0.000 C 
ATOM     33  C   UNL     1      -2.725  11.191  16.219  0.00  0.00    +0.000 C 
ATOM     34  N   UNL     1      -1.746  12.188  16.653  0.00  0.00    +0.000 NA
ATOM     35  C   UNL     1      -1.647  12.196  18.121  0.00  0.00    +0.000 C 
ATOM     36  H   UNL     1      -2.051  13.108  16.334  0.00  0.00    +0.000 HD
ENDBRANCH  28  30
ENDBRANCH   6  28
TORSDOF 5
ENDMDL
MODEL 4
REMARK VINA RESULT:      -8.9      2.083      8.433
REMARK  Name = 
REMARK  5 active torsions:
REMARK  status: ('A' for Active; 'I' for Inactive)
REMARK    1  A    between atoms: C_4  and  C_5
REMARK    2  A    between atoms: N_8  and  C_9
REMARK    3  A    between atoms: C_16  and  N_17
REMARK    4  A    between atoms: N_17  and  C_18
REMARK    5  A    between atoms: C_24  and  C_25
REMARK                            x       y       z     vdW  Elec       q    Type
REMARK                         _______ _______ _______ _____ _____    ______ ____
ROOT
ATOM      1  O   UNL     1       2.778   9.221  17.073  0.00  0.00    +0.000 OA
ATOM      2  C   UNL     1       2.305   8.732  18.095  0.00  0.00    +0.000 A 
ATOM      3  N   UNL     1       1.276   9.354  18.746  0.00  0.00    +0.000 N 
ATOM      4  C   UNL     1       0.782   8.887  19.921  0.00  0.00    +0.000 A 
ATOM      5  N   UNL     1       1.232   7.806  20.482  0.00  0.00    +0.000 NA
ATOM      6  C   UNL     1       2.251   7.072  19.887  0.00  0.00    +0.000 A 
ATOM      7  C   UNL     1       2.801   7.478  18.716  0.00  0.00    +0.000 A 
ATOM      8  H   UNL     1       0.937  10.202  18.321  0.00  0.00    +0.000 HD
ENDROOT
BRANCH   7   9
ATOM      9  C   UNL     1       3.741   6.695  17.983  0.00  0.00    +0.000 A 
ATOM     10  N   UNL     1       3.506   5.499  17.470  0.00  0.00    +0.000 NA
ATOM     11  C   UNL     1       4.600   5.038  16.756  0.00  0.00    +0.000 A 
ATOM     12  C   UNL     1       4.666   3.827  16.035  0.00  0.00    +0.000 A 
ATOM     13  C   UNL     1       5.843   3.474  15.366  0.00  0.00    +0.000 A 
ATOM     14  C   UNL     1       6.953   4.310  15.412  0.00  0.00    +0.000 A 
ATOM     15  C   UNL     1       6.910   5.521  16.115  0.00  0.00    +0.000 A 
ATOM     16  C   UNL     1       5.718   5.869  16.778  0.00  0.00    +0.000 A 
ATOM     17  S   UNL     1       5.345   7.279  17.699  0.00  0.00    +0.000 S 
ENDBRANCH   7   9
BRANCH   4  18
ATOM     18  C   UNL     1      -0.340   9.703  20.593  0.00  0.00    +0.000 C 
ATOM     19  C   UNL     1      -1.263  10.452  19.616  0.00  0.00    +0.000 C 
ATOM     20  C   UNL     1      -1.099  11.977  19.532  0.00  0.00    +0.000 C 
ATOM     21  N   UNL     1      -0.948  12.603  20.855  0.00  0.00    +0.000 NA
ATOM     22  C   UNL     1       0.283  12.076  21.465  0.00  0.00    +0.000 C 
ATOM     23  C   UNL     1       0.153  10.577  21.759  0.00  0.00    +0.000 C 
BRANCH  21  24
ATOM     24  C   UNL     1      -0.842  14.076  20.707  0.00  0.00    +0.000 C 
ATOM     25  C   UNL     1       0.587  14.567  21.090  0.00  0.00    +0.000 C 
ATOM     26  C   UNL     1       0.532  15.479  19.848  0.00  0.00    +0.000 C 
ATOM     27  C   UNL     1      -0.461  14.459  19.246  0.00  0.00    +0.000 C 
ENDBRANCH  21  24
ENDBRANCH   4  18
BRANCH   6  28
ATOM     28  N   UNL     1       2.687   5.902  20.554  0.00  0.00    +0.000 N 
ATOM     29  H   UNL     1       3.505   5.506  20.090  0.00  0.00    +0.000 HD
BRANCH  28  30
ATOM     30  C   UNL     1       1.719   4.806  20.807  0.00  0.00    +0.000 C 
ATOM     31  C   UNL     1       2.372   3.684  21.625  0.00  0.00    +0.000 C 
ATOM     32  C   UNL     1       3.087   2.625  20.783  0.00  0.00    +0.000 C 
ATOM     33  C   UNL     1       2.256   2.165  19.591  0.00  0.00    +0.000 C 
ATOM     34  N   UNL     1       1.907   3.304  18.743  0.00  0.00    +0.000 NA
ATOM     35  C   UNL     1       1.081   4.262  19.494  0.00  0.00    +0.000 C 
ATOM     36  H   UNL     1       1.378   2.965  17.939  0.00  0.00    +0.000 HD
ENDBRANCH  28  30
ENDBRANCH   6  28
TORSDOF 5
ENDMDL
MODEL 5
REMARK VINA RESULT:      -8.7      3.224      5.868
REMARK  Name = 
REMARK  5 active torsions:
REMARK  status: ('A' for Active; 'I' for Inactive)
REMARK    1  A    between atoms: C_4  and  C_5
REMARK    2  A    between atoms: N_8  and  C_9
REMARK    3  A    between atoms: C_16  and  N_17
REMARK    4  A    between atoms: N_17  and  C_18
REMARK    5  A    between atoms: C_24  and  C_25
REMARK                            x       y       z     vdW  Elec       q    Type
REMARK                         _______ _______ _______ _____ _____    ______ ____
ROOT
ATOM      1  O   UNL     1       1.731   8.949  22.439  0.00  0.00    +0.000 OA
ATOM      2  C   UNL     1       1.526   8.852  21.232  0.00  0.00    +0.000 A 
ATOM      3  N   UNL     1       2.003   7.776  20.536  0.00  0.00    +0.000 N 
ATOM      4  C   UNL     1       1.867   7.673  19.189  0.00  0.00    +0.000 A 
ATOM      5  N   UNL     1       1.251   8.573  18.484  0.00  0.00    +0.000 NA
ATOM      6  C   UNL     1       0.693   9.689  19.094  0.00  0.00    +0.000 A 
ATOM      7  C   UNL     1       0.793   9.866  20.435  0.00  0.00    +0.000 A 
ATOM      8  H   UNL     1       2.496   7.085  21.079  0.00  0.00    +0.000 HD
ENDROOT
BRANCH   7   9
ATOM      9  C   UNL     1       0.118  10.909  21.136  0.00  0.00    +0.000 A 
ATOM     10  N   UNL     1      -1.020  10.776  21.795  0.00  0.00    +0.000 NA
ATOM     11  C   UNL     1      -1.373  11.957  22.426  0.00  0.00    +0.000 A 
ATOM     12  C   UNL     1      -2.497  12.146  23.259  0.00  0.00    +0.000 A 
ATOM     13  C   UNL     1      -2.745  13.401  23.826  0.00  0.00    +0.000 A 
ATOM     14  C   UNL     1      -1.890  14.467  23.569  0.00  0.00    +0.000 A 
ATOM     15  C   UNL     1      -0.764  14.303  22.752  0.00  0.00    +0.000 A 
ATOM     16  C   UNL     1      -0.521  13.034  22.193  0.00  0.00    +0.000 A 
ATOM     17  S   UNL     1       0.771  12.511  21.177  0.00  0.00    +0.000 S 
ENDBRANCH   7   9
BRANCH   4  18
ATOM     18  C   UNL     1       2.495   6.443  18.504  0.00  0.00    +0.000 C 
ATOM     19  C   UNL     1       3.218   5.477  19.458  0.00  0.00    +0.000 C 
ATOM     20  C   UNL     1       4.753   5.470  19.411  0.00  0.00    +0.000 C 
ATOM     21  N   UNL     1       5.278   5.501  18.037  0.00  0.00    +0.000 NA
ATOM     22  C   UNL     1       4.840   6.761  17.417  0.00  0.00    +0.000 C 
ATOM     23  C   UNL     1       3.316   6.791  17.250  0.00  0.00    +0.000 C 
BRANCH  21  24
ATOM     24  C   UNL     1       6.760   5.445  18.061  0.00  0.00    +0.000 C 
ATOM     25  C   UNL     1       7.370   6.833  17.704  0.00  0.00    +0.000 C 
ATOM     26  C   UNL     1       8.369   6.615  18.858  0.00  0.00    +0.000 C 
ATOM     27  C   UNL     1       7.301   5.702  19.499  0.00  0.00    +0.000 C 
ENDBRANCH  21  24
ENDBRANCH   4  18
BRANCH   6  28
ATOM     28  N   UNL     1       0.032  10.625  18.263  0.00  0.00    +0.000 N 
ATOM     29  H   UNL     1       0.497  11.533  18.299  0.00  0.00    +0.000 HD
BRANCH  28  30
ATOM     30  C   UNL     1      -1.427  10.841  18.429  0.00  0.00    +0.000 C 
ATOM     31  C   UNL     1      -2.214   9.609  17.964  0.00  0.00    +0.000 C 
ATOM     32  C   UNL     1      -2.559   9.607  16.473  0.00  0.00    +0.000 C 
ATOM     33  C   UNL     1      -3.104  10.947  15.996  0.00  0.00    +0.000 C 
ATOM     34  N   UNL     1      -2.144  12.016  16.270  0.00  0.00    +0.000 NA
ATOM     35  C   UNL     1      -1.920  12.138  17.719  0.00  0.00    +0.000 C 
ATOM     36  H   UNL     1      -2.520  12.895  15.915  0.00  0.00    +0.000 HD
ENDBRANCH  28  30
ENDBRANCH   6  28
TORSDOF 5
ENDMDL
MODEL 6
REMARK VINA RESULT:      -8.6      4.373     11.220
REMARK  Name = 
REMARK  5 active torsions:
REMARK  status: ('A' for Active; 'I' for Inactive)
REMARK    1  A    between atoms: C_4  and  C_5
REMARK    2  A    between atoms: N_8  and  C_9
REMARK    3  A    between atoms: C_16  and  N_17
REMARK    4  A    between atoms: N_17  and  C_18
REMARK    5  A    between atoms: C_24  and  C_25
REMARK                            x       y       z     vdW  Elec       q    Type
REMARK                         _______ _______ _______ _____ _____    ______ ____
ROOT
ATOM      1  O   UNL     1       0.727  10.291  22.719  0.00  0.00    +0.000 OA
ATOM      2  C   UNL     1       0.038  10.868  21.882  0.00  0.00    +0.000 A 
ATOM      3  N   UNL     1      -0.675  11.983  22.224  0.00  0.00    +0.000 N 
ATOM      4  C   UNL     1      -1.510  12.600  21.349  0.00  0.00    +0.000 A 
ATOM      5  N   UNL     1      -1.659  12.189  20.126  0.00  0.00    +0.000 NA
ATOM      6  C   UNL     1      -0.953  11.088  19.660  0.00  0.00    +0.000 A 
ATOM      7  C   UNL     1      -0.104  10.414  20.476  0.00  0.00    +0.000 A 
ATOM      8  H   UNL     1      -0.574  12.293  23.177  0.00  0.00    +0.000 HD
ENDROOT
BRANCH   7   9
ATOM      9  C   UNL     1       0.757   9.373  20.018  0.00  0.00    +0.000 A 
ATOM     10  N   UNL     1       1.348   9.334  18.836  0.00  0.00    +0.000 NA
ATOM     11  C   UNL     1       2.175   8.228  18.728  0.00  0.00    +0.000 A 
ATOM     12  C   UNL     1       2.996   7.914  17.624  0.00  0.00    +0.000 A 
ATOM     13  C   UNL     1       3.776   6.752  17.640  0.00  0.00    +0.000 A 
ATOM     14  C   UNL     1       3.742   5.900  18.738  0.00  0.00    +0.000 A 
ATOM     15  C   UNL     1       2.940   6.193  19.849  0.00  0.00    +0.000 A 
ATOM     16  C   UNL     1       2.166   7.369  19.825  0.00  0.00    +0.000 A 
ATOM     17  S   UNL     1       1.108   8.011  21.025  0.00  0.00    +0.000 S 
ENDBRANCH   7   9
BRANCH   4  18
ATOM     18  C   UNL     1      -2.307  13.814  21.865  0.00  0.00    +0.000 C 
ATOM     19  C   UNL     1      -2.761  13.708  23.331  0.00  0.00    +0.000 C 
ATOM     20  C   UNL     1      -4.254  13.450  23.581  0.00  0.00    +0.000 C 
ATOM     21  N   UNL     1      -5.122  14.263  22.714  0.00  0.00    +0.000 NA
ATOM     22  C   UNL     1      -4.852  13.879  21.320  0.00  0.00    +0.000 C 
ATOM     23  C   UNL     1      -3.425  14.264  20.910  0.00  0.00    +0.000 C 
BRANCH  21  24
ATOM     24  C   UNL     1      -6.546  14.001  23.038  0.00  0.00    +0.000 C 
ATOM     25  C   UNL     1      -7.196  13.081  21.962  0.00  0.00    +0.000 C 
ATOM     26  C   UNL     1      -7.858  12.309  23.121  0.00  0.00    +0.000 C 
ATOM     27  C   UNL     1      -6.680  12.784  24.001  0.00  0.00    +0.000 C 
ENDBRANCH  21  24
ENDBRANCH   4  18
BRANCH   6  28
ATOM     28  N   UNL     1      -1.162  10.700  18.314  0.00  0.00    +0.000 N 
ATOM     29  H   UNL     1      -1.018  11.490  17.684  0.00  0.00    +0.000 HD
BRANCH  28  30
ATOM     30  C   UNL     1      -2.433  10.031  17.940  0.00  0.00    +0.000 C 
ATOM     31  C   UNL     1      -2.468   9.736  16.434  0.00  0.00    +0.000 C 
ATOM     32  C   UNL     1      -3.020  10.880  15.581  0.00  0.00    +0.000 C 
ATOM     33  C   UNL     1      -4.296  11.479  16.158  0.00  0.00    +0.000 C 
ATOM     34  N   UNL     1      -4.064  11.959  17.520  0.00  0.00    +0.000 NA
ATOM     35  C   UNL     1      -3.686  10.839  18.395  0.00  0.00    +0.000 C 
ATOM     36  H   UNL     1      -4.925  12.381  17.871  0.00  0.00    +0.000 HD
ENDBRANCH  28  30
ENDBRANCH   6  28
TORSDOF 5
ENDMDL
MODEL 7
REMARK VINA RESULT:      -8.6      4.244     11.003
REMARK  Name = 
REMARK  5 active torsions:
REMARK  status: ('A' for Active; 'I' for Inactive)
REMARK    1  A    between atoms: C_4  and  C_5
REMARK    2  A    between atoms: N_8  and  C_9
REMARK    3  A    between atoms: C_16  and  N_17
REMARK    4  A    between atoms: N_17  and  C_18
REMARK    5  A    between atoms: C_24  and  C_25
REMARK                            x       y       z     vdW  Elec       q    Type
REMARK                         _______ _______ _______ _____ _____    ______ ____
ROOT
ATOM      1  O   UNL     1       1.069  10.295  22.353  0.00  0.00    +0.000 OA
ATOM      2  C   UNL     1       0.306  10.832  21.556  0.00  0.00    +0.000 A 
ATOM      3  N   UNL     1      -0.459  11.898  21.942  0.00  0.00    +0.000 N 
ATOM      4  C   UNL     1      -1.372  12.466  21.114  0.00  0.00    +0.000 A 
ATOM      5  N   UNL     1      -1.553  12.054  19.896  0.00  0.00    +0.000 NA
ATOM      6  C   UNL     1      -0.802  11.003  19.385  0.00  0.00    +0.000 A 
ATOM      7  C   UNL     1       0.125  10.379  20.154  0.00  0.00    +0.000 A 
ATOM      8  H   UNL     1      -0.331  12.207  22.893  0.00  0.00    +0.000 HD
ENDROOT
BRANCH   7   9
ATOM      9  C   UNL     1       1.027   9.398  19.645  0.00  0.00    +0.000 A 
ATOM     10  N   UNL     1       1.304   8.241  20.222  0.00  0.00    +0.000 NA
ATOM     11  C   UNL     1       2.161   7.486  19.439  0.00  0.00    +0.000 A 
ATOM     12  C   UNL     1       2.611   6.180  19.729  0.00  0.00    +0.000 A 
ATOM     13  C   UNL     1       3.491   5.532  18.855  0.00  0.00    +0.000 A 
ATOM     14  C   UNL     1       3.930   6.173  17.701  0.00  0.00    +0.000 A 
ATOM     15  C   UNL     1       3.492   7.466  17.388  0.00  0.00    +0.000 A 
ATOM     16  C   UNL     1       2.601   8.104  18.271  0.00  0.00    +0.000 A 
ATOM     17  S   UNL     1       1.874   9.664  18.160  0.00  0.00    +0.000 S 
ENDBRANCH   7   9
BRANCH   4  18
ATOM     18  C   UNL     1      -2.218  13.624  21.678  0.00  0.00    +0.000 C 
ATOM     19  C   UNL     1      -2.770  13.385  23.094  0.00  0.00    +0.000 C 
ATOM     20  C   UNL     1      -4.273  13.096  23.216  0.00  0.00    +0.000 C 
ATOM     21  N   UNL     1      -5.090  13.976  22.367  0.00  0.00    +0.000 NA
ATOM     22  C   UNL     1      -4.720  13.720  20.966  0.00  0.00    +0.000 C 
ATOM     23  C   UNL     1      -3.274  14.150  20.692  0.00  0.00    +0.000 C 
BRANCH  21  24
ATOM     24  C   UNL     1      -6.529  13.677  22.567  0.00  0.00    +0.000 C 
ATOM     25  C   UNL     1      -6.978  12.495  21.657  0.00  0.00    +0.000 C 
ATOM     26  C   UNL     1      -7.751  11.944  22.872  0.00  0.00    +0.000 C 
ATOM     27  C   UNL     1      -6.730  12.693  23.756  0.00  0.00    +0.000 C 
ENDBRANCH  21  24
ENDBRANCH   4  18
BRANCH   6  28
ATOM     28  N   UNL     1      -1.051  10.612  18.048  0.00  0.00    +0.000 N 
ATOM     29  H   UNL     1      -0.914  11.397  17.410  0.00  0.00    +0.000 HD
BRANCH  28  30
ATOM     30  C   UNL     1      -2.340   9.958  17.710  0.00  0.00    +0.000 C 
ATOM     31  C   UNL     1      -2.448   9.720  16.198  0.00  0.00    +0.000 C 
ATOM     32  C   UNL     1      -3.037  10.895  15.415  0.00  0.00    +0.000 C 
ATOM     33  C   UNL     1      -4.283  11.472  16.074  0.00  0.00    +0.000 C 
ATOM     34  N   UNL     1      -3.986  11.900  17.441  0.00  0.00    +0.000 NA
ATOM     35  C   UNL     1      -3.568  10.748  18.254  0.00  0.00    +0.000 C 
ATOM     36  H   UNL     1      -4.828  12.309  17.848  0.00  0.00    +0.000 HD
ENDBRANCH  28  30
ENDBRANCH   6  28
TORSDOF 5
ENDMDL
MODEL 8
REMARK VINA RESULT:      -8.5      4.514     11.198
REMARK  Name = 
REMARK  5 active torsions:
REMARK  status: ('A' for Active; 'I' for Inactive)
REMARK    1  A    between atoms: C_4  and  C_5
REMARK    2  A    between atoms: N_8  and  C_9
REMARK    3  A    between atoms: C_16  and  N_17
REMARK    4  A    between atoms: N_17  and  C_18
REMARK    5  A    between atoms: C_24  and  C_25
REMARK                            x       y       z     vdW  Elec       q    Type
REMARK                         _______ _______ _______ _____ _____    ______ ____
ROOT
ATOM      1  O   UNL     1       0.585  10.126  22.961  0.00  0.00    +0.000 OA
ATOM      2  C   UNL     1      -0.079  10.798  22.177  0.00  0.00    +0.000 A 
ATOM      3  N   UNL     1      -0.775  11.888  22.620  0.00  0.00    +0.000 N 
ATOM      4  C   UNL     1      -1.584  12.607  21.800  0.00  0.00    +0.000 A 
ATOM      5  N   UNL     1      -1.723  12.324  20.541  0.00  0.00    +0.000 NA
ATOM      6  C   UNL     1      -1.033  11.259  19.975  0.00  0.00    +0.000 A 
ATOM      7  C   UNL     1      -0.211  10.489  20.731  0.00  0.00    +0.000 A 
ATOM      8  H   UNL     1      -0.681  12.100  23.600  0.00  0.00    +0.000 HD
ENDROOT
BRANCH   7   9
ATOM      9  C   UNL     1       0.635   9.480  20.182  0.00  0.00    +0.000 A 
ATOM     10  N   UNL     1       1.237   9.542  19.007  0.00  0.00    +0.000 NA
ATOM     11  C   UNL     1       2.044   8.436  18.800  0.00  0.00    +0.000 A 
ATOM     12  C   UNL     1       2.870   8.213  17.677  0.00  0.00    +0.000 A 
ATOM     13  C   UNL     1       3.628   7.040  17.588  0.00  0.00    +0.000 A 
ATOM     14  C   UNL     1       3.568   6.087  18.600  0.00  0.00    +0.000 A 
ATOM     15  C   UNL     1       2.761   6.289  19.727  0.00  0.00    +0.000 A 
ATOM     16  C   UNL     1       2.009   7.476  19.810  0.00  0.00    +0.000 A 
ATOM     17  S   UNL     1       0.951   8.022  21.058  0.00  0.00    +0.000 S 
ENDBRANCH   7   9
BRANCH   4  18
ATOM     18  C   UNL     1      -2.363  13.782  22.424  0.00  0.00    +0.000 C 
ATOM     19  C   UNL     1      -3.475  13.367  23.402  0.00  0.00    +0.000 C 
ATOM     20  C   UNL     1      -4.924  13.521  22.916  0.00  0.00    +0.000 C 
ATOM     21  N   UNL     1      -5.152  14.792  22.211  0.00  0.00    +0.000 NA
ATOM     22  C   UNL     1      -4.298  14.802  21.013  0.00  0.00    +0.000 C 
ATOM     23  C   UNL     1      -2.814  14.834  21.397  0.00  0.00    +0.000 C 
BRANCH  21  24
ATOM     24  C   UNL     1      -6.577  14.897  21.811  0.00  0.00    +0.000 C 
ATOM     25  C   UNL     1      -6.699  15.303  20.311  0.00  0.00    +0.000 C 
ATOM     26  C   UNL     1      -7.811  14.241  20.185  0.00  0.00    +0.000 C 
ATOM     27  C   UNL     1      -7.132  13.512  21.366  0.00  0.00    +0.000 C 
ENDBRANCH  21  24
ENDBRANCH   4  18
BRANCH   6  28
ATOM     28  N   UNL     1      -1.231  11.012  18.595  0.00  0.00    +0.000 N 
ATOM     29  H   UNL     1      -1.224  11.885  18.068  0.00  0.00    +0.000 HD
BRANCH  28  30
ATOM     30  C   UNL     1      -2.404  10.213  18.161  0.00  0.00    +0.000 C 
ATOM     31  C   UNL     1      -2.183   9.649  16.751  0.00  0.00    +0.000 C 
ATOM     32  C   UNL     1      -2.620  10.585  15.622  0.00  0.00    +0.000 C 
ATOM     33  C   UNL     1      -3.990  11.202  15.870  0.00  0.00    +0.000 C 
ATOM     34  N   UNL     1      -3.999  11.934  17.137  0.00  0.00    +0.000 NA
ATOM     35  C   UNL     1      -3.736  11.014  18.255  0.00  0.00    +0.000 C 
ATOM     36  H   UNL     1      -4.917  12.361  17.264  0.00  0.00    +0.000 HD
ENDBRANCH  28  30
ENDBRANCH   6  28
TORSDOF 5
ENDMDL
MODEL 9
REMARK VINA RESULT:      -8.1      4.713     11.599
REMARK  Name = 
REMARK  5 active torsions:
REMARK  status: ('A' for Active; 'I' for Inactive)
REMARK    1  A    between atoms: C_4  and  C_5
REMARK    2  A    between atoms: N_8  and  C_9
REMARK    3  A    between atoms: C_16  and  N_17
REMARK    4  A    between atoms: N_17  and  C_18
REMARK    5  A    between atoms: C_24  and  C_25
REMARK                            x       y       z     vdW  Elec       q    Type
REMARK                         _______ _______ _______ _____ _____    ______ ____
ROOT
ATOM      1  O   UNL     1       0.335  10.644  23.012  0.00  0.00    +0.000 OA
ATOM      2  C   UNL     1      -0.370  11.284  22.238  0.00  0.00    +0.000 A 
ATOM      3  N   UNL     1      -1.066  12.374  22.679  0.00  0.00    +0.000 N 
ATOM      4  C   UNL     1      -1.919  13.058  21.873  0.00  0.00    +0.000 A 
ATOM      5  N   UNL     1      -2.102  12.738  20.628  0.00  0.00    +0.000 NA
ATOM      6  C   UNL     1      -1.416  11.670  20.064  0.00  0.00    +0.000 A 
ATOM      7  C   UNL     1      -0.552  10.934  20.807  0.00  0.00    +0.000 A 
ATOM      8  H   UNL     1      -0.938  12.614  23.649  0.00  0.00    +0.000 HD
ENDROOT
BRANCH   7   9
ATOM      9  C   UNL     1       0.289   9.925  20.251  0.00  0.00    +0.000 A 
ATOM     10  N   UNL     1       0.908  10.000  19.085  0.00  0.00    +0.000 NA
ATOM     11  C   UNL     1       1.704   8.888  18.870  0.00  0.00    +0.000 A 
ATOM     12  C   UNL     1       2.542   8.674  17.755  0.00  0.00    +0.000 A 
ATOM     13  C   UNL     1       3.288   7.494  17.655  0.00  0.00    +0.000 A 
ATOM     14  C   UNL     1       3.203   6.525  18.649  0.00  0.00    +0.000 A 
ATOM     15  C   UNL     1       2.384   6.717  19.769  0.00  0.00    +0.000 A 
ATOM     16  C   UNL     1       1.645   7.912  19.863  0.00  0.00    +0.000 A 
ATOM     17  S   UNL     1       0.576   8.448  21.106  0.00  0.00    +0.000 S 
ENDBRANCH   7   9
BRANCH   4  18
ATOM     18  C   UNL     1      -2.693  14.236  22.496  0.00  0.00    +0.000 C 
ATOM     19  C   UNL     1      -2.185  15.628  22.083  0.00  0.00    +0.000 C 
ATOM     20  C   UNL     1      -1.412  16.430  23.141  0.00  0.00    +0.000 C 
ATOM     21  N   UNL     1      -2.036  16.360  24.472  0.00  0.00    +0.000 NA
ATOM     22  C   UNL     1      -2.017  14.955  24.906  0.00  0.00    +0.000 C 
ATOM     23  C   UNL     1      -2.915  14.091  24.012  0.00  0.00    +0.000 C 
BRANCH  21  24
ATOM     24  C   UNL     1      -1.270  17.191  25.433  0.00  0.00    +0.000 C 
ATOM     25  C   UNL     1      -0.710  16.316  26.594  0.00  0.00    +0.000 C 
ATOM     26  C   UNL     1       0.615  17.091  26.449  0.00  0.00    +0.000 C 
ATOM     27  C   UNL     1       0.213  17.338  24.978  0.00  0.00    +0.000 C 
ENDBRANCH  21  24
ENDBRANCH   4  18
BRANCH   6  28
ATOM     28  N   UNL     1      -1.663  11.383  18.700  0.00  0.00    +0.000 N 
ATOM     29  H   UNL     1      -1.695  12.242  18.150  0.00  0.00    +0.000 HD
BRANCH  28  30
ATOM     30  C   UNL     1      -2.836  10.550  18.333  0.00  0.00    +0.000 C 
ATOM     31  C   UNL     1      -2.502   9.639  17.144  0.00  0.00    +0.000 C 
ATOM     32  C   UNL     1      -2.744  10.276  15.774  0.00  0.00    +0.000 C 
ATOM     33  C   UNL     1      -4.085  10.994  15.690  0.00  0.00    +0.000 C 
ATOM     34  N   UNL     1      -4.180  12.021  16.726  0.00  0.00    +0.000 NA
ATOM     35  C   UNL     1      -4.109  11.405  18.060  0.00  0.00    +0.000 C 
ATOM     36  H   UNL     1      -5.073  12.505  16.628  0.00  0.00    +0.000 HD
ENDBRANCH  28  30
ENDBRANCH   6  28
TORSDOF 5
ENDMDL
