MODEL 1
REMARK VINA RESULT:      -7.5      0.000      0.000
REMARK  Name = 
REMARK  8 active torsions:
REMARK  status: ('A' for Active; 'I' for Inactive)
REMARK    1  A    between atoms: C_2  and  C_13
REMARK    2  A    between atoms: N_3  and  C_4
REMARK    3  A    between atoms: C_4  and  C_5
REMARK    4  A    between atoms: C_5  and  O_6
REMARK    5  A    between atoms: O_6  and  C_7
REMARK    6  A    between atoms: N_18  and  C_19
REMARK    7  A    between atoms: C_19  and  C_20
REMARK    8  A    between atoms: C_20  and  N_21
REMARK                            x       y       z     vdW  Elec       q    Type
REMARK                         _______ _______ _______ _____ _____    ______ ____
ROOT
ATOM      1  C   UNL     1       1.132   3.955  19.974  0.00  0.00    +0.000 C 
ATOM      2  C   UNL     1       1.283   2.983  21.139  0.00  0.00    +0.000 C 
ATOM      3  C   UNL     1       2.733   2.607  21.390  0.00  0.00    +0.000 C 
ATOM      4  C   UNL     1       3.635   2.501  20.173  0.00  0.00    +0.000 C 
ATOM      5  O   UNL     1       4.778   2.062  20.326  0.00  0.00    +0.000 OA
ATOM      6  N   UNL     1       3.153   2.948  18.950  0.00  0.00    +0.000 N 
ATOM      7  C   UNL     1       1.745   3.283  18.750  0.00  0.00    +0.000 C 
ENDROOT
BRANCH   1   9
ATOM      8  O   UNL     1       2.096   5.784  21.226  0.00  0.00    +0.000 OA
ATOM      9  C   UNL     1       1.742   5.350  20.133  0.00  0.00    +0.000 C 
ATOM     10  N   UNL     1       1.970   6.044  18.967  0.00  0.00    +0.000 N 
ATOM     11  H   UNL     1       1.486   5.758  18.127  0.00  0.00    +0.000 HD
BRANCH  10  12
ATOM     12  C   UNL     1       2.479   7.405  18.989  0.00  0.00    +0.000 C 
BRANCH  12  13
ATOM     13  C   UNL     1       2.163   8.117  17.678  0.00  0.00    +0.000 C 
BRANCH  13  14
ATOM     14  O   UNL     1       2.234   9.528  17.862  0.00  0.00    +0.000 OA
BRANCH  14  15
ATOM     15  C   UNL     1       1.084  10.104  18.336  0.00  0.00    +0.000 A 
ATOM     16  C   UNL     1       1.268  11.196  19.191  0.00  0.00    +0.000 A 
ATOM     17  C   UNL     1       0.172  11.866  19.730  0.00  0.00    +0.000 A 
ATOM     18  C   UNL     1      -1.120  11.455  19.411  0.00  0.00    +0.000 A 
ATOM     19  C   UNL     1      -1.312  10.378  18.548  0.00  0.00    +0.000 A 
ATOM     20  C   UNL     1      -0.212   9.705  18.008  0.00  0.00    +0.000 A 
ENDBRANCH  14  15
ENDBRANCH  13  14
ENDBRANCH  12  13
ENDBRANCH  10  12
ENDBRANCH   1   9
BRANCH   6  21
ATOM     21  C   UNL     1       3.934   2.641  17.751  0.00  0.00    +0.000 C 
BRANCH  21  22
ATOM     22  C   UNL     1       4.259   3.810  16.788  0.00  0.00    +0.000 C 
BRANCH  22  23
ATOM     23  N   UNL     1       4.857   4.937  17.542  0.00  0.00    +0.000 NA
ATOM     24  C   UNL     1       5.034   6.164  16.735  0.00  0.00    +0.000 C 
ATOM     25  C   UNL     1       6.207   6.089  15.750  0.00  0.00    +0.000 C 
ATOM     26  O   UNL     1       7.432   5.889  16.463  0.00  0.00    +0.000 OA
ATOM     27  C   UNL     1       7.381   4.677  17.225  0.00  0.00    +0.000 C 
ATOM     28  C   UNL     1       6.160   4.617  18.166  0.00  0.00    +0.000 C 
ENDBRANCH  22  23
ENDBRANCH  21  22
ENDBRANCH   6  21
TORSDOF 8
ENDMDL
MODEL 2
REMARK VINA RESULT:      -7.4      0.708      1.155
REMARK  Name = 
REMARK  8 active torsions:
REMARK  status: ('A' for Active; 'I' for Inactive)
REMARK    1  A    between atoms: C_2  and  C_13
REMARK    2  A    between atoms: N_3  and  C_4
REMARK    3  A    between atoms: C_4  and  C_5
REMARK    4  A    between atoms: C_5  and  O_6
REMARK    5  A    between atoms: O_6  and  C_7
REMARK    6  A    between atoms: N_18  and  C_19
REMARK    7  A    between atoms: C_19  and  C_20
REMARK    8  A    between atoms: C_20  and  N_21
REMARK                            x       y       z     vdW  Elec       q    Type
REMARK                         _______ _______ _______ _____ _____    ______ ____
ROOT
ATOM      1  C   UNL     1       1.187   4.199  19.676  0.00  0.00    +0.000 C 
ATOM      2  C   UNL     1       1.203   3.298  20.907  0.00  0.00    +0.000 C 
ATOM      3  C   UNL     1       2.610   2.880  21.295  0.00  0.00    +0.000 C 
ATOM      4  C   UNL     1       3.598   2.660  20.163  0.00  0.00    +0.000 C 
ATOM      5  O   UNL     1       4.704   2.185  20.432  0.00  0.00    +0.000 OA
ATOM      6  N   UNL     1       3.232   3.047  18.880  0.00  0.00    +0.000 N 
ATOM      7  C   UNL     1       1.861   3.426  18.549  0.00  0.00    +0.000 C 
ENDROOT
BRANCH   1   9
ATOM      8  O   UNL     1       2.033   6.112  20.888  0.00  0.00    +0.000 OA
ATOM      9  C   UNL     1       1.845   5.575  19.799  0.00  0.00    +0.000 C 
ATOM     10  N   UNL     1       2.313   6.125  18.628  0.00  0.00    +0.000 N 
ATOM     11  H   UNL     1       1.964   5.770  17.749  0.00  0.00    +0.000 HD
BRANCH  10  12
ATOM     12  C   UNL     1       2.894   7.458  18.602  0.00  0.00    +0.000 C 
BRANCH  12  13
ATOM     13  C   UNL     1       1.876   8.477  18.103  0.00  0.00    +0.000 C 
BRANCH  13  14
ATOM     14  O   UNL     1       1.219   9.090  19.209  0.00  0.00    +0.000 OA
BRANCH  14  15
ATOM     15  C   UNL     1       0.630  10.295  18.931  0.00  0.00    +0.000 A 
ATOM     16  C   UNL     1      -0.691  10.226  18.475  0.00  0.00    +0.000 A 
ATOM     17  C   UNL     1      -1.395  11.389  18.166  0.00  0.00    +0.000 A 
ATOM     18  C   UNL     1      -0.786  12.631  18.318  0.00  0.00    +0.000 A 
ATOM     19  C   UNL     1       0.525  12.709  18.786  0.00  0.00    +0.000 A 
ATOM     20  C   UNL     1       1.231  11.543  19.095  0.00  0.00    +0.000 A 
ENDBRANCH  14  15
ENDBRANCH  13  14
ENDBRANCH  12  13
ENDBRANCH  10  12
ENDBRANCH   1   9
BRANCH   6  21
ATOM     21  C   UNL     1       4.089   2.633  17.769  0.00  0.00    +0.000 C 
BRANCH  21  22
ATOM     22  C   UNL     1       4.285   3.634  16.602  0.00  0.00    +0.000 C 
BRANCH  22  23
ATOM     23  N   UNL     1       4.861   4.900  17.113  0.00  0.00    +0.000 NA
ATOM     24  C   UNL     1       5.119   5.904  16.057  0.00  0.00    +0.000 C 
ATOM     25  C   UNL     1       6.350   5.591  15.198  0.00  0.00    +0.000 C 
ATOM     26  O   UNL     1       7.522   5.553  16.020  0.00  0.00    +0.000 OA
ATOM     27  C   UNL     1       7.393   4.552  17.038  0.00  0.00    +0.000 C 
ATOM     28  C   UNL     1       6.113   4.723  17.881  0.00  0.00    +0.000 C 
ENDBRANCH  22  23
ENDBRANCH  21  22
ENDBRANCH   6  21
TORSDOF 8
ENDMDL
MODEL 3
REMARK VINA RESULT:      -7.1      1.215      1.607
REMARK  Name = 
REMARK  8 active torsions:
REMARK  status: ('A' for Active; 'I' for Inactive)
REMARK    1  A    between atoms: C_2  and  C_13
REMARK    2  A    between atoms: N_3  and  C_4
REMARK    3  A    between atoms: C_4  and  C_5
REMARK    4  A    between atoms: C_5  and  O_6
REMARK    5  A    between atoms: O_6  and  C_7
REMARK    6  A    between atoms: N_18  and  C_19
REMARK    7  A    between atoms: C_19  and  C_20
REMARK    8  A    between atoms: C_20  and  N_21
REMARK                            x       y       z     vdW  Elec       q    Type
REMARK                         _______ _______ _______ _____ _____    ______ ____
ROOT
ATOM      1  C   UNL     1       1.175   4.136  20.239  0.00  0.00    +0.000 C 
ATOM      2  C   UNL     1       1.361   3.151  21.389  0.00  0.00    +0.000 C 
ATOM      3  C   UNL     1       2.804   2.700  21.534  0.00  0.00    +0.000 C 
ATOM      4  C   UNL     1       3.610   2.556  20.255  0.00  0.00    +0.000 C 
ATOM      5  O   UNL     1       4.737   2.060  20.323  0.00  0.00    +0.000 OA
ATOM      6  N   UNL     1       3.064   3.033  19.070  0.00  0.00    +0.000 N 
ATOM      7  C   UNL     1       1.664   3.440  18.973  0.00  0.00    +0.000 C 
ENDROOT
BRANCH   1   9
ATOM      8  O   UNL     1       3.036   5.663  20.027  0.00  0.00    +0.000 OA
ATOM      9  C   UNL     1       1.864   5.497  20.356  0.00  0.00    +0.000 C 
ATOM     10  N   UNL     1       1.064   6.545  20.749  0.00  0.00    +0.000 N 
ATOM     11  H   UNL     1       0.185   6.343  21.204  0.00  0.00    +0.000 HD
BRANCH  10  12
ATOM     12  C   UNL     1       1.615   7.872  20.966  0.00  0.00    +0.000 C 
BRANCH  12  13
ATOM     13  C   UNL     1       0.512   8.924  20.927  0.00  0.00    +0.000 C 
BRANCH  13  14
ATOM     14  O   UNL     1       0.757   9.848  19.871  0.00  0.00    +0.000 OA
BRANCH  14  15
ATOM     15  C   UNL     1      -0.364  10.450  19.363  0.00  0.00    +0.000 A 
ATOM     16  C   UNL     1      -0.768  10.000  18.102  0.00  0.00    +0.000 A 
ATOM     17  C   UNL     1      -1.898  10.535  17.487  0.00  0.00    +0.000 A 
ATOM     18  C   UNL     1      -2.640  11.521  18.133  0.00  0.00    +0.000 A 
ATOM     19  C   UNL     1      -2.253  11.964  19.397  0.00  0.00    +0.000 A 
ATOM     20  C   UNL     1      -1.118  11.428  20.013  0.00  0.00    +0.000 A 
ENDBRANCH  14  15
ENDBRANCH  13  14
ENDBRANCH  12  13
ENDBRANCH  10  12
ENDBRANCH   1   9
BRANCH   6  21
ATOM     21  C   UNL     1       3.740   2.694  17.818  0.00  0.00    +0.000 C 
BRANCH  21  22
ATOM     22  C   UNL     1       4.082   3.855  16.850  0.00  0.00    +0.000 C 
BRANCH  22  23
ATOM     23  N   UNL     1       4.843   4.905  17.566  0.00  0.00    +0.000 NA
ATOM     24  C   UNL     1       4.934   6.183  16.826  0.00  0.00    +0.000 C 
ATOM     25  C   UNL     1       5.924   6.146  15.655  0.00  0.00    +0.000 C 
ATOM     26  O   UNL     1       7.241   5.858  16.137  0.00  0.00    +0.000 OA
ATOM     27  C   UNL     1       7.267   4.595  16.813  0.00  0.00    +0.000 C 
ATOM     28  C   UNL     1       6.217   4.502  17.939  0.00  0.00    +0.000 C 
ENDBRANCH  22  23
ENDBRANCH  21  22
ENDBRANCH   6  21
TORSDOF 8
ENDMDL
MODEL 4
REMARK VINA RESULT:      -7.1      0.974      1.393
REMARK  Name = 
REMARK  8 active torsions:
REMARK  status: ('A' for Active; 'I' for Inactive)
REMARK    1  A    between atoms: C_2  and  C_13
REMARK    2  A    between atoms: N_3  and  C_4
REMARK    3  A    between atoms: C_4  and  C_5
REMARK    4  A    between atoms: C_5  and  O_6
REMARK    5  A    between atoms: O_6  and  C_7
REMARK    6  A    between atoms: N_18  and  C_19
REMARK    7  A    between atoms: C_19  and  C_20
REMARK    8  A    between atoms: C_20  and  N_21
REMARK                            x       y       z     vdW  Elec       q    Type
REMARK                         _______ _______ _______ _____ _____    ______ ____
ROOT
ATOM      1  C   UNL     1       1.072   4.121  19.998  0.00  0.00    +0.000 C 
ATOM      2  C   UNL     1       1.275   3.143  21.151  0.00  0.00    +0.000 C 
ATOM      3  C   UNL     1       2.732   2.750  21.321  0.00  0.00    +0.000 C 
ATOM      4  C   UNL     1       3.567   2.640  20.057  0.00  0.00    +0.000 C 
ATOM      5  O   UNL     1       4.711   2.188  20.146  0.00  0.00    +0.000 OA
ATOM      6  N   UNL     1       3.024   3.096  18.863  0.00  0.00    +0.000 N 
ATOM      7  C   UNL     1       1.611   3.448  18.741  0.00  0.00    +0.000 C 
ENDROOT
BRANCH   1   9
ATOM      8  O   UNL     1       1.711   6.122  21.193  0.00  0.00    +0.000 OA
ATOM      9  C   UNL     1       1.704   5.508  20.129  0.00  0.00    +0.000 C 
ATOM     10  N   UNL     1       2.360   5.979  19.014  0.00  0.00    +0.000 N 
ATOM     11  H   UNL     1       2.160   5.559  18.118  0.00  0.00    +0.000 HD
BRANCH  10  12
ATOM     12  C   UNL     1       2.940   7.311  18.989  0.00  0.00    +0.000 C 
BRANCH  12  13
ATOM     13  C   UNL     1       2.583   8.028  17.692  0.00  0.00    +0.000 C 
BRANCH  13  14
ATOM     14  O   UNL     1       1.269   8.572  17.783  0.00  0.00    +0.000 OA
BRANCH  14  15
ATOM     15  C   UNL     1       1.173   9.719  18.526  0.00  0.00    +0.000 A 
ATOM     16  C   UNL     1       1.917  10.805  18.052  0.00  0.00    +0.000 A 
ATOM     17  C   UNL     1       1.893  12.027  18.723  0.00  0.00    +0.000 A 
ATOM     18  C   UNL     1       1.118  12.175  19.869  0.00  0.00    +0.000 A 
ATOM     19  C   UNL     1       0.361  11.103  20.340  0.00  0.00    +0.000 A 
ATOM     20  C   UNL     1       0.386   9.877  19.668  0.00  0.00    +0.000 A 
ENDBRANCH  14  15
ENDBRANCH  13  14
ENDBRANCH  12  13
ENDBRANCH  10  12
ENDBRANCH   1   9
BRANCH   6  21
ATOM     21  C   UNL     1       3.736   2.786  17.623  0.00  0.00    +0.000 C 
BRANCH  21  22
ATOM     22  C   UNL     1       4.405   3.962  16.867  0.00  0.00    +0.000 C 
BRANCH  22  23
ATOM     23  N   UNL     1       5.852   3.695  16.696  0.00  0.00    +0.000 NA
ATOM     24  C   UNL     1       6.720   4.596  17.487  0.00  0.00    +0.000 C 
ATOM     25  C   UNL     1       6.826   6.012  16.910  0.00  0.00    +0.000 C 
ATOM     26  O   UNL     1       7.383   5.962  15.592  0.00  0.00    +0.000 OA
ATOM     27  C   UNL     1       6.565   5.163  14.727  0.00  0.00    +0.000 C 
ATOM     28  C   UNL     1       6.310   3.750  15.290  0.00  0.00    +0.000 C 
ENDBRANCH  22  23
ENDBRANCH  21  22
ENDBRANCH   6  21
TORSDOF 8
ENDMDL
MODEL 5
REMARK VINA RESULT:      -7.1      5.119      7.635
REMARK  Name = 
REMARK  8 active torsions:
REMARK  status: ('A' for Active; 'I' for Inactive)
REMARK    1  A    between atoms: C_2  and  C_13
REMARK    2  A    between atoms: N_3  and  C_4
REMARK    3  A    between atoms: C_4  and  C_5
REMARK    4  A    between atoms: C_5  and  O_6
REMARK    5  A    between atoms: O_6  and  C_7
REMARK    6  A    between atoms: N_18  and  C_19
REMARK    7  A    between atoms: C_19  and  C_20
REMARK    8  A    between atoms: C_20  and  N_21
REMARK                            x       y       z     vdW  Elec       q    Type
REMARK                         _______ _______ _______ _____ _____    ______ ____
ROOT
ATOM      1  C   UNL     1       7.631   5.744  18.635  0.00  0.00    +0.000 C 
ATOM      2  C   UNL     1       7.808   4.524  17.736  0.00  0.00    +0.000 C 
ATOM      3  C   UNL     1       6.779   4.478  16.620  0.00  0.00    +0.000 C 
ATOM      4  C   UNL     1       5.392   5.007  16.942  0.00  0.00    +0.000 C 
ATOM      5  O   UNL     1       4.497   4.855  16.107  0.00  0.00    +0.000 OA
ATOM      6  N   UNL     1       5.202   5.680  18.142  0.00  0.00    +0.000 N 
ATOM      7  C   UNL     1       6.215   5.683  19.195  0.00  0.00    +0.000 C 
ENDROOT
BRANCH   1   9
ATOM      8  O   UNL     1       7.418   7.415  16.902  0.00  0.00    +0.000 OA
ATOM      9  C   UNL     1       7.860   7.121  18.010  0.00  0.00    +0.000 C 
ATOM     10  N   UNL     1       8.495   8.046  18.807  0.00  0.00    +0.000 N 
ATOM     11  H   UNL     1       9.021   7.721  19.607  0.00  0.00    +0.000 HD
BRANCH  10  12
ATOM     12  C   UNL     1       8.834   9.367  18.304  0.00  0.00    +0.000 C 
BRANCH  12  13
ATOM     13  C   UNL     1       9.298  10.271  19.440  0.00  0.00    +0.000 C 
BRANCH  13  14
ATOM     14  O   UNL     1       8.947  11.623  19.160  0.00  0.00    +0.000 OA
BRANCH  14  15
ATOM     15  C   UNL     1      10.011  12.467  18.977  0.00  0.00    +0.000 A 
ATOM     16  C   UNL     1       9.871  13.391  17.936  0.00  0.00    +0.000 A 
ATOM     17  C   UNL     1      10.887  14.305  17.660  0.00  0.00    +0.000 A 
ATOM     18  C   UNL     1      12.048  14.307  18.427  0.00  0.00    +0.000 A 
ATOM     19  C   UNL     1      12.189  13.399  19.476  0.00  0.00    +0.000 A 
ATOM     20  C   UNL     1      11.171  12.482  19.752  0.00  0.00    +0.000 A 
ENDBRANCH  14  15
ENDBRANCH  13  14
ENDBRANCH  12  13
ENDBRANCH  10  12
ENDBRANCH   1   9
BRANCH   6  21
ATOM     21  C   UNL     1       3.830   5.988  18.546  0.00  0.00    +0.000 C 
BRANCH  21  22
ATOM     22  C   UNL     1       3.217   5.154  19.699  0.00  0.00    +0.000 C 
BRANCH  22  23
ATOM     23  N   UNL     1       1.811   4.809  19.384  0.00  0.00    +0.000 NA
ATOM     24  C   UNL     1       1.149   3.996  20.429  0.00  0.00    +0.000 C 
ATOM     25  C   UNL     1       1.595   2.529  20.441  0.00  0.00    +0.000 C 
ATOM     26  O   UNL     1       1.284   1.913  19.186  0.00  0.00    +0.000 OA
ATOM     27  C   UNL     1       1.943   2.595  18.112  0.00  0.00    +0.000 C 
ATOM     28  C   UNL     1       1.640   4.107  18.092  0.00  0.00    +0.000 C 
ENDBRANCH  22  23
ENDBRANCH  21  22
ENDBRANCH   6  21
TORSDOF 8
ENDMDL
MODEL 6
REMARK VINA RESULT:      -7.0      1.161      1.201
REMARK  Name = 
REMARK  8 active torsions:
REMARK  status: ('A' for Active; 'I' for Inactive)
REMARK    1  A    between atoms: C_2  and  C_13
REMARK    2  A    between atoms: N_3  and  C_4
REMARK    3  A    between atoms: C_4  and  C_5
REMARK    4  A    between atoms: C_5  and  O_6
REMARK    5  A    between atoms: O_6  and  C_7
REMARK    6  A    between atoms: N_18  and  C_19
REMARK    7  A    between atoms: C_19  and  C_20
REMARK    8  A    between atoms: C_20  and  N_21
REMARK                            x       y       z     vdW  Elec       q    Type
REMARK                         _______ _______ _______ _____ _____    ______ ____
ROOT
ATOM      1  C   UNL     1       1.139   4.063  19.835  0.00  0.00    +0.000 C 
ATOM      2  C   UNL     1       1.297   3.209  21.089  0.00  0.00    +0.000 C 
ATOM      3  C   UNL     1       2.751   2.886  21.386  0.00  0.00    +0.000 C 
ATOM      4  C   UNL     1       3.667   2.683  20.192  0.00  0.00    +0.000 C 
ATOM      5  O   UNL     1       4.816   2.283  20.394  0.00  0.00    +0.000 OA
ATOM      6  N   UNL     1       3.187   3.002  18.928  0.00  0.00    +0.000 N 
ATOM      7  C   UNL     1       1.776   3.289  18.686  0.00  0.00    +0.000 C 
ENDROOT
BRANCH   1   9
ATOM      8  O   UNL     1       2.320   5.955  18.906  0.00  0.00    +0.000 OA
ATOM      9  C   UNL     1       1.720   5.477  19.865  0.00  0.00    +0.000 C 
ATOM     10  N   UNL     1       1.437   6.221  20.988  0.00  0.00    +0.000 N 
ATOM     11  H   UNL     1       1.134   5.743  21.825  0.00  0.00    +0.000 HD
BRANCH  10  12
ATOM     12  C   UNL     1       1.991   7.553  21.168  0.00  0.00    +0.000 C 
BRANCH  12  13
ATOM     13  C   UNL     1       0.935   8.615  20.888  0.00  0.00    +0.000 C 
BRANCH  13  14
ATOM     14  O   UNL     1       1.123   9.155  19.583  0.00  0.00    +0.000 OA
BRANCH  14  15
ATOM     15  C   UNL     1       0.300  10.206  19.272  0.00  0.00    +0.000 A 
ATOM     16  C   UNL     1       0.582  11.405  19.934  0.00  0.00    +0.000 A 
ATOM     17  C   UNL     1      -0.184  12.544  19.694  0.00  0.00    +0.000 A 
ATOM     18  C   UNL     1      -1.235  12.495  18.783  0.00  0.00    +0.000 A 
ATOM     19  C   UNL     1      -1.514  11.308  18.107  0.00  0.00    +0.000 A 
ATOM     20  C   UNL     1      -0.746  10.166  18.349  0.00  0.00    +0.000 A 
ENDBRANCH  14  15
ENDBRANCH  13  14
ENDBRANCH  12  13
ENDBRANCH  10  12
ENDBRANCH   1   9
BRANCH   6  21
ATOM     21  C   UNL     1       3.986   2.598  17.770  0.00  0.00    +0.000 C 
BRANCH  21  22
ATOM     22  C   UNL     1       4.249   3.661  16.674  0.00  0.00    +0.000 C 
BRANCH  22  23
ATOM     23  N   UNL     1       4.863   4.868  17.275  0.00  0.00    +0.000 NA
ATOM     24  C   UNL     1       5.026   5.989  16.322  0.00  0.00    +0.000 C 
ATOM     25  C   UNL     1       6.180   5.791  15.332  0.00  0.00    +0.000 C 
ATOM     26  O   UNL     1       7.418   5.675  16.041  0.00  0.00    +0.000 OA
ATOM     27  C   UNL     1       7.380   4.563  16.945  0.00  0.00    +0.000 C 
ATOM     28  C   UNL     1       6.177   4.621  17.908  0.00  0.00    +0.000 C 
ENDBRANCH  22  23
ENDBRANCH  21  22
ENDBRANCH   6  21
TORSDOF 8
ENDMDL
MODEL 7
REMARK VINA RESULT:      -6.9      1.085      1.202
REMARK  Name = 
REMARK  8 active torsions:
REMARK  status: ('A' for Active; 'I' for Inactive)
REMARK    1  A    between atoms: C_2  and  C_13
REMARK    2  A    between atoms: N_3  and  C_4
REMARK    3  A    between atoms: C_4  and  C_5
REMARK    4  A    between atoms: C_5  and  O_6
REMARK    5  A    between atoms: O_6  and  C_7
REMARK    6  A    between atoms: N_18  and  C_19
REMARK    7  A    between atoms: C_19  and  C_20
REMARK    8  A    between atoms: C_20  and  N_21
REMARK                            x       y       z     vdW  Elec       q    Type
REMARK                         _______ _______ _______ _____ _____    ______ ____
ROOT
ATOM      1  C   UNL     1       1.274   4.359  19.287  0.00  0.00    +0.000 C 
ATOM      2  C   UNL     1       1.250   3.357  20.437  0.00  0.00    +0.000 C 
ATOM      3  C   UNL     1       2.646   2.944  20.869  0.00  0.00    +0.000 C 
ATOM      4  C   UNL     1       3.701   2.846  19.781  0.00  0.00    +0.000 C 
ATOM      5  O   UNL     1       4.805   2.379  20.073  0.00  0.00    +0.000 OA
ATOM      6  N   UNL     1       3.395   3.331  18.516  0.00  0.00    +0.000 N 
ATOM      7  C   UNL     1       2.033   3.702  18.139  0.00  0.00    +0.000 C 
ENDROOT
BRANCH   1   9
ATOM      8  O   UNL     1       2.096   6.137  20.703  0.00  0.00    +0.000 OA
ATOM      9  C   UNL     1       1.883   5.736  19.561  0.00  0.00    +0.000 C 
ATOM     10  N   UNL     1       2.277   6.451  18.454  0.00  0.00    +0.000 N 
ATOM     11  H   UNL     1       1.906   6.196  17.551  0.00  0.00    +0.000 HD
BRANCH  10  12
ATOM     12  C   UNL     1       2.804   7.800  18.579  0.00  0.00    +0.000 C 
BRANCH  12  13
ATOM     13  C   UNL     1       1.775   8.823  18.112  0.00  0.00    +0.000 C 
BRANCH  13  14
ATOM     14  O   UNL     1       1.050   9.329  19.230  0.00  0.00    +0.000 OA
BRANCH  14  15
ATOM     15  C   UNL     1      -0.073  10.046  18.909  0.00  0.00    +0.000 A 
ATOM     16  C   UNL     1      -0.444  11.025  19.837  0.00  0.00    +0.000 A 
ATOM     17  C   UNL     1      -1.566  11.821  19.615  0.00  0.00    +0.000 A 
ATOM     18  C   UNL     1      -2.323  11.650  18.459  0.00  0.00    +0.000 A 
ATOM     19  C   UNL     1      -1.951  10.688  17.522  0.00  0.00    +0.000 A 
ATOM     20  C   UNL     1      -0.826   9.888  17.745  0.00  0.00    +0.000 A 
ENDBRANCH  14  15
ENDBRANCH  13  14
ENDBRANCH  12  13
ENDBRANCH  10  12
ENDBRANCH   1   9
BRANCH   6  21
ATOM     21  C   UNL     1       4.324   3.035  17.425  0.00  0.00    +0.000 C 
BRANCH  21  22
ATOM     22  C   UNL     1       5.589   3.920  17.300  0.00  0.00    +0.000 C 
BRANCH  22  23
ATOM     23  N   UNL     1       5.349   5.240  17.928  0.00  0.00    +0.000 NA
ATOM     24  C   UNL     1       5.710   6.385  17.063  0.00  0.00    +0.000 C 
ATOM     25  C   UNL     1       7.221   6.619  16.949  0.00  0.00    +0.000 C 
ATOM     26  O   UNL     1       7.771   6.895  18.242  0.00  0.00    +0.000 OA
ATOM     27  C   UNL     1       7.531   5.802  19.138  0.00  0.00    +0.000 C 
ATOM     28  C   UNL     1       6.039   5.422  19.225  0.00  0.00    +0.000 C 
ENDBRANCH  22  23
ENDBRANCH  21  22
ENDBRANCH   6  21
TORSDOF 8
ENDMDL
MODEL 8
REMARK VINA RESULT:      -6.9      4.729      7.130
REMARK  Name = 
REMARK  8 active torsions:
REMARK  status: ('A' for Active; 'I' for Inactive)
REMARK    1  A    between atoms: C_2  and  C_13
REMARK    2  A    between atoms: N_3  and  C_4
REMARK    3  A    between atoms: C_4  and  C_5
REMARK    4  A    between atoms: C_5  and  O_6
REMARK    5  A    between atoms: O_6  and  C_7
REMARK    6  A    between atoms: N_18  and  C_19
REMARK    7  A    between atoms: C_19  and  C_20
REMARK    8  A    between atoms: C_20  and  N_21
REMARK                            x       y       z     vdW  Elec       q    Type
REMARK                         _______ _______ _______ _____ _____    ______ ____
ROOT
ATOM      1  C   UNL     1       7.628   5.696  18.577  0.00  0.00    +0.000 C 
ATOM      2  C   UNL     1       7.793   4.470  17.683  0.00  0.00    +0.000 C 
ATOM      3  C   UNL     1       6.749   4.418  16.581  0.00  0.00    +0.000 C 
ATOM      4  C   UNL     1       5.367   4.948  16.918  0.00  0.00    +0.000 C 
ATOM      5  O   UNL     1       4.461   4.792  16.096  0.00  0.00    +0.000 OA
ATOM      6  N   UNL     1       5.192   5.629  18.116  0.00  0.00    +0.000 N 
ATOM      7  C   UNL     1       6.219   5.639  19.156  0.00  0.00    +0.000 C 
ENDROOT
BRANCH   1   9
ATOM      8  O   UNL     1       7.540   7.304  16.774  0.00  0.00    +0.000 OA
ATOM      9  C   UNL     1       7.848   7.070  17.940  0.00  0.00    +0.000 C 
ATOM     10  N   UNL     1       8.311   8.056  18.781  0.00  0.00    +0.000 N 
ATOM     11  H   UNL     1       8.745   7.789  19.654  0.00  0.00    +0.000 HD
BRANCH  10  12
ATOM     12  C   UNL     1       8.628   9.384  18.282  0.00  0.00    +0.000 C 
BRANCH  12  13
ATOM     13  C   UNL     1       9.301  10.217  19.365  0.00  0.00    +0.000 C 
BRANCH  13  14
ATOM     14  O   UNL     1      10.202  11.149  18.772  0.00  0.00    +0.000 OA
BRANCH  14  15
ATOM     15  C   UNL     1       9.807  12.459  18.851  0.00  0.00    +0.000 A 
ATOM     16  C   UNL     1       9.288  12.855  20.088  0.00  0.00    +0.000 A 
ATOM     17  C   UNL     1       8.860  14.166  20.289  0.00  0.00    +0.000 A 
ATOM     18  C   UNL     1       8.955  15.095  19.256  0.00  0.00    +0.000 A 
ATOM     19  C   UNL     1       9.485  14.712  18.025  0.00  0.00    +0.000 A 
ATOM     20  C   UNL     1       9.914  13.397  17.823  0.00  0.00    +0.000 A 
ENDBRANCH  14  15
ENDBRANCH  13  14
ENDBRANCH  12  13
ENDBRANCH  10  12
ENDBRANCH   1   9
BRANCH   6  21
ATOM     21  C   UNL     1       3.826   5.940  18.536  0.00  0.00    +0.000 C 
BRANCH  21  22
ATOM     22  C   UNL     1       3.264   5.186  19.768  0.00  0.00    +0.000 C 
BRANCH  22  23
ATOM     23  N   UNL     1       1.854   4.802  19.529  0.00  0.00    +0.000 NA
ATOM     24  C   UNL     1       1.311   3.872  20.543  0.00  0.00    +0.000 C 
ATOM     25  C   UNL     1       1.817   2.432  20.392  0.00  0.00    +0.000 C 
ATOM     26  O   UNL     1       1.435   1.912  19.115  0.00  0.00    +0.000 OA
ATOM     27  C   UNL     1       1.979   2.713  18.059  0.00  0.00    +0.000 C 
ATOM     28  C   UNL     1       1.613   4.205  18.196  0.00  0.00    +0.000 C 
ENDBRANCH  22  23
ENDBRANCH  21  22
ENDBRANCH   6  21
TORSDOF 8
ENDMDL
MODEL 9
REMARK VINA RESULT:      -6.9      5.088      7.481
REMARK  Name = 
REMARK  8 active torsions:
REMARK  status: ('A' for Active; 'I' for Inactive)
REMARK    1  A    between atoms: C_2  and  C_13
REMARK    2  A    between atoms: N_3  and  C_4
REMARK    3  A    between atoms: C_4  and  C_5
REMARK    4  A    between atoms: C_5  and  O_6
REMARK    5  A    between atoms: O_6  and  C_7
REMARK    6  A    between atoms: N_18  and  C_19
REMARK    7  A    between atoms: C_19  and  C_20
REMARK    8  A    between atoms: C_20  and  N_21
REMARK                            x       y       z     vdW  Elec       q    Type
REMARK                         _______ _______ _______ _____ _____    ______ ____
ROOT
ATOM      1  C   UNL     1       7.565   5.737  18.554  0.00  0.00    +0.000 C 
ATOM      2  C   UNL     1       7.841   4.521  17.675  0.00  0.00    +0.000 C 
ATOM      3  C   UNL     1       6.929   4.470  16.462  0.00  0.00    +0.000 C 
ATOM      4  C   UNL     1       5.512   4.986  16.645  0.00  0.00    +0.000 C 
ATOM      5  O   UNL     1       4.706   4.830  15.724  0.00  0.00    +0.000 OA
ATOM      6  N   UNL     1       5.198   5.654  17.821  0.00  0.00    +0.000 N 
ATOM      7  C   UNL     1       6.100   5.663  18.970  0.00  0.00    +0.000 C 
ENDROOT
BRANCH   1   9
ATOM      8  O   UNL     1       7.503   7.414  16.816  0.00  0.00    +0.000 OA
ATOM      9  C   UNL     1       7.843   7.118  17.958  0.00  0.00    +0.000 C 
ATOM     10  N   UNL     1       8.398   8.042  18.814  0.00  0.00    +0.000 N 
ATOM     11  H   UNL     1       8.849   7.717  19.657  0.00  0.00    +0.000 HD
BRANCH  10  12
ATOM     12  C   UNL     1       8.775   9.367  18.349  0.00  0.00    +0.000 C 
BRANCH  12  13
ATOM     13  C   UNL     1       9.383  10.181  19.485  0.00  0.00    +0.000 C 
BRANCH  13  14
ATOM     14  O   UNL     1      10.371  11.071  18.971  0.00  0.00    +0.000 OA
BRANCH  14  15
ATOM     15  C   UNL     1      10.395  12.306  19.564  0.00  0.00    +0.000 A 
ATOM     16  C   UNL     1       9.845  12.365  20.849  0.00  0.00    +0.000 A 
ATOM     17  C   UNL     1       9.820  13.567  21.554  0.00  0.00    +0.000 A 
ATOM     18  C   UNL     1      10.352  14.719  20.983  0.00  0.00    +0.000 A 
ATOM     19  C   UNL     1      10.917  14.666  19.709  0.00  0.00    +0.000 A 
ATOM     20  C   UNL     1      10.941  13.460  19.002  0.00  0.00    +0.000 A 
ENDBRANCH  14  15
ENDBRANCH  13  14
ENDBRANCH  12  13
ENDBRANCH  10  12
ENDBRANCH   1   9
BRANCH   6  21
ATOM     21  C   UNL     1       3.789   5.950  18.087  0.00  0.00    +0.000 C 
BRANCH  21  22
ATOM     22  C   UNL     1       3.128   5.256  19.304  0.00  0.00    +0.000 C 
BRANCH  22  23
ATOM     23  N   UNL     1       2.945   3.812  19.027  0.00  0.00    +0.000 NA
ATOM     24  C   UNL     1       1.527   3.407  18.895  0.00  0.00    +0.000 C 
ATOM     25  C   UNL     1       0.781   3.332  20.232  0.00  0.00    +0.000 C 
ATOM     26  O   UNL     1       1.404   2.366  21.085  0.00  0.00    +0.000 OA
ATOM     27  C   UNL     1       2.772   2.716  21.330  0.00  0.00    +0.000 C 
ATOM     28  C   UNL     1       3.574   2.925  20.030  0.00  0.00    +0.000 C 
ENDBRANCH  22  23
ENDBRANCH  21  22
ENDBRANCH   6  21
TORSDOF 8
ENDMDL
