MODEL 1
REMARK VINA RESULT:      -8.6      0.000      0.000
REMARK  Name = 
REMARK  10 active torsions:
REMARK  status: ('A' for Active; 'I' for Inactive)
REMARK    1  A    between atoms: C_1  and  O_2
REMARK    2  A    between atoms: O_2  and  C_3
REMARK    3  A    between atoms: C_9  and  S_10
REMARK    4  A    between atoms: S_10  and  N_13
REMARK    5  A    between atoms: N_13  and  C_14
REMARK    6  A    between atoms: N_24  and  C_25
REMARK    7  A    between atoms: C_25  and  C_26
REMARK    8  A    between atoms: C_26  and  C_27
REMARK    9  A    between atoms: C_27  and  C_28
REMARK   10  A    between atoms: C_27  and  C_29
REMARK                            x       y       z     vdW  Elec       q    Type
REMARK                         _______ _______ _______ _____ _____    ______ ____
ROOT
ATOM      1  C   UNL     1       2.831   6.853  19.546  0.00  0.00    +0.000 A 
ATOM      2  C   UNL     1       2.739   7.581  18.369  0.00  0.00    +0.000 A 
ATOM      3  C   UNL     1       1.846   8.657  18.286  0.00  0.00    +0.000 A 
ATOM      4  C   UNL     1       1.026   9.003  19.371  0.00  0.00    +0.000 A 
ATOM      5  C   UNL     1       1.148   8.268  20.561  0.00  0.00    +0.000 A 
ATOM      6  C   UNL     1       2.030   7.180  20.633  0.00  0.00    +0.000 A 
ATOM      7  C   UNL     1       0.275   8.592  21.735  0.00  0.00    +0.000 C 
ATOM      8  C   UNL     1       0.047  10.084  21.780  0.00  0.00    +0.000 C 
ATOM      9  C   UNL     1      -0.530  10.570  20.470  0.00  0.00    +0.000 C 
ATOM     10  O   UNL     1      -1.393  11.448  20.474  0.00  0.00    +0.000 OA
ATOM     11  N   UNL     1       0.051  10.048  19.307  0.00  0.00    +0.000 N 
ENDROOT
BRANCH   1  12
ATOM     12  N   UNL     1       3.681   5.734  19.653  0.00  0.00    +0.000 N 
ATOM     13  H   UNL     1       4.327   5.633  20.431  0.00  0.00    +0.000 HD
BRANCH  12  14
ATOM     14  S   UNL     1       3.491   4.406  18.656  0.00  0.00    +0.000 S 
ATOM     15  O   UNL     1       2.283   4.613  17.883  0.00  0.00    +0.000 OA
ATOM     16  O   UNL     1       3.630   3.227  19.484  0.00  0.00    +0.000 OA
BRANCH  14  23
ATOM     17  C   UNL     1       6.180   4.714  17.985  0.00  0.00    +0.000 A 
ATOM     18  C   UNL     1       7.219   4.706  17.041  0.00  0.00    +0.000 A 
ATOM     19  C   UNL     1       6.958   4.472  15.686  0.00  0.00    +0.000 A 
ATOM     20  C   UNL     1       5.656   4.239  15.262  0.00  0.00    +0.000 A 
ATOM     21 CL   UNL     1       5.338   3.953  13.596  0.00  0.00    +0.000 Cl
ATOM     22  C   UNL     1       4.613   4.228  16.179  0.00  0.00    +0.000 A 
ATOM     23  C   UNL     1       4.872   4.458  17.539  0.00  0.00    +0.000 A 
BRANCH  17  25
ATOM     24  C   UNL     1       7.585   5.618  19.685  0.00  0.00    +0.000 C 
ATOM     25  O   UNL     1       6.382   4.945  19.317  0.00  0.00    +0.000 OA
ENDBRANCH  17  25
ENDBRANCH  14  23
ENDBRANCH  12  14
ENDBRANCH   1  12
BRANCH  11  26
ATOM     26  C   UNL     1      -0.346  10.632  18.022  0.00  0.00    +0.000 C 
BRANCH  26  27
ATOM     27  C   UNL     1      -1.526   9.945  17.315  0.00  0.00    +0.000 C 
BRANCH  27  28
ATOM     28  C   UNL     1      -2.560  10.875  16.656  0.00  0.00    +0.000 C 
ATOM     29  C   UNL     1      -2.909  10.441  15.234  0.00  0.00    +0.000 C 
ATOM     30  C   UNL     1      -3.831  10.901  17.512  0.00  0.00    +0.000 C 
ENDBRANCH  27  28
ENDBRANCH  26  27
ENDBRANCH  11  26
TORSDOF 7
ENDMDL
MODEL 2
REMARK VINA RESULT:      -8.1      3.249      7.989
REMARK  Name = 
REMARK  10 active torsions:
REMARK  status: ('A' for Active; 'I' for Inactive)
REMARK    1  A    between atoms: C_1  and  O_2
REMARK    2  A    between atoms: O_2  and  C_3
REMARK    3  A    between atoms: C_9  and  S_10
REMARK    4  A    between atoms: S_10  and  N_13
REMARK    5  A    between atoms: N_13  and  C_14
REMARK    6  A    between atoms: N_24  and  C_25
REMARK    7  A    between atoms: C_25  and  C_26
REMARK    8  A    between atoms: C_26  and  C_27
REMARK    9  A    between atoms: C_27  and  C_28
REMARK   10  A    between atoms: C_27  and  C_29
REMARK                            x       y       z     vdW  Elec       q    Type
REMARK                         _______ _______ _______ _____ _____    ______ ____
ROOT
ATOM      1  C   UNL     1       1.835   7.575  20.569  0.00  0.00    +0.000 A 
ATOM      2  C   UNL     1       2.327   7.725  19.282  0.00  0.00    +0.000 A 
ATOM      3  C   UNL     1       2.516   6.595  18.474  0.00  0.00    +0.000 A 
ATOM      4  C   UNL     1       2.230   5.307  18.952  0.00  0.00    +0.000 A 
ATOM      5  C   UNL     1       1.712   5.178  20.251  0.00  0.00    +0.000 A 
ATOM      6  C   UNL     1       1.543   6.310  21.062  0.00  0.00    +0.000 A 
ATOM      7  C   UNL     1       1.415   3.818  20.807  0.00  0.00    +0.000 C 
ATOM      8  C   UNL     1       0.912   2.932  19.693  0.00  0.00    +0.000 C 
ATOM      9  C   UNL     1       1.907   2.895  18.556  0.00  0.00    +0.000 C 
ATOM     10  O   UNL     1       2.105   1.839  17.954  0.00  0.00    +0.000 OA
ATOM     11  N   UNL     1       2.473   4.122  18.189  0.00  0.00    +0.000 N 
ENDROOT
BRANCH   1  12
ATOM     12  N   UNL     1       1.678   8.681  21.429  0.00  0.00    +0.000 N 
ATOM     13  H   UNL     1       2.478   9.230  21.734  0.00  0.00    +0.000 HD
BRANCH  12  14
ATOM     14  S   UNL     1       0.164   9.297  21.780  0.00  0.00    +0.000 S 
ATOM     15  O   UNL     1       0.297  10.126  22.961  0.00  0.00    +0.000 OA
ATOM     16  O   UNL     1      -0.761   8.184  21.774  0.00  0.00    +0.000 OA
BRANCH  14  23
ATOM     17  C   UNL     1       0.430  11.569  20.186  0.00  0.00    +0.000 A 
ATOM     18  C   UNL     1       0.070  12.330  19.061  0.00  0.00    +0.000 A 
ATOM     19  C   UNL     1      -0.943  11.900  18.196  0.00  0.00    +0.000 A 
ATOM     20  C   UNL     1      -1.605  10.704  18.444  0.00  0.00    +0.000 A 
ATOM     21 CL   UNL     1      -2.850  10.179  17.381  0.00  0.00    +0.000 Cl
ATOM     22  C   UNL     1      -1.258   9.928  19.543  0.00  0.00    +0.000 A 
ATOM     23  C   UNL     1      -0.239  10.354  20.410  0.00  0.00    +0.000 A 
BRANCH  17  25
ATOM     24  C   UNL     1       2.146  13.125  20.744  0.00  0.00    +0.000 C 
ATOM     25  O   UNL     1       1.405  11.949  21.065  0.00  0.00    +0.000 OA
ENDBRANCH  17  25
ENDBRANCH  14  23
ENDBRANCH  12  14
ENDBRANCH   1  12
BRANCH  11  26
ATOM     26  C   UNL     1       3.294   4.162  16.975  0.00  0.00    +0.000 C 
BRANCH  26  27
ATOM     27  C   UNL     1       4.793   3.881  17.176  0.00  0.00    +0.000 C 
BRANCH  27  28
ATOM     28  C   UNL     1       5.695   5.112  17.378  0.00  0.00    +0.000 C 
ATOM     29  C   UNL     1       7.174   4.740  17.463  0.00  0.00    +0.000 C 
ATOM     30  C   UNL     1       5.476   6.091  16.220  0.00  0.00    +0.000 C 
ENDBRANCH  27  28
ENDBRANCH  26  27
ENDBRANCH  11  26
TORSDOF 7
ENDMDL
MODEL 3
REMARK VINA RESULT:      -8.1      1.605      2.113
REMARK  Name = 
REMARK  10 active torsions:
REMARK  status: ('A' for Active; 'I' for Inactive)
REMARK    1  A    between atoms: C_1  and  O_2
REMARK    2  A    between atoms: O_2  and  C_3
REMARK    3  A    between atoms: C_9  and  S_10
REMARK    4  A    between atoms: S_10  and  N_13
REMARK    5  A    between atoms: N_13  and  C_14
REMARK    6  A    between atoms: N_24  and  C_25
REMARK    7  A    between atoms: C_25  and  C_26
REMARK    8  A    between atoms: C_26  and  C_27
REMARK    9  A    between atoms: C_27  and  C_28
REMARK   10  A    between atoms: C_27  and  C_29
REMARK                            x       y       z     vdW  Elec       q    Type
REMARK                         _______ _______ _______ _____ _____    ______ ____
ROOT
ATOM      1  C   UNL     1       2.188   7.642  19.898  0.00  0.00    +0.000 A 
ATOM      2  C   UNL     1       2.042   8.262  18.667  0.00  0.00    +0.000 A 
ATOM      3  C   UNL     1       1.125   9.312  18.522  0.00  0.00    +0.000 A 
ATOM      4  C   UNL     1       0.336   9.739  19.601  0.00  0.00    +0.000 A 
ATOM      5  C   UNL     1       0.514   9.113  20.846  0.00  0.00    +0.000 A 
ATOM      6  C   UNL     1       1.419   8.050  20.981  0.00  0.00    +0.000 A 
ATOM      7  C   UNL     1      -0.325   9.525  22.017  0.00  0.00    +0.000 C 
ATOM      8  C   UNL     1      -0.580  11.011  21.940  0.00  0.00    +0.000 C 
ATOM      9  C   UNL     1      -1.211  11.370  20.614  0.00  0.00    +0.000 C 
ATOM     10  O   UNL     1      -2.090  12.231  20.572  0.00  0.00    +0.000 OA
ATOM     11  N   UNL     1      -0.660  10.758  19.481  0.00  0.00    +0.000 N 
ENDROOT
BRANCH   1  12
ATOM     12  N   UNL     1       3.063   6.551  20.072  0.00  0.00    +0.000 N 
ATOM     13  H   UNL     1       3.797   6.569  20.775  0.00  0.00    +0.000 HD
BRANCH  12  14
ATOM     14  S   UNL     1       2.781   5.087  19.316  0.00  0.00    +0.000 S 
ATOM     15  O   UNL     1       1.543   5.215  18.572  0.00  0.00    +0.000 OA
ATOM     16  O   UNL     1       2.920   4.054  20.321  0.00  0.00    +0.000 OA
BRANCH  14  23
ATOM     17  C   UNL     1       4.158   3.823  17.248  0.00  0.00    +0.000 A 
ATOM     18  C   UNL     1       5.224   3.767  16.337  0.00  0.00    +0.000 A 
ATOM     19  C   UNL     1       6.224   4.747  16.338  0.00  0.00    +0.000 A 
ATOM     20  C   UNL     1       6.165   5.795  17.248  0.00  0.00    +0.000 A 
ATOM     21 CL   UNL     1       7.395   6.997  17.249  0.00  0.00    +0.000 Cl
ATOM     22  C   UNL     1       5.113   5.879  18.151  0.00  0.00    +0.000 A 
ATOM     23  C   UNL     1       4.106   4.900  18.149  0.00  0.00    +0.000 A 
BRANCH  17  25
ATOM     24  C   UNL     1       3.443   1.673  17.987  0.00  0.00    +0.000 C 
ATOM     25  O   UNL     1       3.162   2.887  17.293  0.00  0.00    +0.000 OA
ENDBRANCH  17  25
ENDBRANCH  14  23
ENDBRANCH  12  14
ENDBRANCH   1  12
BRANCH  11  26
ATOM     26  C   UNL     1      -1.113  11.220  18.165  0.00  0.00    +0.000 C 
BRANCH  26  27
ATOM     27  C   UNL     1      -2.243  10.397  17.523  0.00  0.00    +0.000 C 
BRANCH  27  28
ATOM     28  C   UNL     1      -2.928  11.024  16.297  0.00  0.00    +0.000 C 
ATOM     29  C   UNL     1      -2.861  10.119  15.067  0.00  0.00    +0.000 C 
ATOM     30  C   UNL     1      -4.393  11.321  16.637  0.00  0.00    +0.000 C 
ENDBRANCH  27  28
ENDBRANCH  26  27
ENDBRANCH  11  26
TORSDOF 7
ENDMDL
MODEL 4
REMARK VINA RESULT:      -8.0      4.147      8.991
REMARK  Name = 
REMARK  10 active torsions:
REMARK  status: ('A' for Active; 'I' for Inactive)
REMARK    1  A    between atoms: C_1  and  O_2
REMARK    2  A    between atoms: O_2  and  C_3
REMARK    3  A    between atoms: C_9  and  S_10
REMARK    4  A    between atoms: S_10  and  N_13
REMARK    5  A    between atoms: N_13  and  C_14
REMARK    6  A    between atoms: N_24  and  C_25
REMARK    7  A    between atoms: C_25  and  C_26
REMARK    8  A    between atoms: C_26  and  C_27
REMARK    9  A    between atoms: C_27  and  C_28
REMARK   10  A    between atoms: C_27  and  C_29
REMARK                            x       y       z     vdW  Elec       q    Type
REMARK                         _______ _______ _______ _____ _____    ______ ____
ROOT
ATOM      1  C   UNL     1       1.547   8.642  19.628  0.00  0.00    +0.000 A 
ATOM      2  C   UNL     1       2.104   8.787  18.366  0.00  0.00    +0.000 A 
ATOM      3  C   UNL     1       2.802   7.718  17.788  0.00  0.00    +0.000 A 
ATOM      4  C   UNL     1       2.965   6.505  18.473  0.00  0.00    +0.000 A 
ATOM      5  C   UNL     1       2.376   6.370  19.741  0.00  0.00    +0.000 A 
ATOM      6  C   UNL     1       1.694   7.449  20.322  0.00  0.00    +0.000 A 
ATOM      7  C   UNL     1       2.546   5.098  20.514  0.00  0.00    +0.000 C 
ATOM      8  C   UNL     1       2.556   3.936  19.551  0.00  0.00    +0.000 C 
ATOM      9  C   UNL     1       3.626   4.129  18.501  0.00  0.00    +0.000 C 
ATOM     10  O   UNL     1       4.279   3.160  18.112  0.00  0.00    +0.000 OA
ATOM     11  N   UNL     1       3.729   5.413  17.952  0.00  0.00    +0.000 N 
ENDROOT
BRANCH   1  12
ATOM     12  N   UNL     1       0.880   9.710  20.263  0.00  0.00    +0.000 N 
ATOM     13  H   UNL     1       0.526  10.502  19.732  0.00  0.00    +0.000 HD
BRANCH  12  14
ATOM     14  S   UNL     1       0.415   9.608  21.864  0.00  0.00    +0.000 S 
ATOM     15  O   UNL     1       1.622   9.513  22.662  0.00  0.00    +0.000 OA
ATOM     16  O   UNL     1      -0.595   8.575  21.951  0.00  0.00    +0.000 OA
BRANCH  14  23
ATOM     17  C   UNL     1       0.191  12.387  21.801  0.00  0.00    +0.000 A 
ATOM     18  C   UNL     1      -0.503  13.570  22.101  0.00  0.00    +0.000 A 
ATOM     19  C   UNL     1      -1.702  13.538  22.823  0.00  0.00    +0.000 A 
ATOM     20  C   UNL     1      -2.222  12.322  23.249  0.00  0.00    +0.000 A 
ATOM     21 CL   UNL     1      -3.694  12.286  24.138  0.00  0.00    +0.000 Cl
ATOM     22  C   UNL     1      -1.561  11.137  22.953  0.00  0.00    +0.000 A 
ATOM     23  C   UNL     1      -0.360  11.165  22.225  0.00  0.00    +0.000 A 
BRANCH  17  25
ATOM     24  C   UNL     1       1.483  13.252  19.996  0.00  0.00    +0.000 C 
ATOM     25  O   UNL     1       1.368  12.365  21.107  0.00  0.00    +0.000 OA
ENDBRANCH  17  25
ENDBRANCH  14  23
ENDBRANCH  12  14
ENDBRANCH   1  12
BRANCH  11  26
ATOM     26  C   UNL     1       4.619   5.597  16.802  0.00  0.00    +0.000 C 
BRANCH  26  27
ATOM     27  C   UNL     1       5.847   6.490  17.047  0.00  0.00    +0.000 C 
BRANCH  27  28
ATOM     28  C   UNL     1       6.857   5.987  18.094  0.00  0.00    +0.000 C 
ATOM     29  C   UNL     1       7.507   4.666  17.687  0.00  0.00    +0.000 C 
ATOM     30  C   UNL     1       7.940   7.051  18.299  0.00  0.00    +0.000 C 
ENDBRANCH  27  28
ENDBRANCH  26  27
ENDBRANCH  11  26
TORSDOF 7
ENDMDL
MODEL 5
REMARK VINA RESULT:      -7.9      3.745      8.799
REMARK  Name = 
REMARK  10 active torsions:
REMARK  status: ('A' for Active; 'I' for Inactive)
REMARK    1  A    between atoms: C_1  and  O_2
REMARK    2  A    between atoms: O_2  and  C_3
REMARK    3  A    between atoms: C_9  and  S_10
REMARK    4  A    between atoms: S_10  and  N_13
REMARK    5  A    between atoms: N_13  and  C_14
REMARK    6  A    between atoms: N_24  and  C_25
REMARK    7  A    between atoms: C_25  and  C_26
REMARK    8  A    between atoms: C_26  and  C_27
REMARK    9  A    between atoms: C_27  and  C_28
REMARK   10  A    between atoms: C_27  and  C_29
REMARK                            x       y       z     vdW  Elec       q    Type
REMARK                         _______ _______ _______ _____ _____    ______ ____
ROOT
ATOM      1  C   UNL     1       1.819   7.968  19.693  0.00  0.00    +0.000 A 
ATOM      2  C   UNL     1       2.384   7.822  18.435  0.00  0.00    +0.000 A 
ATOM      3  C   UNL     1       2.893   6.576  18.043  0.00  0.00    +0.000 A 
ATOM      4  C   UNL     1       2.856   5.473  18.911  0.00  0.00    +0.000 A 
ATOM      5  C   UNL     1       2.261   5.636  20.172  0.00  0.00    +0.000 A 
ATOM      6  C   UNL     1       1.770   6.889  20.566  0.00  0.00    +0.000 A 
ATOM      7  C   UNL     1       2.222   4.489  21.135  0.00  0.00    +0.000 C 
ATOM      8  C   UNL     1       2.034   3.206  20.363  0.00  0.00    +0.000 C 
ATOM      9  C   UNL     1       3.115   3.055  19.318  0.00  0.00    +0.000 C 
ATOM     10  O   UNL     1       3.596   1.943  19.096  0.00  0.00    +0.000 OA
ATOM     11  N   UNL     1       3.426   4.204  18.580  0.00  0.00    +0.000 N 
ENDROOT
BRANCH   1  12
ATOM     12  N   UNL     1       1.341   9.216  20.142  0.00  0.00    +0.000 N 
ATOM     13  H   UNL     1       1.424  10.051  19.568  0.00  0.00    +0.000 HD
BRANCH  12  14
ATOM     14  S   UNL     1       0.395   9.337  21.514  0.00  0.00    +0.000 S 
ATOM     15  O   UNL     1       1.289   9.497  22.644  0.00  0.00    +0.000 OA
ATOM     16  O   UNL     1      -0.545   8.238  21.483  0.00  0.00    +0.000 OA
BRANCH  14  23
ATOM     17  C   UNL     1      -1.110  11.208  20.097  0.00  0.00    +0.000 A 
ATOM     18  C   UNL     1      -1.842  12.404  20.037  0.00  0.00    +0.000 A 
ATOM     19  C   UNL     1      -1.964  13.230  21.161  0.00  0.00    +0.000 A 
ATOM     20  C   UNL     1      -1.358  12.866  22.357  0.00  0.00    +0.000 A 
ATOM     21 CL   UNL     1      -1.508  13.883  23.736  0.00  0.00    +0.000 Cl
ATOM     22  C   UNL     1      -0.639  11.681  22.444  0.00  0.00    +0.000 A 
ATOM     23  C   UNL     1      -0.519  10.848  21.320  0.00  0.00    +0.000 A 
BRANCH  17  25
ATOM     24  C   UNL     1      -2.050  10.269  18.118  0.00  0.00    +0.000 C 
ATOM     25  O   UNL     1      -0.955  10.372  19.026  0.00  0.00    +0.000 OA
ENDBRANCH  17  25
ENDBRANCH  14  23
ENDBRANCH  12  14
ENDBRANCH   1  12
BRANCH  11  26
ATOM     26  C   UNL     1       4.328   4.058  17.433  0.00  0.00    +0.000 C 
BRANCH  26  27
ATOM     27  C   UNL     1       5.789   4.467  17.679  0.00  0.00    +0.000 C 
BRANCH  27  28
ATOM     28  C   UNL     1       6.423   5.395  16.627  0.00  0.00    +0.000 C 
ATOM     29  C   UNL     1       5.454   5.739  15.497  0.00  0.00    +0.000 C 
ATOM     30  C   UNL     1       6.892   6.684  17.311  0.00  0.00    +0.000 C 
ENDBRANCH  27  28
ENDBRANCH  26  27
ENDBRANCH  11  26
TORSDOF 7
ENDMDL
MODEL 6
REMARK VINA RESULT:      -7.9      4.201      8.910
REMARK  Name = 
REMARK  10 active torsions:
REMARK  status: ('A' for Active; 'I' for Inactive)
REMARK    1  A    between atoms: C_1  and  O_2
REMARK    2  A    between atoms: O_2  and  C_3
REMARK    3  A    between atoms: C_9  and  S_10
REMARK    4  A    between atoms: S_10  and  N_13
REMARK    5  A    between atoms: N_13  and  C_14
REMARK    6  A    between atoms: N_24  and  C_25
REMARK    7  A    between atoms: C_25  and  C_26
REMARK    8  A    between atoms: C_26  and  C_27
REMARK    9  A    between atoms: C_27  and  C_28
REMARK   10  A    between atoms: C_27  and  C_29
REMARK                            x       y       z     vdW  Elec       q    Type
REMARK                         _______ _______ _______ _____ _____    ______ ____
ROOT
ATOM      1  C   UNL     1       1.539   7.944  19.969  0.00  0.00    +0.000 A 
ATOM      2  C   UNL     1       2.353   7.981  18.847  0.00  0.00    +0.000 A 
ATOM      3  C   UNL     1       3.094   6.847  18.488  0.00  0.00    +0.000 A 
ATOM      4  C   UNL     1       3.041   5.674  19.257  0.00  0.00    +0.000 A 
ATOM      5  C   UNL     1       2.195   5.649  20.378  0.00  0.00    +0.000 A 
ATOM      6  C   UNL     1       1.470   6.793  20.743  0.00  0.00    +0.000 A 
ATOM      7  C   UNL     1       2.127   4.424  21.237  0.00  0.00    +0.000 C 
ATOM      8  C   UNL     1       2.271   3.202  20.362  0.00  0.00    +0.000 C 
ATOM      9  C   UNL     1       3.544   3.278  19.553  0.00  0.00    +0.000 C 
ATOM     10  O   UNL     1       4.208   2.258  19.364  0.00  0.00    +0.000 OA
ATOM     11  N   UNL     1       3.833   4.518  18.969  0.00  0.00    +0.000 N 
ENDROOT
BRANCH   1  12
ATOM     12  N   UNL     1       0.817   9.079  20.390  0.00  0.00    +0.000 N 
ATOM     13  H   UNL     1       0.382   9.707  19.719  0.00  0.00    +0.000 HD
BRANCH  12  14
ATOM     14  S   UNL     1       0.425   9.307  21.998  0.00  0.00    +0.000 S 
ATOM     15  O   UNL     1       1.666   9.343  22.746  0.00  0.00    +0.000 OA
ATOM     16  O   UNL     1      -0.595   8.335  22.331  0.00  0.00    +0.000 OA
BRANCH  14  23
ATOM     17  C   UNL     1       0.204  12.009  21.346  0.00  0.00    +0.000 A 
ATOM     18  C   UNL     1      -0.456  13.245  21.439  0.00  0.00    +0.000 A 
ATOM     19  C   UNL     1      -1.584  13.399  22.254  0.00  0.00    +0.000 A 
ATOM     20  C   UNL     1      -2.066  12.317  22.981  0.00  0.00    +0.000 A 
ATOM     21 CL   UNL     1      -3.451  12.510  23.983  0.00  0.00    +0.000 Cl
ATOM     22  C   UNL     1      -1.438  11.081  22.896  0.00  0.00    +0.000 A 
ATOM     23  C   UNL     1      -0.310  10.923  22.075  0.00  0.00    +0.000 A 
BRANCH  17  25
ATOM     24  C   UNL     1       1.994  12.971  20.103  0.00  0.00    +0.000 C 
ATOM     25  O   UNL     1       1.312  11.809  20.572  0.00  0.00    +0.000 OA
ENDBRANCH  17  25
ENDBRANCH  14  23
ENDBRANCH  12  14
ENDBRANCH   1  12
BRANCH  11  26
ATOM     26  C   UNL     1       4.952   4.587  18.024  0.00  0.00    +0.000 C 
BRANCH  26  27
ATOM     27  C   UNL     1       4.641   4.127  16.590  0.00  0.00    +0.000 C 
BRANCH  27  28
ATOM     28  C   UNL     1       5.855   3.833  15.691  0.00  0.00    +0.000 C 
ATOM     29  C   UNL     1       5.633   4.283  14.249  0.00  0.00    +0.000 C 
ATOM     30  C   UNL     1       7.088   4.537  16.266  0.00  0.00    +0.000 C 
ENDBRANCH  27  28
ENDBRANCH  26  27
ENDBRANCH  11  26
TORSDOF 7
ENDMDL
MODEL 7
REMARK VINA RESULT:      -7.7      4.262      9.629
REMARK  Name = 
REMARK  10 active torsions:
REMARK  status: ('A' for Active; 'I' for Inactive)
REMARK    1  A    between atoms: C_1  and  O_2
REMARK    2  A    between atoms: O_2  and  C_3
REMARK    3  A    between atoms: C_9  and  S_10
REMARK    4  A    between atoms: S_10  and  N_13
REMARK    5  A    between atoms: N_13  and  C_14
REMARK    6  A    between atoms: N_24  and  C_25
REMARK    7  A    between atoms: C_25  and  C_26
REMARK    8  A    between atoms: C_26  and  C_27
REMARK    9  A    between atoms: C_27  and  C_28
REMARK   10  A    between atoms: C_27  and  C_29
REMARK                            x       y       z     vdW  Elec       q    Type
REMARK                         _______ _______ _______ _____ _____    ______ ____
ROOT
ATOM      1  C   UNL     1       0.607  10.110  19.856  0.00  0.00    +0.000 A 
ATOM      2  C   UNL     1       0.562   9.305  20.984  0.00  0.00    +0.000 A 
ATOM      3  C   UNL     1       1.212   8.064  20.979  0.00  0.00    +0.000 A 
ATOM      4  C   UNL     1       1.896   7.609  19.841  0.00  0.00    +0.000 A 
ATOM      5  C   UNL     1       1.948   8.447  18.715  0.00  0.00    +0.000 A 
ATOM      6  C   UNL     1       1.281   9.680  18.719  0.00  0.00    +0.000 A 
ATOM      7  C   UNL     1       2.650   7.989  17.473  0.00  0.00    +0.000 C 
ATOM      8  C   UNL     1       3.850   7.161  17.864  0.00  0.00    +0.000 C 
ATOM      9  C   UNL     1       3.433   6.015  18.756  0.00  0.00    +0.000 C 
ATOM     10  O   UNL     1       3.973   4.915  18.627  0.00  0.00    +0.000 OA
ATOM     11  N   UNL     1       2.513   6.321  19.767  0.00  0.00    +0.000 N 
ENDROOT
BRANCH   1  12
ATOM     12  N   UNL     1      -0.074  11.342  19.805  0.00  0.00    +0.000 N 
ATOM     13  H   UNL     1       0.310  12.177  20.241  0.00  0.00    +0.000 HD
BRANCH  12  14
ATOM     14  S   UNL     1      -1.406  11.554  18.818  0.00  0.00    +0.000 S 
ATOM     15  O   UNL     1      -1.786  10.249  18.315  0.00  0.00    +0.000 OA
ATOM     16  O   UNL     1      -1.088  12.623  17.895  0.00  0.00    +0.000 OA
BRANCH  14  23
ATOM     17  C   UNL     1      -4.032  12.235  19.462  0.00  0.00    +0.000 A 
ATOM     18  C   UNL     1      -4.999  12.665  20.386  0.00  0.00    +0.000 A 
ATOM     19  C   UNL     1      -4.642  12.995  21.699  0.00  0.00    +0.000 A 
ATOM     20  C   UNL     1      -3.316  12.896  22.102  0.00  0.00    +0.000 A 
ATOM     21 CL   UNL     1      -2.881  13.305  23.715  0.00  0.00    +0.000 Cl
ATOM     22  C   UNL     1      -2.344  12.462  21.210  0.00  0.00    +0.000 A 
ATOM     23  C   UNL     1      -2.700  12.125  19.894  0.00  0.00    +0.000 A 
BRANCH  17  25
ATOM     24  C   UNL     1      -5.617  12.278  17.683  0.00  0.00    +0.000 C 
ATOM     25  O   UNL     1      -4.328  11.909  18.168  0.00  0.00    +0.000 OA
ENDBRANCH  17  25
ENDBRANCH  14  23
ENDBRANCH  12  14
ENDBRANCH   1  12
BRANCH  11  26
ATOM     26  C   UNL     1       2.227   5.289  20.769  0.00  0.00    +0.000 C 
BRANCH  26  27
ATOM     27  C   UNL     1       1.031   4.373  20.459  0.00  0.00    +0.000 C 
BRANCH  27  28
ATOM     28  C   UNL     1       1.273   2.861  20.614  0.00  0.00    +0.000 C 
ATOM     29  C   UNL     1       1.571   2.181  19.279  0.00  0.00    +0.000 C 
ATOM     30  C   UNL     1       2.443   2.636  21.578  0.00  0.00    +0.000 C 
ENDBRANCH  27  28
ENDBRANCH  26  27
ENDBRANCH  11  26
TORSDOF 7
ENDMDL
MODEL 8
REMARK VINA RESULT:      -7.7      3.100      8.574
REMARK  Name = 
REMARK  10 active torsions:
REMARK  status: ('A' for Active; 'I' for Inactive)
REMARK    1  A    between atoms: C_1  and  O_2
REMARK    2  A    between atoms: O_2  and  C_3
REMARK    3  A    between atoms: C_9  and  S_10
REMARK    4  A    between atoms: S_10  and  N_13
REMARK    5  A    between atoms: N_13  and  C_14
REMARK    6  A    between atoms: N_24  and  C_25
REMARK    7  A    between atoms: C_25  and  C_26
REMARK    8  A    between atoms: C_26  and  C_27
REMARK    9  A    between atoms: C_27  and  C_28
REMARK   10  A    between atoms: C_27  and  C_29
REMARK                            x       y       z     vdW  Elec       q    Type
REMARK                         _______ _______ _______ _____ _____    ______ ____
ROOT
ATOM      1  C   UNL     1       2.186   8.099  18.149  0.00  0.00    +0.000 A 
ATOM      2  C   UNL     1       1.951   7.162  19.143  0.00  0.00    +0.000 A 
ATOM      3  C   UNL     1       2.887   6.145  19.374  0.00  0.00    +0.000 A 
ATOM      4  C   UNL     1       4.055   6.046  18.603  0.00  0.00    +0.000 A 
ATOM      5  C   UNL     1       4.285   7.017  17.614  0.00  0.00    +0.000 A 
ATOM      6  C   UNL     1       3.337   8.022  17.375  0.00  0.00    +0.000 A 
ATOM      7  C   UNL     1       5.509   6.934  16.755  0.00  0.00    +0.000 C 
ATOM      8  C   UNL     1       6.654   6.399  17.581  0.00  0.00    +0.000 C 
ATOM      9  C   UNL     1       6.284   5.072  18.201  0.00  0.00    +0.000 C 
ATOM     10  O   UNL     1       7.129   4.179  18.277  0.00  0.00    +0.000 OA
ATOM     11  N   UNL     1       5.001   4.985  18.756  0.00  0.00    +0.000 N 
ENDROOT
BRANCH   1  12
ATOM     12  N   UNL     1       1.246   9.108  17.854  0.00  0.00    +0.000 N 
ATOM     13  H   UNL     1       0.755   9.127  16.964  0.00  0.00    +0.000 HD
BRANCH  12  14
ATOM     14  S   UNL     1       0.708  10.161  19.034  0.00  0.00    +0.000 S 
ATOM     15  O   UNL     1       1.542  11.345  18.971  0.00  0.00    +0.000 OA
ATOM     16  O   UNL     1       0.609   9.408  20.266  0.00  0.00    +0.000 OA
BRANCH  14  23
ATOM     17  C   UNL     1      -1.727  11.493  19.302  0.00  0.00    +0.000 A 
ATOM     18  C   UNL     1      -3.002  11.830  18.821  0.00  0.00    +0.000 A 
ATOM     19  C   UNL     1      -3.483  11.294  17.620  0.00  0.00    +0.000 A 
ATOM     20  C   UNL     1      -2.691  10.419  16.886  0.00  0.00    +0.000 A 
ATOM     21 CL   UNL     1      -3.285   9.761  15.413  0.00  0.00    +0.000 Cl
ATOM     22  C   UNL     1      -1.421  10.081  17.335  0.00  0.00    +0.000 A 
ATOM     23  C   UNL     1      -0.934  10.621  18.537  0.00  0.00    +0.000 A 
BRANCH  17  25
ATOM     24  C   UNL     1      -1.045  13.396  20.565  0.00  0.00    +0.000 C 
ATOM     25  O   UNL     1      -1.215  11.983  20.472  0.00  0.00    +0.000 OA
ENDBRANCH  17  25
ENDBRANCH  14  23
ENDBRANCH  12  14
ENDBRANCH   1  12
BRANCH  11  26
ATOM     26  C   UNL     1       4.671   3.785  19.532  0.00  0.00    +0.000 C 
BRANCH  26  27
ATOM     27  C   UNL     1       3.751   2.772  18.831  0.00  0.00    +0.000 C 
BRANCH  27  28
ATOM     28  C   UNL     1       2.524   2.300  19.631  0.00  0.00    +0.000 C 
ATOM     29  C   UNL     1       2.457   2.932  21.019  0.00  0.00    +0.000 C 
ATOM     30  C   UNL     1       1.252   2.642  18.848  0.00  0.00    +0.000 C 
ENDBRANCH  27  28
ENDBRANCH  26  27
ENDBRANCH  11  26
TORSDOF 7
ENDMDL
MODEL 9
REMARK VINA RESULT:      -7.6      3.112      8.649
REMARK  Name = 
REMARK  10 active torsions:
REMARK  status: ('A' for Active; 'I' for Inactive)
REMARK    1  A    between atoms: C_1  and  O_2
REMARK    2  A    between atoms: O_2  and  C_3
REMARK    3  A    between atoms: C_9  and  S_10
REMARK    4  A    between atoms: S_10  and  N_13
REMARK    5  A    between atoms: N_13  and  C_14
REMARK    6  A    between atoms: N_24  and  C_25
REMARK    7  A    between atoms: C_25  and  C_26
REMARK    8  A    between atoms: C_26  and  C_27
REMARK    9  A    between atoms: C_27  and  C_28
REMARK   10  A    between atoms: C_27  and  C_29
REMARK                            x       y       z     vdW  Elec       q    Type
REMARK                         _______ _______ _______ _____ _____    ______ ____
ROOT
ATOM      1  C   UNL     1       1.265   9.539  18.691  0.00  0.00    +0.000 A 
ATOM      2  C   UNL     1       0.996   8.949  19.917  0.00  0.00    +0.000 A 
ATOM      3  C   UNL     1       1.613   7.737  20.254  0.00  0.00    +0.000 A 
ATOM      4  C   UNL     1       2.489   7.098  19.364  0.00  0.00    +0.000 A 
ATOM      5  C   UNL     1       2.765   7.721  18.137  0.00  0.00    +0.000 A 
ATOM      6  C   UNL     1       2.131   8.925  17.796  0.00  0.00    +0.000 A 
ATOM      7  C   UNL     1       3.678   7.060  17.150  0.00  0.00    +0.000 C 
ATOM      8  C   UNL     1       4.769   6.334  17.900  0.00  0.00    +0.000 C 
ATOM      9  C   UNL     1       4.173   5.360  18.889  0.00  0.00    +0.000 C 
ATOM     10  O   UNL     1       4.707   4.264  19.061  0.00  0.00    +0.000 OA
ATOM     11  N   UNL     1       3.085   5.827  19.638  0.00  0.00    +0.000 N 
ENDROOT
BRANCH   1  12
ATOM     12  N   UNL     1       0.627  10.732  18.295  0.00  0.00    +0.000 N 
ATOM     13  H   UNL     1       0.774  11.128  17.369  0.00  0.00    +0.000 HD
BRANCH  12  14
ATOM     14  S   UNL     1      -0.589  11.411  19.218  0.00  0.00    +0.000 S 
ATOM     15  O   UNL     1      -0.263  12.812  19.402  0.00  0.00    +0.000 OA
ATOM     16  O   UNL     1      -0.780  10.554  20.369  0.00  0.00    +0.000 OA
BRANCH  14  23
ATOM     17  C   UNL     1      -3.296  11.785  18.662  0.00  0.00    +0.000 A 
ATOM     18  C   UNL     1      -4.394  11.699  17.791  0.00  0.00    +0.000 A 
ATOM     19  C   UNL     1      -4.258  11.142  16.514  0.00  0.00    +0.000 A 
ATOM     20  C   UNL     1      -3.022  10.667  16.094  0.00  0.00    +0.000 A 
ATOM     21 CL   UNL     1      -2.858   9.980  14.526  0.00  0.00    +0.000 Cl
ATOM     22  C   UNL     1      -1.918  10.751  16.933  0.00  0.00    +0.000 A 
ATOM     23  C   UNL     1      -2.050  11.315  18.212  0.00  0.00    +0.000 A 
BRANCH  17  25
ATOM     24  C   UNL     1      -4.676  12.673  20.389  0.00  0.00    +0.000 C 
ATOM     25  O   UNL     1      -3.378  12.312  19.920  0.00  0.00    +0.000 OA
ENDBRANCH  17  25
ENDBRANCH  14  23
ENDBRANCH  12  14
ENDBRANCH   1  12
BRANCH  11  26
ATOM     26  C   UNL     1       2.600   4.986  20.737  0.00  0.00    +0.000 C 
BRANCH  26  27
ATOM     27  C   UNL     1       1.180   4.422  20.565  0.00  0.00    +0.000 C 
BRANCH  27  28
ATOM     28  C   UNL     1       1.030   3.241  19.590  0.00  0.00    +0.000 C 
ATOM     29  C   UNL     1       1.186   3.668  18.131  0.00  0.00    +0.000 C 
ATOM     30  C   UNL     1       2.077   2.174  19.928  0.00  0.00    +0.000 C 
ENDBRANCH  27  28
ENDBRANCH  26  27
ENDBRANCH  11  26
TORSDOF 7
ENDMDL
