MODEL 1
REMARK VINA RESULT:      -8.5      0.000      0.000
REMARK  Name = 
REMARK  5 active torsions:
REMARK  status: ('A' for Active; 'I' for Inactive)
REMARK    1  A    between atoms: C_1  and  C_2
REMARK    2  A    between atoms: C_5  and  C_6
REMARK    3  A    between atoms: N_8  and  N_9
REMARK    4  A    between atoms: C_10  and  C_12
REMARK    5  A    between atoms: C_12  and  C_13
REMARK                            x       y       z     vdW  Elec       q    Type
REMARK                         _______ _______ _______ _____ _____    ______ ____
ROOT
ATOM      1  N   UNL     1       1.941   7.828  20.465  0.00  0.00    +0.000 N 
ATOM      2  C   UNL     1       2.279   7.521  19.159  0.00  0.00    +0.000 C 
ATOM      3  O   UNL     1       1.764   8.136  18.225  0.00  0.00    +0.000 OA
ATOM      4  H   UNL     1       2.318   7.377  21.295  0.00  0.00    +0.000 HD
ENDROOT
BRANCH   1   7
ATOM      5  C   UNL     1       0.939   9.589  21.807  0.00  0.00    +0.000 C 
ATOM      6  O   UNL     1       1.715   9.417  22.744  0.00  0.00    +0.000 OA
ATOM      7  N   UNL     1       0.979   8.842  20.647  0.00  0.00    +0.000 N 
ATOM      8  H   UNL     1       0.325   9.009  19.879  0.00  0.00    +0.000 HD
BRANCH   5  13
ATOM      9  C   UNL     1      -3.134  13.573  21.816  0.00  0.00    +0.000 C 
ATOM     10  C   UNL     1      -2.061  12.530  21.832  0.00  0.00    +0.000 A 
ATOM     11  C   UNL     1      -1.514  12.047  23.021  0.00  0.00    +0.000 A 
ATOM     12  N   UNL     1      -0.542  11.095  23.064  0.00  0.00    +0.000 NA
ATOM     13  C   UNL     1      -0.127  10.637  21.852  0.00  0.00    +0.000 A 
ATOM     14  C   UNL     1      -0.664  11.114  20.667  0.00  0.00    +0.000 A 
ATOM     15  N   UNL     1      -1.637  12.063  20.633  0.00  0.00    +0.000 NA
ENDBRANCH   5  13
ENDBRANCH   1   7
BRANCH   2  16
ATOM     16  C   UNL     1       3.318   6.411  18.989  0.00  0.00    +0.000 C 
BRANCH  16  17
ATOM     17  C   UNL     1       2.819   4.956  19.249  0.00  0.00    +0.000 C 
ATOM     18  C   UNL     1       2.017   4.395  18.043  0.00  0.00    +0.000 C 
ATOM     19  C   UNL     1       1.569   2.944  18.300  0.00  0.00    +0.000 C 
ATOM     20  C   UNL     1       2.805   2.059  18.519  0.00  0.00    +0.000 C 
ATOM     21  C   UNL     1       3.598   2.564  19.735  0.00  0.00    +0.000 C 
ATOM     22  C   UNL     1       2.710   2.531  20.989  0.00  0.00    +0.000 C 
ATOM     23  C   UNL     1       1.475   3.414  20.775  0.00  0.00    +0.000 C 
ATOM     24  C   UNL     1       0.690   2.890  19.561  0.00  0.00    +0.000 C 
ATOM     25  C   UNL     1       1.922   4.866  20.513  0.00  0.00    +0.000 C 
ATOM     26  C   UNL     1       4.045   4.017  19.474  0.00  0.00    +0.000 C 
ENDBRANCH  16  17
ENDBRANCH   2  16
TORSDOF 4
ENDMDL
MODEL 2
REMARK VINA RESULT:      -8.4      0.073      1.530
REMARK  Name = 
REMARK  5 active torsions:
REMARK  status: ('A' for Active; 'I' for Inactive)
REMARK    1  A    between atoms: C_1  and  C_2
REMARK    2  A    between atoms: C_5  and  C_6
REMARK    3  A    between atoms: N_8  and  N_9
REMARK    4  A    between atoms: C_10  and  C_12
REMARK    5  A    between atoms: C_12  and  C_13
REMARK                            x       y       z     vdW  Elec       q    Type
REMARK                         _______ _______ _______ _____ _____    ______ ____
ROOT
ATOM      1  N   UNL     1       2.012   7.882  20.409  0.00  0.00    +0.000 N 
ATOM      2  C   UNL     1       2.292   7.523  19.103  0.00  0.00    +0.000 C 
ATOM      3  O   UNL     1       1.716   8.082  18.169  0.00  0.00    +0.000 OA
ATOM      4  H   UNL     1       2.442   7.478  21.238  0.00  0.00    +0.000 HD
ENDROOT
BRANCH   1   7
ATOM      5  C   UNL     1       0.948   9.582  21.780  0.00  0.00    +0.000 C 
ATOM      6  O   UNL     1       1.690   9.380  22.738  0.00  0.00    +0.000 OA
ATOM      7  N   UNL     1       1.037   8.882  20.595  0.00  0.00    +0.000 N 
ATOM      8  H   UNL     1       0.410   9.074  19.810  0.00  0.00    +0.000 HD
BRANCH   5  13
ATOM      9  C   UNL     1      -3.164  13.527  21.793  0.00  0.00    +0.000 C 
ATOM     10  C   UNL     1      -2.080  12.494  21.808  0.00  0.00    +0.000 A 
ATOM     11  C   UNL     1      -1.502  12.042  22.995  0.00  0.00    +0.000 A 
ATOM     12  N   UNL     1      -0.520  11.101  23.037  0.00  0.00    +0.000 NA
ATOM     13  C   UNL     1      -0.127  10.621  21.826  0.00  0.00    +0.000 A 
ATOM     14  C   UNL     1      -0.694  11.067  20.643  0.00  0.00    +0.000 A 
ATOM     15  N   UNL     1      -1.678  12.006  20.610  0.00  0.00    +0.000 NA
ENDBRANCH   5  13
ENDBRANCH   1   7
BRANCH   2  16
ATOM     16  C   UNL     1       3.348   6.429  18.930  0.00  0.00    +0.000 C 
BRANCH  16  17
ATOM     17  C   UNL     1       2.876   4.967  19.207  0.00  0.00    +0.000 C 
ATOM     18  C   UNL     1       4.074   4.006  19.435  0.00  0.00    +0.000 C 
ATOM     19  C   UNL     1       3.588   2.578  19.750  0.00  0.00    +0.000 C 
ATOM     20  C   UNL     1       2.729   2.600  21.023  0.00  0.00    +0.000 C 
ATOM     21  C   UNL     1       1.509   3.511  20.812  0.00  0.00    +0.000 C 
ATOM     22  C   UNL     1       0.670   2.999  19.631  0.00  0.00    +0.000 C 
ATOM     23  C   UNL     1       1.525   2.977  18.357  0.00  0.00    +0.000 C 
ATOM     24  C   UNL     1       2.734   2.054  18.582  0.00  0.00    +0.000 C 
ATOM     25  C   UNL     1       2.015   4.404  18.044  0.00  0.00    +0.000 C 
ATOM     26  C   UNL     1       1.999   4.939  20.498  0.00  0.00    +0.000 C 
ENDBRANCH  16  17
ENDBRANCH   2  16
TORSDOF 4
ENDMDL
MODEL 3
REMARK VINA RESULT:      -8.4      0.171      1.467
REMARK  Name = 
REMARK  5 active torsions:
REMARK  status: ('A' for Active; 'I' for Inactive)
REMARK    1  A    between atoms: C_1  and  C_2
REMARK    2  A    between atoms: C_5  and  C_6
REMARK    3  A    between atoms: N_8  and  N_9
REMARK    4  A    between atoms: C_10  and  C_12
REMARK    5  A    between atoms: C_12  and  C_13
REMARK                            x       y       z     vdW  Elec       q    Type
REMARK                         _______ _______ _______ _____ _____    ______ ____
ROOT
ATOM      1  N   UNL     1       1.901   7.771  20.513  0.00  0.00    +0.000 N 
ATOM      2  C   UNL     1       2.243   7.487  19.204  0.00  0.00    +0.000 C 
ATOM      3  O   UNL     1       1.730   8.116  18.278  0.00  0.00    +0.000 OA
ATOM      4  H   UNL     1       2.277   7.307  21.336  0.00  0.00    +0.000 HD
ENDROOT
BRANCH   1   7
ATOM      5  C   UNL     1       0.951   9.571  21.841  0.00  0.00    +0.000 C 
ATOM      6  O   UNL     1       1.779   9.444  22.740  0.00  0.00    +0.000 OA
ATOM      7  N   UNL     1       0.938   8.781  20.710  0.00  0.00    +0.000 N 
ATOM      8  H   UNL     1       0.241   8.911  19.973  0.00  0.00    +0.000 HD
BRANCH   5  13
ATOM      9  C   UNL     1      -3.156  13.520  21.922  0.00  0.00    +0.000 C 
ATOM     10  C   UNL     1      -2.074  12.485  21.919  0.00  0.00    +0.000 A 
ATOM     11  C   UNL     1      -1.552  11.955  23.100  0.00  0.00    +0.000 A 
ATOM     12  N   UNL     1      -0.574  11.009  23.125  0.00  0.00    +0.000 NA
ATOM     13  C   UNL     1      -0.125  10.608  21.905  0.00  0.00    +0.000 A 
ATOM     14  C   UNL     1      -0.637  11.132  20.728  0.00  0.00    +0.000 A 
ATOM     15  N   UNL     1      -1.617  12.075  20.711  0.00  0.00    +0.000 NA
ENDBRANCH   5  13
ENDBRANCH   1   7
BRANCH   2  16
ATOM     16  C   UNL     1       3.285   6.381  19.018  0.00  0.00    +0.000 C 
BRANCH  16  17
ATOM     17  C   UNL     1       2.793   4.923  19.274  0.00  0.00    +0.000 C 
ATOM     18  C   UNL     1       1.694   4.867  20.370  0.00  0.00    +0.000 C 
ATOM     19  C   UNL     1       1.190   3.426  20.578  0.00  0.00    +0.000 C 
ATOM     20  C   UNL     1       0.597   2.897  19.264  0.00  0.00    +0.000 C 
ATOM     21  C   UNL     1       1.676   2.899  18.169  0.00  0.00    +0.000 C 
ATOM     22  C   UNL     1       2.857   2.014  18.596  0.00  0.00    +0.000 C 
ATOM     23  C   UNL     1       3.453   2.541  19.908  0.00  0.00    +0.000 C 
ATOM     24  C   UNL     1       2.364   2.523  20.993  0.00  0.00    +0.000 C 
ATOM     25  C   UNL     1       3.953   3.984  19.701  0.00  0.00    +0.000 C 
ATOM     26  C   UNL     1       2.177   4.342  17.962  0.00  0.00    +0.000 C 
ENDBRANCH  16  17
ENDBRANCH   2  16
TORSDOF 4
ENDMDL
MODEL 4
REMARK VINA RESULT:      -8.3      2.398      4.022
REMARK  Name = 
REMARK  5 active torsions:
REMARK  status: ('A' for Active; 'I' for Inactive)
REMARK    1  A    between atoms: C_1  and  C_2
REMARK    2  A    between atoms: C_5  and  C_6
REMARK    3  A    between atoms: N_8  and  N_9
REMARK    4  A    between atoms: C_10  and  C_12
REMARK    5  A    between atoms: C_12  and  C_13
REMARK                            x       y       z     vdW  Elec       q    Type
REMARK                         _______ _______ _______ _____ _____    ______ ____
ROOT
ATOM      1  N   UNL     1       3.108   6.104  20.062  0.00  0.00    +0.000 N 
ATOM      2  C   UNL     1       2.492   5.003  19.494  0.00  0.00    +0.000 C 
ATOM      3  O   UNL     1       1.266   4.891  19.532  0.00  0.00    +0.000 OA
ATOM      4  H   UNL     1       4.110   6.279  20.074  0.00  0.00    +0.000 HD
ENDROOT
BRANCH   1   7
ATOM      5  C   UNL     1       1.825   8.166  20.015  0.00  0.00    +0.000 C 
ATOM      6  O   UNL     1       2.135   8.419  18.853  0.00  0.00    +0.000 OA
ATOM      7  N   UNL     1       2.268   7.046  20.688  0.00  0.00    +0.000 N 
ATOM      8  H   UNL     1       1.990   6.856  21.653  0.00  0.00    +0.000 HD
BRANCH   5  13
ATOM      9  C   UNL     1      -1.508  11.559  23.152  0.00  0.00    +0.000 C 
ATOM     10  C   UNL     1      -0.644  10.671  22.313  0.00  0.00    +0.000 A 
ATOM     11  C   UNL     1      -0.755  10.626  20.923  0.00  0.00    +0.000 A 
ATOM     12  N   UNL     1       0.022   9.833  20.137  0.00  0.00    +0.000 NA
ATOM     13  C   UNL     1       0.930   9.069  20.803  0.00  0.00    +0.000 A 
ATOM     14  C   UNL     1       1.044   9.106  22.183  0.00  0.00    +0.000 A 
ATOM     15  N   UNL     1       0.266   9.904  22.962  0.00  0.00    +0.000 NA
ENDBRANCH   5  13
ENDBRANCH   1   7
BRANCH   2  16
ATOM     16  C   UNL     1       3.427   3.991  18.829  0.00  0.00    +0.000 C 
BRANCH  16  17
ATOM     17  C   UNL     1       4.545   4.585  17.916  0.00  0.00    +0.000 C 
ATOM     18  C   UNL     1       4.865   3.657  16.714  0.00  0.00    +0.000 C 
ATOM     19  C   UNL     1       5.938   4.279  15.801  0.00  0.00    +0.000 C 
ATOM     20  C   UNL     1       5.432   5.623  15.259  0.00  0.00    +0.000 C 
ATOM     21  C   UNL     1       5.148   6.581  16.427  0.00  0.00    +0.000 C 
ATOM     22  C   UNL     1       6.429   6.804  17.246  0.00  0.00    +0.000 C 
ATOM     23  C   UNL     1       6.938   5.463  17.790  0.00  0.00    +0.000 C 
ATOM     24  C   UNL     1       7.225   4.521  16.609  0.00  0.00    +0.000 C 
ATOM     25  C   UNL     1       5.862   4.837  18.699  0.00  0.00    +0.000 C 
ATOM     26  C   UNL     1       4.072   5.956  17.338  0.00  0.00    +0.000 C 
ENDBRANCH  16  17
ENDBRANCH   2  16
TORSDOF 4
ENDMDL
MODEL 5
REMARK VINA RESULT:      -8.3      2.285      3.858
REMARK  Name = 
REMARK  5 active torsions:
REMARK  status: ('A' for Active; 'I' for Inactive)
REMARK    1  A    between atoms: C_1  and  C_2
REMARK    2  A    between atoms: C_5  and  C_6
REMARK    3  A    between atoms: N_8  and  N_9
REMARK    4  A    between atoms: C_10  and  C_12
REMARK    5  A    between atoms: C_12  and  C_13
REMARK                            x       y       z     vdW  Elec       q    Type
REMARK                         _______ _______ _______ _____ _____    ______ ____
ROOT
ATOM      1  N   UNL     1       3.004   6.314  20.123  0.00  0.00    +0.000 N 
ATOM      2  C   UNL     1       2.442   5.083  19.834  0.00  0.00    +0.000 C 
ATOM      3  O   UNL     1       1.260   4.864  20.100  0.00  0.00    +0.000 OA
ATOM      4  H   UNL     1       3.967   6.583  19.935  0.00  0.00    +0.000 HD
ENDROOT
BRANCH   1   7
ATOM      5  C   UNL     1       1.685   8.353  20.053  0.00  0.00    +0.000 C 
ATOM      6  O   UNL     1       1.956   8.576  18.876  0.00  0.00    +0.000 OA
ATOM      7  N   UNL     1       2.166   7.261  20.745  0.00  0.00    +0.000 N 
ATOM      8  H   UNL     1       1.919   7.095  21.724  0.00  0.00    +0.000 HD
BRANCH   5  13
ATOM      9  C   UNL     1      -1.623  11.773  23.188  0.00  0.00    +0.000 C 
ATOM     10  C   UNL     1      -0.765  10.879  22.349  0.00  0.00    +0.000 A 
ATOM     11  C   UNL     1      -0.844  10.867  20.957  0.00  0.00    +0.000 A 
ATOM     12  N   UNL     1      -0.072  10.068  20.171  0.00  0.00    +0.000 NA
ATOM     13  C   UNL     1       0.797   9.264  20.840  0.00  0.00    +0.000 A 
ATOM     14  C   UNL     1       0.880   9.268  22.224  0.00  0.00    +0.000 A 
ATOM     15  N   UNL     1       0.107  10.072  23.002  0.00  0.00    +0.000 NA
ENDBRANCH   5  13
ENDBRANCH   1   7
BRANCH   2  16
ATOM     16  C   UNL     1       3.375   4.071  19.166  0.00  0.00    +0.000 C 
BRANCH  16  17
ATOM     17  C   UNL     1       4.429   4.656  18.175  0.00  0.00    +0.000 C 
ATOM     18  C   UNL     1       3.921   5.953  17.490  0.00  0.00    +0.000 C 
ATOM     19  C   UNL     1       4.990   6.540  16.548  0.00  0.00    +0.000 C 
ATOM     20  C   UNL     1       6.252   6.877  17.355  0.00  0.00    +0.000 C 
ATOM     21  C   UNL     1       6.805   5.601  18.012  0.00  0.00    +0.000 C 
ATOM     22  C   UNL     1       7.143   4.561  16.932  0.00  0.00    +0.000 C 
ATOM     23  C   UNL     1       5.884   4.222  16.124  0.00  0.00    +0.000 C 
ATOM     24  C   UNL     1       5.351   5.506  15.468  0.00  0.00    +0.000 C 
ATOM     25  C   UNL     1       4.812   3.639  17.067  0.00  0.00    +0.000 C 
ATOM     26  C   UNL     1       5.733   5.017  18.954  0.00  0.00    +0.000 C 
ENDBRANCH  16  17
ENDBRANCH   2  16
TORSDOF 4
ENDMDL
MODEL 6
REMARK VINA RESULT:      -8.3      0.589      1.849
REMARK  Name = 
REMARK  5 active torsions:
REMARK  status: ('A' for Active; 'I' for Inactive)
REMARK    1  A    between atoms: C_1  and  C_2
REMARK    2  A    between atoms: C_5  and  C_6
REMARK    3  A    between atoms: N_8  and  N_9
REMARK    4  A    between atoms: C_10  and  C_12
REMARK    5  A    between atoms: C_12  and  C_13
REMARK                            x       y       z     vdW  Elec       q    Type
REMARK                         _______ _______ _______ _____ _____    ______ ____
ROOT
ATOM      1  N   UNL     1       1.933   7.883  20.449  0.00  0.00    +0.000 N 
ATOM      2  C   UNL     1       2.262   7.577  19.141  0.00  0.00    +0.000 C 
ATOM      3  O   UNL     1       1.709   8.163  18.209  0.00  0.00    +0.000 OA
ATOM      4  H   UNL     1       2.339   7.454  21.277  0.00  0.00    +0.000 HD
ENDROOT
BRANCH   1   7
ATOM      5  C   UNL     1       0.840   9.564  21.822  0.00  0.00    +0.000 C 
ATOM      6  O   UNL     1       1.592   9.380  22.776  0.00  0.00    +0.000 OA
ATOM      7  N   UNL     1       0.937   8.862  20.638  0.00  0.00    +0.000 N 
ATOM      8  H   UNL     1       0.301   9.039  19.856  0.00  0.00    +0.000 HD
BRANCH   5  13
ATOM      9  C   UNL     1      -3.362  13.396  22.168  0.00  0.00    +0.000 C 
ATOM     10  C   UNL     1      -2.258  12.392  22.058  0.00  0.00    +0.000 A 
ATOM     11  C   UNL     1      -1.530  12.216  20.881  0.00  0.00    +0.000 A 
ATOM     12  N   UNL     1      -0.518  11.315  20.757  0.00  0.00    +0.000 NA
ATOM     13  C   UNL     1      -0.258  10.579  21.871  0.00  0.00    +0.000 A 
ATOM     14  C   UNL     1      -0.979  10.746  23.043  0.00  0.00    +0.000 A 
ATOM     15  N   UNL     1      -1.987  11.652  23.160  0.00  0.00    +0.000 NA
ENDBRANCH   5  13
ENDBRANCH   1   7
BRANCH   2  16
ATOM     16  C   UNL     1       3.339   6.505  18.964  0.00  0.00    +0.000 C 
BRANCH  16  17
ATOM     17  C   UNL     1       2.903   5.036  19.259  0.00  0.00    +0.000 C 
ATOM     18  C   UNL     1       2.073   4.931  20.568  0.00  0.00    +0.000 C 
ATOM     19  C   UNL     1       1.615   3.482  20.820  0.00  0.00    +0.000 C 
ATOM     20  C   UNL     1       0.741   3.011  19.649  0.00  0.00    +0.000 C 
ATOM     21  C   UNL     1       1.550   3.063  18.342  0.00  0.00    +0.000 C 
ATOM     22  C   UNL     1       2.789   2.161  18.458  0.00  0.00    +0.000 C 
ATOM     23  C   UNL     1       3.665   2.629  19.627  0.00  0.00    +0.000 C 
ATOM     24  C   UNL     1       2.844   2.562  20.925  0.00  0.00    +0.000 C 
ATOM     25  C   UNL     1       4.120   4.080  19.377  0.00  0.00    +0.000 C 
ATOM     26  C   UNL     1       2.006   4.515  18.092  0.00  0.00    +0.000 C 
ENDBRANCH  16  17
ENDBRANCH   2  16
TORSDOF 4
ENDMDL
MODEL 7
REMARK VINA RESULT:      -8.3      2.277      3.897
REMARK  Name = 
REMARK  5 active torsions:
REMARK  status: ('A' for Active; 'I' for Inactive)
REMARK    1  A    between atoms: C_1  and  C_2
REMARK    2  A    between atoms: C_5  and  C_6
REMARK    3  A    between atoms: N_8  and  N_9
REMARK    4  A    between atoms: C_10  and  C_12
REMARK    5  A    between atoms: C_12  and  C_13
REMARK                            x       y       z     vdW  Elec       q    Type
REMARK                         _______ _______ _______ _____ _____    ______ ____
ROOT
ATOM      1  N   UNL     1       2.930   6.367  20.068  0.00  0.00    +0.000 N 
ATOM      2  C   UNL     1       2.385   5.116  19.842  0.00  0.00    +0.000 C 
ATOM      3  O   UNL     1       1.227   4.873  20.184  0.00  0.00    +0.000 OA
ATOM      4  H   UNL     1       3.872   6.655  19.816  0.00  0.00    +0.000 HD
ENDROOT
BRANCH   1   7
ATOM      5  C   UNL     1       1.620   8.413  20.051  0.00  0.00    +0.000 C 
ATOM      6  O   UNL     1       1.877   8.655  18.874  0.00  0.00    +0.000 OA
ATOM      7  N   UNL     1       2.105   7.307  20.718  0.00  0.00    +0.000 N 
ATOM      8  H   UNL     1       1.872   7.126  21.697  0.00  0.00    +0.000 HD
BRANCH   5  13
ATOM      9  C   UNL     1      -1.627  11.795  23.288  0.00  0.00    +0.000 C 
ATOM     10  C   UNL     1      -0.785  10.911  22.422  0.00  0.00    +0.000 A 
ATOM     11  C   UNL     1      -0.876  10.931  21.030  0.00  0.00    +0.000 A 
ATOM     12  N   UNL     1      -0.119  10.142  20.221  0.00  0.00    +0.000 NA
ATOM     13  C   UNL     1       0.748   9.315  20.865  0.00  0.00    +0.000 A 
ATOM     14  C   UNL     1       0.843   9.287  22.248  0.00  0.00    +0.000 A 
ATOM     15  N   UNL     1       0.084  10.082  23.050  0.00  0.00    +0.000 NA
ENDBRANCH   5  13
ENDBRANCH   1   7
BRANCH   2  16
ATOM     16  C   UNL     1       3.304   4.111  19.144  0.00  0.00    +0.000 C 
BRANCH  16  17
ATOM     17  C   UNL     1       4.405   4.715  18.217  0.00  0.00    +0.000 C 
ATOM     18  C   UNL     1       5.686   5.091  19.010  0.00  0.00    +0.000 C 
ATOM     19  C   UNL     1       6.777   5.644  18.074  0.00  0.00    +0.000 C 
ATOM     20  C   UNL     1       7.143   4.579  17.030  0.00  0.00    +0.000 C 
ATOM     21  C   UNL     1       5.902   4.217  16.198  0.00  0.00    +0.000 C 
ATOM     22  C   UNL     1       5.363   5.470  15.491  0.00  0.00    +0.000 C 
ATOM     23  C   UNL     1       4.994   6.536  16.530  0.00  0.00    +0.000 C 
ATOM     24  C   UNL     1       6.248   6.892  17.346  0.00  0.00    +0.000 C 
ATOM     25  C   UNL     1       3.907   5.981  17.470  0.00  0.00    +0.000 C 
ATOM     26  C   UNL     1       4.813   3.663  17.139  0.00  0.00    +0.000 C 
ENDBRANCH  16  17
ENDBRANCH   2  16
TORSDOF 4
ENDMDL
MODEL 8
REMARK VINA RESULT:      -8.2      2.423      3.886
REMARK  Name = 
REMARK  5 active torsions:
REMARK  status: ('A' for Active; 'I' for Inactive)
REMARK    1  A    between atoms: C_1  and  C_2
REMARK    2  A    between atoms: C_5  and  C_6
REMARK    3  A    between atoms: N_8  and  N_9
REMARK    4  A    between atoms: C_10  and  C_12
REMARK    5  A    between atoms: C_12  and  C_13
REMARK                            x       y       z     vdW  Elec       q    Type
REMARK                         _______ _______ _______ _____ _____    ______ ____
ROOT
ATOM      1  N   UNL     1       3.090   6.174  19.990  0.00  0.00    +0.000 N 
ATOM      2  C   UNL     1       2.518   4.977  19.597  0.00  0.00    +0.000 C 
ATOM      3  O   UNL     1       1.325   4.760  19.814  0.00  0.00    +0.000 OA
ATOM      4  H   UNL     1       4.062   6.438  19.850  0.00  0.00    +0.000 HD
ENDROOT
BRANCH   1   7
ATOM      5  C   UNL     1       1.745   8.197  20.007  0.00  0.00    +0.000 C 
ATOM      6  O   UNL     1       1.998   8.463  18.834  0.00  0.00    +0.000 OA
ATOM      7  N   UNL     1       2.249   7.088  20.655  0.00  0.00    +0.000 N 
ATOM      8  H   UNL     1       2.018   6.887  21.631  0.00  0.00    +0.000 HD
BRANCH   5  13
ATOM      9  C   UNL     1      -1.689  11.594  23.028  0.00  0.00    +0.000 C 
ATOM     10  C   UNL     1      -0.779  10.696  22.251  0.00  0.00    +0.000 A 
ATOM     11  C   UNL     1      -0.025   9.694  22.863  0.00  0.00    +0.000 A 
ATOM     12  N   UNL     1       0.805   8.860  22.179  0.00  0.00    +0.000 NA
ATOM     13  C   UNL     1       0.857   9.070  20.836  0.00  0.00    +0.000 A 
ATOM     14  C   UNL     1       0.113  10.065  20.221  0.00  0.00    +0.000 A 
ATOM     15  N   UNL     1      -0.717  10.892  20.912  0.00  0.00    +0.000 NA
ENDBRANCH   5  13
ENDBRANCH   1   7
BRANCH   2  16
ATOM     16  C   UNL     1       3.454   3.999  18.886  0.00  0.00    +0.000 C 
BRANCH  16  17
ATOM     17  C   UNL     1       4.520   4.633  17.939  0.00  0.00    +0.000 C 
ATOM     18  C   UNL     1       4.051   5.999  17.371  0.00  0.00    +0.000 C 
ATOM     19  C   UNL     1       5.133   6.630  16.474  0.00  0.00    +0.000 C 
ATOM     20  C   UNL     1       6.410   6.856  17.295  0.00  0.00    +0.000 C 
ATOM     21  C   UNL     1       6.925   5.512  17.836  0.00  0.00    +0.000 C 
ATOM     22  C   UNL     1       7.223   4.557  16.669  0.00  0.00    +0.000 C 
ATOM     23  C   UNL     1       5.949   4.329  15.846  0.00  0.00    +0.000 C 
ATOM     24  C   UNL     1       5.453   5.681  15.306  0.00  0.00    +0.000 C 
ATOM     25  C   UNL     1       4.864   3.702  16.744  0.00  0.00    +0.000 C 
ATOM     26  C   UNL     1       5.840   4.884  18.734  0.00  0.00    +0.000 C 
ENDBRANCH  16  17
ENDBRANCH   2  16
TORSDOF 4
ENDMDL
MODEL 9
REMARK VINA RESULT:      -8.2      2.413      3.909
REMARK  Name = 
REMARK  5 active torsions:
REMARK  status: ('A' for Active; 'I' for Inactive)
REMARK    1  A    between atoms: C_1  and  C_2
REMARK    2  A    between atoms: C_5  and  C_6
REMARK    3  A    between atoms: N_8  and  N_9
REMARK    4  A    between atoms: C_10  and  C_12
REMARK    5  A    between atoms: C_12  and  C_13
REMARK                            x       y       z     vdW  Elec       q    Type
REMARK                         _______ _______ _______ _____ _____    ______ ____
ROOT
ATOM      1  N   UNL     1       3.022   6.138  20.093  0.00  0.00    +0.000 N 
ATOM      2  C   UNL     1       2.410   5.044  19.509  0.00  0.00    +0.000 C 
ATOM      3  O   UNL     1       1.186   4.920  19.557  0.00  0.00    +0.000 OA
ATOM      4  H   UNL     1       4.022   6.323  20.099  0.00  0.00    +0.000 HD
ENDROOT
BRANCH   1   7
ATOM      5  C   UNL     1       1.706   8.181  20.096  0.00  0.00    +0.000 C 
ATOM      6  O   UNL     1       1.989   8.453  18.932  0.00  0.00    +0.000 OA
ATOM      7  N   UNL     1       2.179   7.060  20.747  0.00  0.00    +0.000 N 
ATOM      8  H   UNL     1       1.923   6.853  21.715  0.00  0.00    +0.000 HD
BRANCH   5  13
ATOM      9  C   UNL     1      -1.750  11.600  23.068  0.00  0.00    +0.000 C 
ATOM     10  C   UNL     1      -0.835  10.696  22.304  0.00  0.00    +0.000 A 
ATOM     11  C   UNL     1      -0.081   9.702  22.930  0.00  0.00    +0.000 A 
ATOM     12  N   UNL     1       0.754   8.864  22.258  0.00  0.00    +0.000 NA
ATOM     13  C   UNL     1       0.812   9.060  20.913  0.00  0.00    +0.000 A 
ATOM     14  C   UNL     1       0.069  10.046  20.284  0.00  0.00    +0.000 A 
ATOM     15  N   UNL     1      -0.767  10.878  20.963  0.00  0.00    +0.000 NA
ENDBRANCH   5  13
ENDBRANCH   1   7
BRANCH   2  16
ATOM     16  C   UNL     1       3.348   4.055  18.814  0.00  0.00    +0.000 C 
BRANCH  16  17
ATOM     17  C   UNL     1       4.481   4.679  17.941  0.00  0.00    +0.000 C 
ATOM     18  C   UNL     1       5.772   4.934  18.765  0.00  0.00    +0.000 C 
ATOM     19  C   UNL     1       6.892   5.510  17.877  0.00  0.00    +0.000 C 
ATOM     20  C   UNL     1       7.218   4.514  16.755  0.00  0.00    +0.000 C 
ATOM     21  C   UNL     1       5.967   4.274  15.894  0.00  0.00    +0.000 C 
ATOM     22  C   UNL     1       5.488   5.601  15.285  0.00  0.00    +0.000 C 
ATOM     23  C   UNL     1       5.161   6.598  16.403  0.00  0.00    +0.000 C 
ATOM     24  C   UNL     1       6.424   6.833  17.248  0.00  0.00    +0.000 C 
ATOM     25  C   UNL     1       4.044   6.021  17.294  0.00  0.00    +0.000 C 
ATOM     26  C   UNL     1       4.848   3.697  16.785  0.00  0.00    +0.000 C 
ENDBRANCH  16  17
ENDBRANCH   2  16
TORSDOF 4
ENDMDL
