MODEL 1
REMARK VINA RESULT:      -8.2      0.000      0.000
REMARK  Name = 
REMARK  4 active torsions:
REMARK  status: ('A' for Active; 'I' for Inactive)
REMARK    1  A    between atoms: C_1  and  C_2
REMARK    2  A    between atoms: C_4  and  C_5
REMARK    3  A    between atoms: C_10  and  C_12
REMARK    4  A    between atoms: C_12  and  N_13
REMARK                            x       y       z     vdW  Elec       q    Type
REMARK                         _______ _______ _______ _____ _____    ______ ____
ROOT
ATOM      1  C   UNL     1       7.096   5.119  18.080  0.00  0.00    +0.000 C 
ATOM      2  C   UNL     1       7.258   4.306  16.783  0.00  0.00    +0.000 C 
ATOM      3  C   UNL     1       5.993   4.252  15.930  0.00  0.00    +0.000 C 
ATOM      4  C   UNL     1       4.778   3.843  16.754  0.00  0.00    +0.000 C 
ATOM      5  N   UNL     1       4.616   4.735  17.897  0.00  0.00    +0.000 N 
ATOM      6  C   UNL     1       3.343   5.197  18.211  0.00  0.00    +0.000 C 
ATOM      7  O   UNL     1       2.342   4.832  17.588  0.00  0.00    +0.000 OA
ATOM      8  C   UNL     1       5.769   4.826  18.795  0.00  0.00    +0.000 C 
ENDROOT
BRANCH   1  12
ATOM      9  C   UNL     1       8.767   9.800  18.361  0.00  0.00    +0.000 C 
ATOM     10  C   UNL     1       8.109   8.517  18.050  0.00  0.00    +0.000 A 
ATOM     11  N   UNL     1       8.258   7.325  18.586  0.00  0.00    +0.000 NA
ATOM     12  C   UNL     1       7.350   6.578  17.874  0.00  0.00    +0.000 A 
ATOM     13  N   UNL     1       6.666   7.265  16.946  0.00  0.00    +0.000 NA
ATOM     14  O   UNL     1       7.173   8.556  17.061  0.00  0.00    +0.000 OA
ENDBRANCH   1  12
BRANCH   6  15
ATOM     15  C   UNL     1       3.192   6.168  19.391  0.00  0.00    +0.000 C 
BRANCH  15  16
ATOM     16  N   UNL     1       2.430   7.395  19.136  0.00  0.00    +0.000 N 
ATOM     17  C   UNL     1       2.640   8.122  17.973  0.00  0.00    +0.000 A 
ATOM     18  C   UNL     1       2.059   9.314  17.782  0.00  0.00    +0.000 A 
ATOM     19  C   UNL     1       1.227   9.883  18.809  0.00  0.00    +0.000 A 
ATOM     20  C   UNL     1       1.006   9.216  19.948  0.00  0.00    +0.000 A 
ATOM     21  C   UNL     1       1.625   7.880  20.169  0.00  0.00    +0.000 A 
ATOM     22  O   UNL     1       1.413   7.294  21.226  0.00  0.00    +0.000 OA
ENDBRANCH  15  16
ENDBRANCH   6  15
TORSDOF 3
ENDMDL
MODEL 2
REMARK VINA RESULT:      -7.7      3.317      4.753
REMARK  Name = 
REMARK  4 active torsions:
REMARK  status: ('A' for Active; 'I' for Inactive)
REMARK    1  A    between atoms: C_1  and  C_2
REMARK    2  A    between atoms: C_4  and  C_5
REMARK    3  A    between atoms: C_10  and  C_12
REMARK    4  A    between atoms: C_12  and  N_13
REMARK                            x       y       z     vdW  Elec       q    Type
REMARK                         _______ _______ _______ _____ _____    ______ ____
ROOT
ATOM      1  C   UNL     1       6.161   6.678  16.844  0.00  0.00    +0.000 C 
ATOM      2  C   UNL     1       7.414   7.173  17.586  0.00  0.00    +0.000 C 
ATOM      3  C   UNL     1       7.973   6.165  18.587  0.00  0.00    +0.000 C 
ATOM      4  C   UNL     1       6.887   5.636  19.515  0.00  0.00    +0.000 C 
ATOM      5  N   UNL     1       5.788   5.070  18.742  0.00  0.00    +0.000 N 
ATOM      6  C   UNL     1       5.236   3.860  19.148  0.00  0.00    +0.000 C 
ATOM      7  O   UNL     1       5.609   3.282  20.171  0.00  0.00    +0.000 OA
ATOM      8  C   UNL     1       5.163   5.977  17.776  0.00  0.00    +0.000 C 
ENDROOT
BRANCH   1  12
ATOM      9  C   UNL     1       6.077   3.608  12.925  0.00  0.00    +0.000 C 
ATOM     10  C   UNL     1       6.379   4.579  13.994  0.00  0.00    +0.000 A 
ATOM     11  N   UNL     1       5.630   5.036  14.974  0.00  0.00    +0.000 NA
ATOM     12  C   UNL     1       6.498   5.880  15.625  0.00  0.00    +0.000 A 
ATOM     13  N   UNL     1       7.726   5.943  15.086  0.00  0.00    +0.000 NA
ATOM     14  O   UNL     1       7.647   5.078  13.999  0.00  0.00    +0.000 OA
ENDBRANCH   1  12
BRANCH   6  15
ATOM     15  C   UNL     1       4.108   3.255  18.300  0.00  0.00    +0.000 C 
BRANCH  15  16
ATOM     16  N   UNL     1       2.751   3.352  18.849  0.00  0.00    +0.000 N 
ATOM     17  C   UNL     1       2.504   4.128  19.972  0.00  0.00    +0.000 A 
ATOM     18  C   UNL     1       1.307   4.124  20.572  0.00  0.00    +0.000 A 
ATOM     19  C   UNL     1       0.256   3.273  20.079  0.00  0.00    +0.000 A 
ATOM     20  C   UNL     1       0.458   2.503  19.003  0.00  0.00    +0.000 A 
ATOM     21  C   UNL     1       1.776   2.512  18.309  0.00  0.00    +0.000 A 
ATOM     22  O   UNL     1       1.937   1.790  17.329  0.00  0.00    +0.000 OA
ENDBRANCH  15  16
ENDBRANCH   6  15
TORSDOF 3
ENDMDL
MODEL 3
REMARK VINA RESULT:      -7.5      1.015      1.465
REMARK  Name = 
REMARK  4 active torsions:
REMARK  status: ('A' for Active; 'I' for Inactive)
REMARK    1  A    between atoms: C_1  and  C_2
REMARK    2  A    between atoms: C_4  and  C_5
REMARK    3  A    between atoms: C_10  and  C_12
REMARK    4  A    between atoms: C_12  and  N_13
REMARK                            x       y       z     vdW  Elec       q    Type
REMARK                         _______ _______ _______ _____ _____    ______ ____
ROOT
ATOM      1  C   UNL     1       6.668   4.804  17.796  0.00  0.00    +0.000 C 
ATOM      2  C   UNL     1       6.600   4.076  16.443  0.00  0.00    +0.000 C 
ATOM      3  C   UNL     1       5.248   4.201  15.744  0.00  0.00    +0.000 C 
ATOM      4  C   UNL     1       4.099   3.850  16.681  0.00  0.00    +0.000 C 
ATOM      5  N   UNL     1       4.157   4.668  17.887  0.00  0.00    +0.000 N 
ATOM      6  C   UNL     1       2.981   5.224  18.378  0.00  0.00    +0.000 C 
ATOM      7  O   UNL     1       1.885   5.000  17.857  0.00  0.00    +0.000 OA
ATOM      8  C   UNL     1       5.407   4.586  18.645  0.00  0.00    +0.000 C 
ENDROOT
BRANCH   1  12
ATOM      9  C   UNL     1       8.618   9.350  18.359  0.00  0.00    +0.000 C 
ATOM     10  C   UNL     1       7.912   8.121  17.950  0.00  0.00    +0.000 A 
ATOM     11  N   UNL     1       7.917   6.915  18.474  0.00  0.00    +0.000 NA
ATOM     12  C   UNL     1       7.044   6.244  17.651  0.00  0.00    +0.000 A 
ATOM     13  N   UNL     1       6.517   6.991  16.668  0.00  0.00    +0.000 NA
ATOM     14  O   UNL     1       7.096   8.240  16.866  0.00  0.00    +0.000 OA
ENDBRANCH   1  12
BRANCH   6  15
ATOM     15  C   UNL     1       3.064   6.117  19.624  0.00  0.00    +0.000 C 
BRANCH  15  16
ATOM     16  N   UNL     1       2.387   7.416  19.544  0.00  0.00    +0.000 N 
ATOM     17  C   UNL     1       1.502   7.807  20.538  0.00  0.00    +0.000 A 
ATOM     18  C   UNL     1       0.770   8.922  20.419  0.00  0.00    +0.000 A 
ATOM     19  C   UNL     1       0.864   9.723  19.227  0.00  0.00    +0.000 A 
ATOM     20  C   UNL     1       1.701   9.375  18.242  0.00  0.00    +0.000 A 
ATOM     21  C   UNL     1       2.539   8.151  18.367  0.00  0.00    +0.000 A 
ATOM     22  O   UNL     1       3.293   7.850  17.445  0.00  0.00    +0.000 OA
ENDBRANCH  15  16
ENDBRANCH   6  15
TORSDOF 3
ENDMDL
MODEL 4
REMARK VINA RESULT:      -7.4      2.929      7.102
REMARK  Name = 
REMARK  4 active torsions:
REMARK  status: ('A' for Active; 'I' for Inactive)
REMARK    1  A    between atoms: C_1  and  C_2
REMARK    2  A    between atoms: C_4  and  C_5
REMARK    3  A    between atoms: C_10  and  C_12
REMARK    4  A    between atoms: C_12  and  N_13
REMARK                            x       y       z     vdW  Elec       q    Type
REMARK                         _______ _______ _______ _____ _____    ______ ____
ROOT
ATOM      1  C   UNL     1       4.106   5.223  19.475  0.00  0.00    +0.000 C 
ATOM      2  C   UNL     1       3.174   6.421  19.725  0.00  0.00    +0.000 C 
ATOM      3  C   UNL     1       2.770   7.161  18.452  0.00  0.00    +0.000 C 
ATOM      4  C   UNL     1       3.982   7.504  17.595  0.00  0.00    +0.000 C 
ATOM      5  N   UNL     1       4.749   6.301  17.295  0.00  0.00    +0.000 N 
ATOM      6  C   UNL     1       5.221   6.112  16.001  0.00  0.00    +0.000 C 
ATOM      7  O   UNL     1       5.059   6.956  15.116  0.00  0.00    +0.000 OA
ATOM      8  C   UNL     1       5.211   5.540  18.458  0.00  0.00    +0.000 C 
ENDROOT
BRANCH   1  12
ATOM      9  C   UNL     1       0.586   1.788  18.703  0.00  0.00    +0.000 C 
ATOM     10  C   UNL     1       1.816   2.588  18.849  0.00  0.00    +0.000 A 
ATOM     11  N   UNL     1       1.984   3.850  19.181  0.00  0.00    +0.000 NA
ATOM     12  C   UNL     1       3.353   3.969  19.163  0.00  0.00    +0.000 A 
ATOM     13  N   UNL     1       4.008   2.843  18.842  0.00  0.00    +0.000 NA
ATOM     14  O   UNL     1       2.985   1.923  18.631  0.00  0.00    +0.000 OA
ENDBRANCH   1  12
BRANCH   6  15
ATOM     15  C   UNL     1       5.991   4.821  15.688  0.00  0.00    +0.000 C 
BRANCH  15  16
ATOM     16  N   UNL     1       6.172   4.493  14.270  0.00  0.00    +0.000 N 
ATOM     17  C   UNL     1       5.289   3.636  13.631  0.00  0.00    +0.000 A 
ATOM     18  C   UNL     1       5.511   3.214  12.379  0.00  0.00    +0.000 A 
ATOM     19  C   UNL     1       6.704   3.618  11.683  0.00  0.00    +0.000 A 
ATOM     20  C   UNL     1       7.585   4.438  12.269  0.00  0.00    +0.000 A 
ATOM     21  C   UNL     1       7.343   4.935  13.651  0.00  0.00    +0.000 A 
ATOM     22  O   UNL     1       8.171   5.680  14.169  0.00  0.00    +0.000 OA
ENDBRANCH  15  16
ENDBRANCH   6  15
TORSDOF 3
ENDMDL
MODEL 5
REMARK VINA RESULT:      -7.2      2.368      3.436
REMARK  Name = 
REMARK  4 active torsions:
REMARK  status: ('A' for Active; 'I' for Inactive)
REMARK    1  A    between atoms: C_1  and  C_2
REMARK    2  A    between atoms: C_4  and  C_5
REMARK    3  A    between atoms: C_10  and  C_12
REMARK    4  A    between atoms: C_12  and  N_13
REMARK                            x       y       z     vdW  Elec       q    Type
REMARK                         _______ _______ _______ _____ _____    ______ ____
ROOT
ATOM      1  C   UNL     1       7.198   4.851  17.125  0.00  0.00    +0.000 C 
ATOM      2  C   UNL     1       7.091   4.811  15.591  0.00  0.00    +0.000 C 
ATOM      3  C   UNL     1       5.739   5.277  15.057  0.00  0.00    +0.000 C 
ATOM      4  C   UNL     1       4.585   4.576  15.764  0.00  0.00    +0.000 C 
ATOM      5  N   UNL     1       4.685   4.763  17.207  0.00  0.00    +0.000 N 
ATOM      6  C   UNL     1       3.534   5.073  17.923  0.00  0.00    +0.000 C 
ATOM      7  O   UNL     1       2.426   5.139  17.385  0.00  0.00    +0.000 OA
ATOM      8  C   UNL     1       5.937   4.311  17.816  0.00  0.00    +0.000 C 
ENDROOT
BRANCH   1  12
ATOM      9  C   UNL     1       8.184   9.700  17.675  0.00  0.00    +0.000 C 
ATOM     10  C   UNL     1       8.000   8.241  17.789  0.00  0.00    +0.000 A 
ATOM     11  N   UNL     1       7.479   7.374  16.949  0.00  0.00    +0.000 NA
ATOM     12  C   UNL     1       7.626   6.191  17.632  0.00  0.00    +0.000 A 
ATOM     13  N   UNL     1       8.212   6.309  18.834  0.00  0.00    +0.000 NA
ATOM     14  O   UNL     1       8.460   7.674  18.940  0.00  0.00    +0.000 OA
ENDBRANCH   1  12
BRANCH   6  15
ATOM     15  C   UNL     1       3.661   5.308  19.435  0.00  0.00    +0.000 C 
BRANCH  15  16
ATOM     16  N   UNL     1       3.129   4.256  20.309  0.00  0.00    +0.000 N 
ATOM     17  C   UNL     1       3.813   3.060  20.462  0.00  0.00    +0.000 A 
ATOM     18  C   UNL     1       3.282   2.035  21.141  0.00  0.00    +0.000 A 
ATOM     19  C   UNL     1       1.959   2.147  21.698  0.00  0.00    +0.000 A 
ATOM     20  C   UNL     1       1.263   3.283  21.564  0.00  0.00    +0.000 A 
ATOM     21  C   UNL     1       1.847   4.440  20.832  0.00  0.00    +0.000 A 
ATOM     22  O   UNL     1       1.184   5.467  20.717  0.00  0.00    +0.000 OA
ENDBRANCH  15  16
ENDBRANCH   6  15
TORSDOF 3
ENDMDL
MODEL 6
REMARK VINA RESULT:      -7.2      3.098      4.567
REMARK  Name = 
REMARK  4 active torsions:
REMARK  status: ('A' for Active; 'I' for Inactive)
REMARK    1  A    between atoms: C_1  and  C_2
REMARK    2  A    between atoms: C_4  and  C_5
REMARK    3  A    between atoms: C_10  and  C_12
REMARK    4  A    between atoms: C_12  and  N_13
REMARK                            x       y       z     vdW  Elec       q    Type
REMARK                         _______ _______ _______ _____ _____    ______ ____
ROOT
ATOM      1  C   UNL     1       6.293   6.682  16.834  0.00  0.00    +0.000 C 
ATOM      2  C   UNL     1       7.571   7.052  17.605  0.00  0.00    +0.000 C 
ATOM      3  C   UNL     1       8.027   5.977  18.589  0.00  0.00    +0.000 C 
ATOM      4  C   UNL     1       6.886   5.520  19.489  0.00  0.00    +0.000 C 
ATOM      5  N   UNL     1       5.756   5.067  18.687  0.00  0.00    +0.000 N 
ATOM      6  C   UNL     1       5.097   3.899  19.055  0.00  0.00    +0.000 C 
ATOM      7  O   UNL     1       5.405   3.267  20.069  0.00  0.00    +0.000 OA
ATOM      8  C   UNL     1       5.225   6.046  17.735  0.00  0.00    +0.000 C 
ENDROOT
BRANCH   1  12
ATOM      9  C   UNL     1       6.052   3.618  12.917  0.00  0.00    +0.000 C 
ATOM     10  C   UNL     1       6.396   4.588  13.974  0.00  0.00    +0.000 A 
ATOM     11  N   UNL     1       5.688   5.042  14.985  0.00  0.00    +0.000 NA
ATOM     12  C   UNL     1       6.580   5.887  15.601  0.00  0.00    +0.000 A 
ATOM     13  N   UNL     1       7.784   5.955  15.011  0.00  0.00    +0.000 NA
ATOM     14  O   UNL     1       7.662   5.091  13.927  0.00  0.00    +0.000 OA
ENDBRANCH   1  12
BRANCH   6  15
ATOM     15  C   UNL     1       3.936   3.412  18.177  0.00  0.00    +0.000 C 
BRANCH  15  16
ATOM     16  N   UNL     1       2.646   3.216  18.847  0.00  0.00    +0.000 N 
ATOM     17  C   UNL     1       1.843   2.133  18.519  0.00  0.00    +0.000 A 
ATOM     18  C   UNL     1       0.605   2.009  19.015  0.00  0.00    +0.000 A 
ATOM     19  C   UNL     1       0.067   3.028  19.876  0.00  0.00    +0.000 A 
ATOM     20  C   UNL     1       0.807   4.093  20.210  0.00  0.00    +0.000 A 
ATOM     21  C   UNL     1       2.194   4.236  19.686  0.00  0.00    +0.000 A 
ATOM     22  O   UNL     1       2.848   5.226  20.001  0.00  0.00    +0.000 OA
ENDBRANCH  15  16
ENDBRANCH   6  15
TORSDOF 3
ENDMDL
MODEL 7
REMARK VINA RESULT:      -7.1      2.631      3.676
REMARK  Name = 
REMARK  4 active torsions:
REMARK  status: ('A' for Active; 'I' for Inactive)
REMARK    1  A    between atoms: C_1  and  C_2
REMARK    2  A    between atoms: C_4  and  C_5
REMARK    3  A    between atoms: C_10  and  C_12
REMARK    4  A    between atoms: C_12  and  N_13
REMARK                            x       y       z     vdW  Elec       q    Type
REMARK                         _______ _______ _______ _____ _____    ______ ____
ROOT
ATOM      1  C   UNL     1       4.438   2.635  19.162  0.00  0.00    +0.000 C 
ATOM      2  C   UNL     1       3.642   1.506  18.484  0.00  0.00    +0.000 C 
ATOM      3  C   UNL     1       2.189   1.871  18.189  0.00  0.00    +0.000 C 
ATOM      4  C   UNL     1       1.496   2.450  19.417  0.00  0.00    +0.000 C 
ATOM      5  N   UNL     1       2.242   3.593  19.930  0.00  0.00    +0.000 N 
ATOM      6  C   UNL     1       1.543   4.731  20.316  0.00  0.00    +0.000 C 
ATOM      7  O   UNL     1       0.310   4.782  20.290  0.00  0.00    +0.000 OA
ATOM      8  C   UNL     1       3.641   3.330  20.275  0.00  0.00    +0.000 C 
ENDROOT
BRANCH   1  12
ATOM      9  C   UNL     1       5.553   5.274  15.091  0.00  0.00    +0.000 C 
ATOM     10  C   UNL     1       5.434   4.659  16.426  0.00  0.00    +0.000 A 
ATOM     11  N   UNL     1       4.619   3.729  16.872  0.00  0.00    +0.000 NA
ATOM     12  C   UNL     1       5.033   3.587  18.174  0.00  0.00    +0.000 A 
ATOM     13  N   UNL     1       6.057   4.381  18.524  0.00  0.00    +0.000 NA
ATOM     14  O   UNL     1       6.323   5.097  17.361  0.00  0.00    +0.000 OA
ENDBRANCH   1  12
BRANCH   6  15
ATOM     15  C   UNL     1       2.344   5.942  20.815  0.00  0.00    +0.000 C 
BRANCH  15  16
ATOM     16  N   UNL     1       2.054   7.228  20.173  0.00  0.00    +0.000 N 
ATOM     17  C   UNL     1       1.269   8.172  20.818  0.00  0.00    +0.000 A 
ATOM     18  C   UNL     1       0.877   9.294  20.199  0.00  0.00    +0.000 A 
ATOM     19  C   UNL     1       1.237   9.522  18.824  0.00  0.00    +0.000 A 
ATOM     20  C   UNL     1       1.987   8.631  18.164  0.00  0.00    +0.000 A 
ATOM     21  C   UNL     1       2.451   7.389  18.844  0.00  0.00    +0.000 A 
ATOM     22  O   UNL     1       3.130   6.584  18.213  0.00  0.00    +0.000 OA
ENDBRANCH  15  16
ENDBRANCH   6  15
TORSDOF 3
ENDMDL
MODEL 8
REMARK VINA RESULT:      -7.1      2.718      3.454
REMARK  Name = 
REMARK  4 active torsions:
REMARK  status: ('A' for Active; 'I' for Inactive)
REMARK    1  A    between atoms: C_1  and  C_2
REMARK    2  A    between atoms: C_4  and  C_5
REMARK    3  A    between atoms: C_10  and  C_12
REMARK    4  A    between atoms: C_12  and  N_13
REMARK                            x       y       z     vdW  Elec       q    Type
REMARK                         _______ _______ _______ _____ _____    ______ ____
ROOT
ATOM      1  C   UNL     1       4.470   2.997  18.750  0.00  0.00    +0.000 C 
ATOM      2  C   UNL     1       3.652   1.758  18.344  0.00  0.00    +0.000 C 
ATOM      3  C   UNL     1       2.146   2.004  18.304  0.00  0.00    +0.000 C 
ATOM      4  C   UNL     1       1.651   2.666  19.584  0.00  0.00    +0.000 C 
ATOM      5  N   UNL     1       2.388   3.898  19.836  0.00  0.00    +0.000 N 
ATOM      6  C   UNL     1       1.686   5.027  20.244  0.00  0.00    +0.000 C 
ATOM      7  O   UNL     1       0.470   5.002  20.452  0.00  0.00    +0.000 OA
ATOM      8  C   UNL     1       3.843   3.756  19.927  0.00  0.00    +0.000 C 
ENDROOT
BRANCH   1  12
ATOM      9  C   UNL     1       5.818   4.792  14.305  0.00  0.00    +0.000 C 
ATOM     10  C   UNL     1       5.366   4.546  15.688  0.00  0.00    +0.000 A 
ATOM     11  N   UNL     1       5.209   3.422  16.352  0.00  0.00    +0.000 NA
ATOM     12  C   UNL     1       4.795   3.873  17.582  0.00  0.00    +0.000 A 
ATOM     13  N   UNL     1       4.701   5.208  17.685  0.00  0.00    +0.000 NA
ATOM     14  O   UNL     1       5.079   5.657  16.424  0.00  0.00    +0.000 OA
ENDBRANCH   1  12
BRANCH   6  15
ATOM     15  C   UNL     1       2.469   6.329  20.466  0.00  0.00    +0.000 C 
BRANCH  15  16
ATOM     16  N   UNL     1       2.001   7.508  19.730  0.00  0.00    +0.000 N 
ATOM     17  C   UNL     1       2.387   7.710  18.412  0.00  0.00    +0.000 A 
ATOM     18  C   UNL     1       2.087   8.843  17.765  0.00  0.00    +0.000 A 
ATOM     19  C   UNL     1       1.385   9.899  18.445  0.00  0.00    +0.000 A 
ATOM     20  C   UNL     1       1.003   9.746  19.720  0.00  0.00    +0.000 A 
ATOM     21  C   UNL     1       1.308   8.484  20.448  0.00  0.00    +0.000 A 
ATOM     22  O   UNL     1       0.954   8.373  21.619  0.00  0.00    +0.000 OA
ENDBRANCH  15  16
ENDBRANCH   6  15
TORSDOF 3
ENDMDL
MODEL 9
REMARK VINA RESULT:      -7.1      2.712      3.698
REMARK  Name = 
REMARK  4 active torsions:
REMARK  status: ('A' for Active; 'I' for Inactive)
REMARK    1  A    between atoms: C_1  and  C_2
REMARK    2  A    between atoms: C_4  and  C_5
REMARK    3  A    between atoms: C_10  and  C_12
REMARK    4  A    between atoms: C_12  and  N_13
REMARK                            x       y       z     vdW  Elec       q    Type
REMARK                         _______ _______ _______ _____ _____    ______ ____
ROOT
ATOM      1  C   UNL     1       7.319   4.802  16.922  0.00  0.00    +0.000 C 
ATOM      2  C   UNL     1       7.213   4.853  15.388  0.00  0.00    +0.000 C 
ATOM      3  C   UNL     1       5.835   5.273  14.882  0.00  0.00    +0.000 C 
ATOM      4  C   UNL     1       4.725   4.464  15.540  0.00  0.00    +0.000 C 
ATOM      5  N   UNL     1       4.816   4.564  16.992  0.00  0.00    +0.000 N 
ATOM      6  C   UNL     1       3.650   4.761  17.725  0.00  0.00    +0.000 C 
ATOM      7  O   UNL     1       2.539   4.797  17.189  0.00  0.00    +0.000 OA
ATOM      8  C   UNL     1       6.093   4.148  17.575  0.00  0.00    +0.000 C 
ENDROOT
BRANCH   1  12
ATOM      9  C   UNL     1       8.137   9.645  17.736  0.00  0.00    +0.000 C 
ATOM     10  C   UNL     1       7.979   8.179  17.780  0.00  0.00    +0.000 A 
ATOM     11  N   UNL     1       7.553   7.335  16.865  0.00  0.00    +0.000 NA
ATOM     12  C   UNL     1       7.671   6.130  17.514  0.00  0.00    +0.000 A 
ATOM     13  N   UNL     1       8.150   6.213  18.765  0.00  0.00    +0.000 NA
ATOM     14  O   UNL     1       8.353   7.577  18.943  0.00  0.00    +0.000 OA
ENDBRANCH   1  12
BRANCH   6  15
ATOM     15  C   UNL     1       3.765   4.906  19.249  0.00  0.00    +0.000 C 
BRANCH  15  16
ATOM     16  N   UNL     1       2.974   3.973  20.058  0.00  0.00    +0.000 N 
ATOM     17  C   UNL     1       1.685   4.304  20.449  0.00  0.00    +0.000 A 
ATOM     18  C   UNL     1       0.996   3.533  21.299  0.00  0.00    +0.000 A 
ATOM     19  C   UNL     1       1.602   2.353  21.858  0.00  0.00    +0.000 A 
ATOM     20  C   UNL     1       2.848   2.004  21.511  0.00  0.00    +0.000 A 
ATOM     21  C   UNL     1       3.621   2.838  20.550  0.00  0.00    +0.000 A 
ATOM     22  O   UNL     1       4.764   2.500  20.255  0.00  0.00    +0.000 OA
ENDBRANCH  15  16
ENDBRANCH   6  15
TORSDOF 3
ENDMDL
