MODEL 1
REMARK VINA RESULT:      -8.3      0.000      0.000
REMARK  Name = 
REMARK  7 active torsions:
REMARK  status: ('A' for Active; 'I' for Inactive)
REMARK    1  A    between atoms: C_1  and  N_2
REMARK    2  A    between atoms: N_2  and  C_3
REMARK    3  A    between atoms: N_2  and  C_4
REMARK    4  A    between atoms: C_7  and  N_8
REMARK    5  A    between atoms: C_9  and  C_11
REMARK    6  A    between atoms: C_14  and  C_15
REMARK    7  A    between atoms: C_15  and  N_16
REMARK                            x       y       z     vdW  Elec       q    Type
REMARK                         _______ _______ _______ _____ _____    ______ ____
ROOT
ATOM      1  C   UNL     1       1.781   7.886  20.188  0.00  0.00    +0.000 A 
ATOM      2  C   UNL     1       1.814   6.558  20.663  0.00  0.00    +0.000 A 
ATOM      3  C   UNL     1       2.223   5.483  19.849  0.00  0.00    +0.000 A 
ATOM      4  C   UNL     1       2.611   5.675  18.527  0.00  0.00    +0.000 A 
ATOM      5  C   UNL     1       2.606   7.006  18.043  0.00  0.00    +0.000 A 
ATOM      6  C   UNL     1       2.191   8.102  18.870  0.00  0.00    +0.000 A 
ENDROOT
BRANCH   1   8
ATOM      7  N   UNL     1       0.370   9.940  20.672  0.00  0.00    +0.000 N 
ATOM      8  C   UNL     1       1.207   8.925  21.147  0.00  0.00    +0.000 C 
ATOM      9  O   UNL     1       1.549   8.810  22.323  0.00  0.00    +0.000 OA
ATOM     10  H   UNL     1       0.186   9.982  19.687  0.00  0.00    +0.000 HD
BRANCH   7  14
ATOM     11  C   UNL     1      -1.444  13.192  22.959  0.00  0.00    +0.000 A 
ATOM     12  C   UNL     1      -1.686  11.846  23.261  0.00  0.00    +0.000 A 
ATOM     13  C   UNL     1      -1.104  10.770  22.532  0.00  0.00    +0.000 A 
ATOM     14  C   UNL     1      -0.226  10.987  21.471  0.00  0.00    +0.000 A 
ATOM     15  C   UNL     1       0.072  12.325  21.186  0.00  0.00    +0.000 A 
ATOM     16  C   UNL     1      -0.527  13.394  21.914  0.00  0.00    +0.000 A 
BRANCH  11  18
ATOM     17  C   UNL     1      -1.282  15.022  24.635  0.00  0.00    +0.000 C 
ATOM     18  N   UNL     1      -2.047  14.240  23.660  0.00  0.00    +0.000 N 
ATOM     19  C   UNL     1      -3.502  14.289  23.805  0.00  0.00    +0.000 C 
ENDBRANCH  11  18
ENDBRANCH   7  14
ENDBRANCH   1   8
BRANCH   4  20
ATOM     20  C   UNL     1       2.995   4.458  17.668  0.00  0.00    +0.000 C 
BRANCH  20  21
ATOM     21  N   UNL     1       4.427   4.465  17.352  0.00  0.00    +0.000 N 
ATOM     22  C   UNL     1       4.792   4.593  15.927  0.00  0.00    +0.000 C 
ATOM     23  C   UNL     1       5.413   5.978  15.706  0.00  0.00    +0.000 C 
ATOM     24  C   UNL     1       6.070   6.119  17.031  0.00  0.00    +0.000 A 
ATOM     25  C   UNL     1       7.280   6.751  17.291  0.00  0.00    +0.000 A 
ATOM     26  C   UNL     1       7.893   6.483  18.508  0.00  0.00    +0.000 A 
ATOM     27  C   UNL     1       7.236   5.684  19.461  0.00  0.00    +0.000 A 
ATOM     28  C   UNL     1       5.960   5.135  19.213  0.00  0.00    +0.000 A 
ATOM     29  C   UNL     1       5.394   5.306  17.961  0.00  0.00    +0.000 A 
ENDBRANCH  20  21
ENDBRANCH   4  20
TORSDOF 5
ENDMDL
MODEL 2
REMARK VINA RESULT:      -8.3      0.112      1.115
REMARK  Name = 
REMARK  7 active torsions:
REMARK  status: ('A' for Active; 'I' for Inactive)
REMARK    1  A    between atoms: C_1  and  N_2
REMARK    2  A    between atoms: N_2  and  C_3
REMARK    3  A    between atoms: N_2  and  C_4
REMARK    4  A    between atoms: C_7  and  N_8
REMARK    5  A    between atoms: C_9  and  C_11
REMARK    6  A    between atoms: C_14  and  C_15
REMARK    7  A    between atoms: C_15  and  N_16
REMARK                            x       y       z     vdW  Elec       q    Type
REMARK                         _______ _______ _______ _____ _____    ______ ____
ROOT
ATOM      1  C   UNL     1       1.778   7.921  20.157  0.00  0.00    +0.000 A 
ATOM      2  C   UNL     1       1.833   6.605  20.665  0.00  0.00    +0.000 A 
ATOM      3  C   UNL     1       2.241   5.514  19.872  0.00  0.00    +0.000 A 
ATOM      4  C   UNL     1       2.607   5.676  18.541  0.00  0.00    +0.000 A 
ATOM      5  C   UNL     1       2.580   6.994  18.023  0.00  0.00    +0.000 A 
ATOM      6  C   UNL     1       2.166   8.106  18.828  0.00  0.00    +0.000 A 
ENDROOT
BRANCH   1   8
ATOM      7  N   UNL     1       0.385   9.995  20.603  0.00  0.00    +0.000 N 
ATOM      8  C   UNL     1       1.208   8.978  21.097  0.00  0.00    +0.000 C 
ATOM      9  O   UNL     1       1.540   8.875  22.278  0.00  0.00    +0.000 OA
ATOM     10  H   UNL     1       0.209  10.026  19.616  0.00  0.00    +0.000 HD
BRANCH   7  14
ATOM     11  C   UNL     1      -1.393  13.120  23.087  0.00  0.00    +0.000 A 
ATOM     12  C   UNL     1      -0.534  13.416  22.021  0.00  0.00    +0.000 A 
ATOM     13  C   UNL     1       0.055  12.415  21.197  0.00  0.00    +0.000 A 
ATOM     14  C   UNL     1      -0.206  11.058  21.384  0.00  0.00    +0.000 A 
ATOM     15  C   UNL     1      -1.106  10.743  22.410  0.00  0.00    +0.000 A 
ATOM     16  C   UNL     1      -1.679  11.753  23.236  0.00  0.00    +0.000 A 
BRANCH  11  18
ATOM     17  C   UNL     1      -3.378  14.377  23.899  0.00  0.00    +0.000 C 
ATOM     18  N   UNL     1      -1.938  14.109  23.910  0.00  0.00    +0.000 N 
ATOM     19  C   UNL     1      -1.094  15.186  24.427  0.00  0.00    +0.000 C 
ENDBRANCH  11  18
ENDBRANCH   7  14
ENDBRANCH   1   8
BRANCH   4  20
ATOM     20  C   UNL     1       2.991   4.441  17.707  0.00  0.00    +0.000 C 
BRANCH  20  21
ATOM     21  N   UNL     1       4.421   4.447  17.381  0.00  0.00    +0.000 N 
ATOM     22  C   UNL     1       4.776   4.566  15.954  0.00  0.00    +0.000 C 
ATOM     23  C   UNL     1       5.395   5.949  15.718  0.00  0.00    +0.000 C 
ATOM     24  C   UNL     1       6.060   6.100  17.039  0.00  0.00    +0.000 A 
ATOM     25  C   UNL     1       7.271   6.734  17.286  0.00  0.00    +0.000 A 
ATOM     26  C   UNL     1       7.893   6.475  18.501  0.00  0.00    +0.000 A 
ATOM     27  C   UNL     1       7.242   5.683  19.463  0.00  0.00    +0.000 A 
ATOM     28  C   UNL     1       5.965   5.131  19.228  0.00  0.00    +0.000 A 
ATOM     29  C   UNL     1       5.390   5.293  17.978  0.00  0.00    +0.000 A 
ENDBRANCH  20  21
ENDBRANCH   4  20
TORSDOF 5
ENDMDL
MODEL 3
REMARK VINA RESULT:      -8.3      5.794      8.605
REMARK  Name = 
REMARK  7 active torsions:
REMARK  status: ('A' for Active; 'I' for Inactive)
REMARK    1  A    between atoms: C_1  and  N_2
REMARK    2  A    between atoms: N_2  and  C_3
REMARK    3  A    between atoms: N_2  and  C_4
REMARK    4  A    between atoms: C_7  and  N_8
REMARK    5  A    between atoms: C_9  and  C_11
REMARK    6  A    between atoms: C_14  and  C_15
REMARK    7  A    between atoms: C_15  and  N_16
REMARK                            x       y       z     vdW  Elec       q    Type
REMARK                         _______ _______ _______ _____ _____    ______ ____
ROOT
ATOM      1  C   UNL     1       7.935   8.205  18.170  0.00  0.00    +0.000 A 
ATOM      2  C   UNL     1       8.322   7.096  18.952  0.00  0.00    +0.000 A 
ATOM      3  C   UNL     1       7.658   5.856  18.871  0.00  0.00    +0.000 A 
ATOM      4  C   UNL     1       6.579   5.660  18.017  0.00  0.00    +0.000 A 
ATOM      5  C   UNL     1       6.193   6.757  17.207  0.00  0.00    +0.000 A 
ATOM      6  C   UNL     1       6.867   8.020  17.288  0.00  0.00    +0.000 A 
ENDROOT
BRANCH   1   8
ATOM      7  N   UNL     1       8.588  10.578  17.549  0.00  0.00    +0.000 N 
ATOM      8  C   UNL     1       8.671   9.512  18.450  0.00  0.00    +0.000 C 
ATOM      9  O   UNL     1       9.334   9.537  19.486  0.00  0.00    +0.000 OA
ATOM     10  H   UNL     1       8.062  10.448  16.705  0.00  0.00    +0.000 HD
BRANCH   7  14
ATOM     11  C   UNL     1      10.470  14.485  18.089  0.00  0.00    +0.000 A 
ATOM     12  C   UNL     1      11.212  13.339  17.777  0.00  0.00    +0.000 A 
ATOM     13  C   UNL     1      10.620  12.057  17.594  0.00  0.00    +0.000 A 
ATOM     14  C   UNL     1       9.244  11.858  17.691  0.00  0.00    +0.000 A 
ATOM     15  C   UNL     1       8.477  13.001  17.949  0.00  0.00    +0.000 A 
ATOM     16  C   UNL     1       9.082  14.277  18.144  0.00  0.00    +0.000 A 
BRANCH  11  18
ATOM     17  C   UNL     1      10.358  16.779  19.043  0.00  0.00    +0.000 C 
ATOM     18  N   UNL     1      11.065  15.732  18.300  0.00  0.00    +0.000 N 
ATOM     19  C   UNL     1      12.147  16.189  17.429  0.00  0.00    +0.000 C 
ENDBRANCH  11  18
ENDBRANCH   7  14
ENDBRANCH   1   8
BRANCH   4  20
ATOM     20  C   UNL     1       5.857   4.302  18.010  0.00  0.00    +0.000 C 
BRANCH  20  21
ATOM     21  N   UNL     1       4.403   4.476  17.933  0.00  0.00    +0.000 N 
ATOM     22  C   UNL     1       3.695   3.701  16.895  0.00  0.00    +0.000 C 
ATOM     23  C   UNL     1       2.862   2.611  17.582  0.00  0.00    +0.000 C 
ATOM     24  C   UNL     1       2.529   3.363  18.820  0.00  0.00    +0.000 A 
ATOM     25  C   UNL     1       1.343   3.283  19.541  0.00  0.00    +0.000 A 
ATOM     26  C   UNL     1       1.079   4.298  20.451  0.00  0.00    +0.000 A 
ATOM     27  C   UNL     1       2.044   5.293  20.688  0.00  0.00    +0.000 A 
ATOM     28  C   UNL     1       3.285   5.296  20.016  0.00  0.00    +0.000 A 
ATOM     29  C   UNL     1       3.508   4.353  19.027  0.00  0.00    +0.000 A 
ENDBRANCH  20  21
ENDBRANCH   4  20
TORSDOF 5
ENDMDL
MODEL 4
REMARK VINA RESULT:      -8.2      0.774      1.304
REMARK  Name = 
REMARK  7 active torsions:
REMARK  status: ('A' for Active; 'I' for Inactive)
REMARK    1  A    between atoms: C_1  and  N_2
REMARK    2  A    between atoms: N_2  and  C_3
REMARK    3  A    between atoms: N_2  and  C_4
REMARK    4  A    between atoms: C_7  and  N_8
REMARK    5  A    between atoms: C_9  and  C_11
REMARK    6  A    between atoms: C_14  and  C_15
REMARK    7  A    between atoms: C_15  and  N_16
REMARK                            x       y       z     vdW  Elec       q    Type
REMARK                         _______ _______ _______ _____ _____    ______ ____
ROOT
ATOM      1  C   UNL     1       1.788   7.257  20.135  0.00  0.00    +0.000 A 
ATOM      2  C   UNL     1       2.162   7.481  18.793  0.00  0.00    +0.000 A 
ATOM      3  C   UNL     1       2.615   6.439  17.959  0.00  0.00    +0.000 A 
ATOM      4  C   UNL     1       2.723   5.131  18.418  0.00  0.00    +0.000 A 
ATOM      5  C   UNL     1       2.329   4.886  19.757  0.00  0.00    +0.000 A 
ATOM      6  C   UNL     1       1.867   5.945  20.607  0.00  0.00    +0.000 A 
ENDROOT
BRANCH   1   8
ATOM      7  N   UNL     1       0.730   9.554  20.353  0.00  0.00    +0.000 N 
ATOM      8  C   UNL     1       1.429   8.498  20.946  0.00  0.00    +0.000 C 
ATOM      9  O   UNL     1       1.813   8.498  22.116  0.00  0.00    +0.000 OA
ATOM     10  H   UNL     1       0.502   9.486  19.379  0.00  0.00    +0.000 HD
BRANCH   7  14
ATOM     11  C   UNL     1      -0.423  13.346  22.193  0.00  0.00    +0.000 A 
ATOM     12  C   UNL     1      -0.995  12.127  22.581  0.00  0.00    +0.000 A 
ATOM     13  C   UNL     1      -0.632  10.880  21.998  0.00  0.00    +0.000 A 
ATOM     14  C   UNL     1       0.343  10.784  21.007  0.00  0.00    +0.000 A 
ATOM     15  C   UNL     1       0.966  11.984  20.642  0.00  0.00    +0.000 A 
ATOM     16  C   UNL     1       0.586  13.229  21.223  0.00  0.00    +0.000 A 
BRANCH  11  18
ATOM     17  C   UNL     1      -1.357  14.630  24.107  0.00  0.00    +0.000 C 
ATOM     18  N   UNL     1      -0.811  14.569  22.749  0.00  0.00    +0.000 N 
ATOM     19  C   UNL     1      -1.127  15.704  21.883  0.00  0.00    +0.000 C 
ENDBRANCH  11  18
ENDBRANCH   7  14
ENDBRANCH   1   8
BRANCH   4  20
ATOM     20  C   UNL     1       3.276   4.044  17.481  0.00  0.00    +0.000 C 
BRANCH  20  21
ATOM     21  N   UNL     1       4.697   4.264  17.196  0.00  0.00    +0.000 N 
ATOM     22  C   UNL     1       5.058   4.545  15.793  0.00  0.00    +0.000 C 
ATOM     23  C   UNL     1       5.491   6.012  15.684  0.00  0.00    +0.000 C 
ATOM     24  C   UNL     1       6.108   6.140  17.030  0.00  0.00    +0.000 A 
ATOM     25  C   UNL     1       7.219   6.906  17.360  0.00  0.00    +0.000 A 
ATOM     26  C   UNL     1       7.849   6.632  18.567  0.00  0.00    +0.000 A 
ATOM     27  C   UNL     1       7.293   5.686  19.446  0.00  0.00    +0.000 A 
ATOM     28  C   UNL     1       6.105   4.991  19.132  0.00  0.00    +0.000 A 
ATOM     29  C   UNL     1       5.536   5.178  17.884  0.00  0.00    +0.000 A 
ENDBRANCH  20  21
ENDBRANCH   4  20
TORSDOF 5
ENDMDL
MODEL 5
REMARK VINA RESULT:      -8.1      6.217      8.617
REMARK  Name = 
REMARK  7 active torsions:
REMARK  status: ('A' for Active; 'I' for Inactive)
REMARK    1  A    between atoms: C_1  and  N_2
REMARK    2  A    between atoms: N_2  and  C_3
REMARK    3  A    between atoms: N_2  and  C_4
REMARK    4  A    between atoms: C_7  and  N_8
REMARK    5  A    between atoms: C_9  and  C_11
REMARK    6  A    between atoms: C_14  and  C_15
REMARK    7  A    between atoms: C_15  and  N_16
REMARK                            x       y       z     vdW  Elec       q    Type
REMARK                         _______ _______ _______ _____ _____    ______ ____
ROOT
ATOM      1  C   UNL     1       8.121   8.379  18.206  0.00  0.00    +0.000 A 
ATOM      2  C   UNL     1       8.443   7.313  19.072  0.00  0.00    +0.000 A 
ATOM      3  C   UNL     1       7.835   6.047  18.957  0.00  0.00    +0.000 A 
ATOM      4  C   UNL     1       6.879   5.782  17.984  0.00  0.00    +0.000 A 
ATOM      5  C   UNL     1       6.561   6.836  17.092  0.00  0.00    +0.000 A 
ATOM      6  C   UNL     1       7.179   8.125  17.206  0.00  0.00    +0.000 A 
ENDROOT
BRANCH   1   8
ATOM      7  N   UNL     1       8.741  10.763  17.593  0.00  0.00    +0.000 N 
ATOM      8  C   UNL     1       8.773   9.721  18.525  0.00  0.00    +0.000 C 
ATOM      9  O   UNL     1       9.327   9.796  19.622  0.00  0.00    +0.000 OA
ATOM     10  H   UNL     1       8.309  10.592  16.704  0.00  0.00    +0.000 HD
BRANCH   7  14
ATOM     11  C   UNL     1      10.420  14.747  18.235  0.00  0.00    +0.000 A 
ATOM     12  C   UNL     1      11.213  13.659  17.847  0.00  0.00    +0.000 A 
ATOM     13  C   UNL     1      10.688  12.354  17.630  0.00  0.00    +0.000 A 
ATOM     14  C   UNL     1       9.329  12.072  17.767  0.00  0.00    +0.000 A 
ATOM     15  C   UNL     1       8.509  13.157  18.101  0.00  0.00    +0.000 A 
ATOM     16  C   UNL     1       9.048  14.457  18.330  0.00  0.00    +0.000 A 
BRANCH  11  18
ATOM     17  C   UNL     1      10.483  16.814  19.615  0.00  0.00    +0.000 C 
ATOM     18  N   UNL     1      10.951  16.016  18.479  0.00  0.00    +0.000 N 
ATOM     19  C   UNL     1      11.602  16.762  17.402  0.00  0.00    +0.000 C 
ENDBRANCH  11  18
ENDBRANCH   7  14
ENDBRANCH   1   8
BRANCH   4  20
ATOM     20  C   UNL     1       6.208   4.398  17.940  0.00  0.00    +0.000 C 
BRANCH  20  21
ATOM     21  N   UNL     1       4.958   4.391  18.706  0.00  0.00    +0.000 N 
ATOM     22  C   UNL     1       4.354   5.705  19.004  0.00  0.00    +0.000 C 
ATOM     23  C   UNL     1       3.070   5.851  18.177  0.00  0.00    +0.000 C 
ATOM     24  C   UNL     1       2.664   4.422  18.182  0.00  0.00    +0.000 A 
ATOM     25  C   UNL     1       1.364   3.932  18.215  0.00  0.00    +0.000 A 
ATOM     26  C   UNL     1       1.191   2.599  18.562  0.00  0.00    +0.000 A 
ATOM     27  C   UNL     1       2.315   1.777  18.759  0.00  0.00    +0.000 A 
ATOM     28  C   UNL     1       3.629   2.273  18.620  0.00  0.00    +0.000 A 
ATOM     29  C   UNL     1       3.808   3.626  18.385  0.00  0.00    +0.000 A 
ENDBRANCH  20  21
ENDBRANCH   4  20
TORSDOF 5
ENDMDL
MODEL 6
REMARK VINA RESULT:      -8.1      0.841      1.605
REMARK  Name = 
REMARK  7 active torsions:
REMARK  status: ('A' for Active; 'I' for Inactive)
REMARK    1  A    between atoms: C_1  and  N_2
REMARK    2  A    between atoms: N_2  and  C_3
REMARK    3  A    between atoms: N_2  and  C_4
REMARK    4  A    between atoms: C_7  and  N_8
REMARK    5  A    between atoms: C_9  and  C_11
REMARK    6  A    between atoms: C_14  and  C_15
REMARK    7  A    between atoms: C_15  and  N_16
REMARK                            x       y       z     vdW  Elec       q    Type
REMARK                         _______ _______ _______ _____ _____    ______ ____
ROOT
ATOM      1  C   UNL     1       1.811   7.296  20.087  0.00  0.00    +0.000 A 
ATOM      2  C   UNL     1       2.124   7.454  18.720  0.00  0.00    +0.000 A 
ATOM      3  C   UNL     1       2.599   6.386  17.933  0.00  0.00    +0.000 A 
ATOM      4  C   UNL     1       2.790   5.116  18.466  0.00  0.00    +0.000 A 
ATOM      5  C   UNL     1       2.458   4.935  19.831  0.00  0.00    +0.000 A 
ATOM      6  C   UNL     1       1.974   6.021  20.634  0.00  0.00    +0.000 A 
ENDROOT
BRANCH   1   8
ATOM      7  N   UNL     1       0.874   9.654  20.147  0.00  0.00    +0.000 N 
ATOM      8  C   UNL     1       1.420   8.567  20.835  0.00  0.00    +0.000 C 
ATOM      9  O   UNL     1       1.638   8.558  22.047  0.00  0.00    +0.000 OA
ATOM     10  H   UNL     1       0.778   9.587  19.151  0.00  0.00    +0.000 HD
BRANCH   7  14
ATOM     11  C   UNL     1      -0.384  13.383  22.049  0.00  0.00    +0.000 A 
ATOM     12  C   UNL     1       0.762  13.307  21.246  0.00  0.00    +0.000 A 
ATOM     13  C   UNL     1       1.189  12.104  20.615  0.00  0.00    +0.000 A 
ATOM     14  C   UNL     1       0.475  10.913  20.735  0.00  0.00    +0.000 A 
ATOM     15  C   UNL     1      -0.705  10.979  21.488  0.00  0.00    +0.000 A 
ATOM     16  C   UNL     1      -1.116  12.185  22.127  0.00  0.00    +0.000 A 
BRANCH  11  18
ATOM     17  C   UNL     1      -0.238  15.855  22.266  0.00  0.00    +0.000 C 
ATOM     18  N   UNL     1      -0.776  14.560  22.691  0.00  0.00    +0.000 N 
ATOM     19  C   UNL     1      -1.326  14.513  24.046  0.00  0.00    +0.000 C 
ENDBRANCH  11  18
ENDBRANCH   7  14
ENDBRANCH   1   8
BRANCH   4  20
ATOM     20  C   UNL     1       3.363   4.001  17.574  0.00  0.00    +0.000 C 
BRANCH  20  21
ATOM     21  N   UNL     1       4.767   4.259  17.240  0.00  0.00    +0.000 N 
ATOM     22  C   UNL     1       5.069   4.566  15.829  0.00  0.00    +0.000 C 
ATOM     23  C   UNL     1       5.462   6.045  15.724  0.00  0.00    +0.000 C 
ATOM     24  C   UNL     1       6.125   6.171  17.048  0.00  0.00    +0.000 A 
ATOM     25  C   UNL     1       7.229   6.960  17.347  0.00  0.00    +0.000 A 
ATOM     26  C   UNL     1       7.909   6.688  18.527  0.00  0.00    +0.000 A 
ATOM     27  C   UNL     1       7.409   5.717  19.413  0.00  0.00    +0.000 A 
ATOM     28  C   UNL     1       6.228   4.997  19.134  0.00  0.00    +0.000 A 
ATOM     29  C   UNL     1       5.608   5.185  17.910  0.00  0.00    +0.000 A 
ENDBRANCH  20  21
ENDBRANCH   4  20
TORSDOF 5
ENDMDL
MODEL 7
REMARK VINA RESULT:      -8.0      6.125      8.692
REMARK  Name = 
REMARK  7 active torsions:
REMARK  status: ('A' for Active; 'I' for Inactive)
REMARK    1  A    between atoms: C_1  and  N_2
REMARK    2  A    between atoms: N_2  and  C_3
REMARK    3  A    between atoms: N_2  and  C_4
REMARK    4  A    between atoms: C_7  and  N_8
REMARK    5  A    between atoms: C_9  and  C_11
REMARK    6  A    between atoms: C_14  and  C_15
REMARK    7  A    between atoms: C_15  and  N_16
REMARK                            x       y       z     vdW  Elec       q    Type
REMARK                         _______ _______ _______ _____ _____    ______ ____
ROOT
ATOM      1  C   UNL     1       8.210   8.553  18.446  0.00  0.00    +0.000 A 
ATOM      2  C   UNL     1       7.213   8.458  17.452  0.00  0.00    +0.000 A 
ATOM      3  C   UNL     1       6.584   7.237  17.140  0.00  0.00    +0.000 A 
ATOM      4  C   UNL     1       6.917   6.055  17.793  0.00  0.00    +0.000 A 
ATOM      5  C   UNL     1       7.899   6.139  18.811  0.00  0.00    +0.000 A 
ATOM      6  C   UNL     1       8.541   7.381  19.131  0.00  0.00    +0.000 A 
ENDROOT
BRANCH   1   8
ATOM      7  N   UNL     1       8.595  10.946  17.693  0.00  0.00    +0.000 N 
ATOM      8  C   UNL     1       8.882   9.915  18.593  0.00  0.00    +0.000 C 
ATOM      9  O   UNL     1       9.682  10.016  19.522  0.00  0.00    +0.000 OA
ATOM     10  H   UNL     1       7.965  10.755  16.936  0.00  0.00    +0.000 HD
BRANCH   7  14
ATOM     11  C   UNL     1      10.243  14.990  17.879  0.00  0.00    +0.000 A 
ATOM     12  C   UNL     1      11.027  13.882  17.527  0.00  0.00    +0.000 A 
ATOM     13  C   UNL     1      10.511  12.557  17.458  0.00  0.00    +0.000 A 
ATOM     14  C   UNL     1       9.171  12.272  17.715  0.00  0.00    +0.000 A 
ATOM     15  C   UNL     1       8.357  13.372  18.014  0.00  0.00    +0.000 A 
ATOM     16  C   UNL     1       8.887  14.693  18.094  0.00  0.00    +0.000 A 
BRANCH  11  18
ATOM     17  C   UNL     1       9.896  17.417  18.287  0.00  0.00    +0.000 C 
ATOM     18  N   UNL     1      10.767  16.281  17.977  0.00  0.00    +0.000 N 
ATOM     19  C   UNL     1      12.039  16.611  17.334  0.00  0.00    +0.000 C 
ENDBRANCH  11  18
ENDBRANCH   7  14
ENDBRANCH   1   8
BRANCH   4  20
ATOM     20  C   UNL     1       6.236   4.741  17.373  0.00  0.00    +0.000 C 
BRANCH  20  21
ATOM     21  N   UNL     1       5.215   4.340  18.347  0.00  0.00    +0.000 N 
ATOM     22  C   UNL     1       4.859   5.329  19.383  0.00  0.00    +0.000 C 
ATOM     23  C   UNL     1       3.441   5.842  19.102  0.00  0.00    +0.000 C 
ATOM     24  C   UNL     1       2.883   4.587  18.534  0.00  0.00    +0.000 A 
ATOM     25  C   UNL     1       1.580   4.124  18.677  0.00  0.00    +0.000 A 
ATOM     26  C   UNL     1       1.340   2.790  18.378  0.00  0.00    +0.000 A 
ATOM     27  C   UNL     1       2.373   1.994  17.852  0.00  0.00    +0.000 A 
ATOM     28  C   UNL     1       3.664   2.515  17.621  0.00  0.00    +0.000 A 
ATOM     29  C   UNL     1       3.939   3.812  18.020  0.00  0.00    +0.000 A 
ENDBRANCH  20  21
ENDBRANCH   4  20
TORSDOF 5
ENDMDL
MODEL 8
REMARK VINA RESULT:      -7.9      1.075      1.302
REMARK  Name = 
REMARK  7 active torsions:
REMARK  status: ('A' for Active; 'I' for Inactive)
REMARK    1  A    between atoms: C_1  and  N_2
REMARK    2  A    between atoms: N_2  and  C_3
REMARK    3  A    between atoms: N_2  and  C_4
REMARK    4  A    between atoms: C_7  and  N_8
REMARK    5  A    between atoms: C_9  and  C_11
REMARK    6  A    between atoms: C_14  and  C_15
REMARK    7  A    between atoms: C_15  and  N_16
REMARK                            x       y       z     vdW  Elec       q    Type
REMARK                         _______ _______ _______ _____ _____    ______ ____
ROOT
ATOM      1  C   UNL     1       1.613   8.611  19.211  0.00  0.00    +0.000 A 
ATOM      2  C   UNL     1       1.806   7.567  20.140  0.00  0.00    +0.000 A 
ATOM      3  C   UNL     1       2.309   6.308  19.756  0.00  0.00    +0.000 A 
ATOM      4  C   UNL     1       2.637   6.025  18.435  0.00  0.00    +0.000 A 
ATOM      5  C   UNL     1       2.471   7.071  17.494  0.00  0.00    +0.000 A 
ATOM      6  C   UNL     1       1.960   8.353  17.883  0.00  0.00    +0.000 A 
ENDROOT
BRANCH   1   8
ATOM      7  N   UNL     1      -0.091   9.789  20.678  0.00  0.00    +0.000 N 
ATOM      8  C   UNL     1       0.954   9.876  19.753  0.00  0.00    +0.000 C 
ATOM      9  O   UNL     1       1.390  10.936  19.305  0.00  0.00    +0.000 OA
ATOM     10  H   UNL     1      -0.413   8.878  20.948  0.00  0.00    +0.000 HD
BRANCH   7  14
ATOM     11  C   UNL     1      -2.135  13.179  22.530  0.00  0.00    +0.000 A 
ATOM     12  C   UNL     1      -2.155  12.964  21.146  0.00  0.00    +0.000 A 
ATOM     13  C   UNL     1      -1.499  11.866  20.521  0.00  0.00    +0.000 A 
ATOM     14  C   UNL     1      -0.804  10.906  21.255  0.00  0.00    +0.000 A 
ATOM     15  C   UNL     1      -0.817  11.071  22.646  0.00  0.00    +0.000 A 
ATOM     16  C   UNL     1      -1.466  12.182  23.260  0.00  0.00    +0.000 A 
BRANCH  11  18
ATOM     17  C   UNL     1      -2.291  14.780  24.426  0.00  0.00    +0.000 C 
ATOM     18  N   UNL     1      -2.754  14.279  23.130  0.00  0.00    +0.000 N 
ATOM     19  C   UNL     1      -4.117  14.654  22.752  0.00  0.00    +0.000 C 
ENDBRANCH  11  18
ENDBRANCH   7  14
ENDBRANCH   1   8
BRANCH   4  20
ATOM     20  C   UNL     1       3.130   4.616  18.063  0.00  0.00    +0.000 C 
BRANCH  20  21
ATOM     21  N   UNL     1       4.531   4.643  17.631  0.00  0.00    +0.000 N 
ATOM     22  C   UNL     1       4.777   4.780  16.182  0.00  0.00    +0.000 C 
ATOM     23  C   UNL     1       5.360   6.173  15.915  0.00  0.00    +0.000 C 
ATOM     24  C   UNL     1       6.120   6.319  17.183  0.00  0.00    +0.000 A 
ATOM     25  C   UNL     1       7.339   6.967  17.345  0.00  0.00    +0.000 A 
ATOM     26  C   UNL     1       8.053   6.705  18.507  0.00  0.00    +0.000 A 
ATOM     27  C   UNL     1       7.487   5.895  19.507  0.00  0.00    +0.000 A 
ATOM     28  C   UNL     1       6.202   5.329  19.363  0.00  0.00    +0.000 A 
ATOM     29  C   UNL     1       5.533   5.495  18.162  0.00  0.00    +0.000 A 
ENDBRANCH  20  21
ENDBRANCH   4  20
TORSDOF 5
ENDMDL
MODEL 9
REMARK VINA RESULT:      -7.8      1.142      1.203
REMARK  Name = 
REMARK  7 active torsions:
REMARK  status: ('A' for Active; 'I' for Inactive)
REMARK    1  A    between atoms: C_1  and  N_2
REMARK    2  A    between atoms: N_2  and  C_3
REMARK    3  A    between atoms: N_2  and  C_4
REMARK    4  A    between atoms: C_7  and  N_8
REMARK    5  A    between atoms: C_9  and  C_11
REMARK    6  A    between atoms: C_14  and  C_15
REMARK    7  A    between atoms: C_15  and  N_16
REMARK                            x       y       z     vdW  Elec       q    Type
REMARK                         _______ _______ _______ _____ _____    ______ ____
ROOT
ATOM      1  C   UNL     1       1.676   8.438  19.235  0.00  0.00    +0.000 A 
ATOM      2  C   UNL     1       1.873   7.377  20.144  0.00  0.00    +0.000 A 
ATOM      3  C   UNL     1       2.379   6.127  19.735  0.00  0.00    +0.000 A 
ATOM      4  C   UNL     1       2.707   5.871  18.409  0.00  0.00    +0.000 A 
ATOM      5  C   UNL     1       2.537   6.934  17.488  0.00  0.00    +0.000 A 
ATOM      6  C   UNL     1       2.023   8.207  17.901  0.00  0.00    +0.000 A 
ENDROOT
BRANCH   1   8
ATOM      7  N   UNL     1       0.038   9.587  20.797  0.00  0.00    +0.000 N 
ATOM      8  C   UNL     1       1.014   9.691  19.801  0.00  0.00    +0.000 C 
ATOM      9  O   UNL     1       1.384  10.756  19.309  0.00  0.00    +0.000 OA
ATOM     10  H   UNL     1      -0.234   8.671  21.102  0.00  0.00    +0.000 HD
BRANCH   7  14
ATOM     11  C   UNL     1      -2.206  12.918  22.519  0.00  0.00    +0.000 A 
ATOM     12  C   UNL     1      -1.565  11.961  23.318  0.00  0.00    +0.000 A 
ATOM     13  C   UNL     1      -0.826  10.870  22.778  0.00  0.00    +0.000 A 
ATOM     14  C   UNL     1      -0.670  10.691  21.405  0.00  0.00    +0.000 A 
ATOM     15  C   UNL     1      -1.258  11.666  20.589  0.00  0.00    +0.000 A 
ATOM     16  C   UNL     1      -2.006  12.747  21.139  0.00  0.00    +0.000 A 
BRANCH  11  18
ATOM     17  C   UNL     1      -3.875  13.727  24.175  0.00  0.00    +0.000 C 
ATOM     18  N   UNL     1      -2.957  13.966  23.059  0.00  0.00    +0.000 N 
ATOM     19  C   UNL     1      -3.213  15.171  22.270  0.00  0.00    +0.000 C 
ENDBRANCH  11  18
ENDBRANCH   7  14
ENDBRANCH   1   8
BRANCH   4  20
ATOM     20  C   UNL     1       3.204   4.470  18.010  0.00  0.00    +0.000 C 
BRANCH  20  21
ATOM     21  N   UNL     1       4.618   4.501  17.621  0.00  0.00    +0.000 N 
ATOM     22  C   UNL     1       4.907   4.579  16.176  0.00  0.00    +0.000 C 
ATOM     23  C   UNL     1       5.477   5.969  15.866  0.00  0.00    +0.000 C 
ATOM     24  C   UNL     1       6.195   6.183  17.150  0.00  0.00    +0.000 A 
ATOM     25  C   UNL     1       7.398   6.857  17.322  0.00  0.00    +0.000 A 
ATOM     26  C   UNL     1       8.078   6.656  18.515  0.00  0.00    +0.000 A 
ATOM     27  C   UNL     1       7.492   5.882  19.532  0.00  0.00    +0.000 A 
ATOM     28  C   UNL     1       6.221   5.289  19.373  0.00  0.00    +0.000 A 
ATOM     29  C   UNL     1       5.589   5.392  18.145  0.00  0.00    +0.000 A 
ENDBRANCH  20  21
ENDBRANCH   4  20
TORSDOF 5
ENDMDL
