MODEL 1
REMARK VINA RESULT:      -7.6      0.000      0.000
REMARK  Name = 
REMARK  8 active torsions:
REMARK  status: ('A' for Active; 'I' for Inactive)
REMARK    1  A    between atoms: C_1  and  C_2
REMARK    2  A    between atoms: C_4  and  C_5
REMARK    3  A    between atoms: C_5  and  N_6
REMARK    4  A    between atoms: N_6  and  C_7
REMARK    5  A    between atoms: N_6  and  C_8
REMARK    6  A    between atoms: N_12  and  C_13
REMARK    7  A    between atoms: C_13  and  C_14
REMARK    8  A    between atoms: C_17  and  C_18
REMARK                            x       y       z     vdW  Elec       q    Type
REMARK                         _______ _______ _______ _____ _____    ______ ____
ROOT
ATOM      1  C   UNL     1       5.159   4.299  18.894  0.00  0.00    +0.000 C 
ATOM      2  C   UNL     1       4.275   3.233  18.215  0.00  0.00    +0.000 C 
ATOM      3  C   UNL     1       3.156   3.823  17.383  0.00  0.00    +0.000 C 
ATOM      4  C   UNL     1       2.318   4.790  18.213  0.00  0.00    +0.000 C 
ATOM      5  N   UNL     1       3.113   5.880  18.795  0.00  0.00    +0.000 NA
ATOM      6  C   UNL     1       4.249   5.369  19.590  0.00  0.00    +0.000 C 
ENDROOT
BRANCH   1   7
ATOM      7  N   UNL     1       6.290   4.852  18.098  0.00  0.00    +0.000 NA
ATOM      8  C   UNL     1       7.330   5.500  18.900  0.00  0.00    +0.000 C 
BRANCH   7   9
ATOM      9  C   UNL     1       5.796   5.743  17.022  0.00  0.00    +0.000 C 
BRANCH   9  13
ATOM     10  C   UNL     1       6.613   3.672  12.433  0.00  0.00    +0.000 C 
ATOM     11  C   UNL     1       6.620   4.471  13.676  0.00  0.00    +0.000 A 
ATOM     12  C   UNL     1       5.618   4.561  14.668  0.00  0.00    +0.000 A 
ATOM     13  C   UNL     1       6.192   5.325  15.654  0.00  0.00    +0.000 A 
ATOM     14  O   UNL     1       7.420   5.738  15.238  0.00  0.00    +0.000 OA
ATOM     15  N   UNL     1       7.691   5.207  13.993  0.00  0.00    +0.000 NA
ENDBRANCH   9  13
ENDBRANCH   7   9
ENDBRANCH   1   7
BRANCH   5  16
ATOM     16  C   UNL     1       2.257   6.762  19.646  0.00  0.00    +0.000 C 
BRANCH  16  17
ATOM     17  C   UNL     1       2.066   8.116  19.024  0.00  0.00    +0.000 A 
ATOM     18  N   UNL     1       2.510   8.433  17.800  0.00  0.00    +0.000 NA
ATOM     19  O   UNL     1       1.885   9.658  17.545  0.00  0.00    +0.000 OA
ATOM     20  C   UNL     1       1.148   9.956  18.654  0.00  0.00    +0.000 A 
ATOM     21  C   UNL     1       0.230  11.103  18.568  0.00  0.00    +0.000 C 
ATOM     22  N   UNL     1       1.289   9.084  19.624  0.00  0.00    +0.000 NA
ENDBRANCH  16  17
ENDBRANCH   5  16
TORSDOF 5
ENDMDL
MODEL 2
REMARK VINA RESULT:      -7.3      1.261      1.448
REMARK  Name = 
REMARK  8 active torsions:
REMARK  status: ('A' for Active; 'I' for Inactive)
REMARK    1  A    between atoms: C_1  and  C_2
REMARK    2  A    between atoms: C_4  and  C_5
REMARK    3  A    between atoms: C_5  and  N_6
REMARK    4  A    between atoms: N_6  and  C_7
REMARK    5  A    between atoms: N_6  and  C_8
REMARK    6  A    between atoms: N_12  and  C_13
REMARK    7  A    between atoms: C_13  and  C_14
REMARK    8  A    between atoms: C_17  and  C_18
REMARK                            x       y       z     vdW  Elec       q    Type
REMARK                         _______ _______ _______ _____ _____    ______ ____
ROOT
ATOM      1  C   UNL     1       4.862   4.451  18.745  0.00  0.00    +0.000 C 
ATOM      2  C   UNL     1       4.033   3.391  17.992  0.00  0.00    +0.000 C 
ATOM      3  C   UNL     1       2.686   3.903  17.526  0.00  0.00    +0.000 C 
ATOM      4  C   UNL     1       1.900   4.495  18.692  0.00  0.00    +0.000 C 
ATOM      5  N   UNL     1       2.620   5.580  19.372  0.00  0.00    +0.000 NA
ATOM      6  C   UNL     1       3.963   5.154  19.819  0.00  0.00    +0.000 C 
ENDROOT
BRANCH   1   7
ATOM      7  N   UNL     1       5.700   5.367  17.924  0.00  0.00    +0.000 NA
ATOM      8  C   UNL     1       4.954   6.130  16.922  0.00  0.00    +0.000 C 
BRANCH   7   9
ATOM      9  C   UNL     1       6.843   4.643  17.318  0.00  0.00    +0.000 C 
BRANCH   9  13
ATOM     10  C   UNL     1       6.466   3.651  12.329  0.00  0.00    +0.000 C 
ATOM     11  C   UNL     1       6.706   4.220  13.671  0.00  0.00    +0.000 A 
ATOM     12  C   UNL     1       6.152   3.816  14.907  0.00  0.00    +0.000 A 
ATOM     13  C   UNL     1       6.811   4.585  15.835  0.00  0.00    +0.000 A 
ATOM     14  O   UNL     1       7.636   5.452  15.188  0.00  0.00    +0.000 OA
ATOM     15  N   UNL     1       7.569   5.229  13.827  0.00  0.00    +0.000 NA
ENDBRANCH   9  13
ENDBRANCH   7   9
ENDBRANCH   1   7
BRANCH   5  16
ATOM     16  C   UNL     1       1.835   6.083  20.541  0.00  0.00    +0.000 C 
BRANCH  16  17
ATOM     17  C   UNL     1       1.582   7.561  20.444  0.00  0.00    +0.000 A 
ATOM     18  N   UNL     1       1.848   8.282  19.347  0.00  0.00    +0.000 NA
ATOM     19  O   UNL     1       1.216   9.502  19.611  0.00  0.00    +0.000 OA
ATOM     20  C   UNL     1       0.656   9.389  20.850  0.00  0.00    +0.000 A 
ATOM     21  C   UNL     1      -0.241  10.470  21.287  0.00  0.00    +0.000 C 
ATOM     22  N   UNL     1       0.920   8.247  21.440  0.00  0.00    +0.000 NA
ENDBRANCH  16  17
ENDBRANCH   5  16
TORSDOF 5
ENDMDL
MODEL 3
REMARK VINA RESULT:      -7.2      1.926      3.074
REMARK  Name = 
REMARK  8 active torsions:
REMARK  status: ('A' for Active; 'I' for Inactive)
REMARK    1  A    between atoms: C_1  and  C_2
REMARK    2  A    between atoms: C_4  and  C_5
REMARK    3  A    between atoms: C_5  and  N_6
REMARK    4  A    between atoms: N_6  and  C_7
REMARK    5  A    between atoms: N_6  and  C_8
REMARK    6  A    between atoms: N_12  and  C_13
REMARK    7  A    between atoms: C_13  and  C_14
REMARK    8  A    between atoms: C_17  and  C_18
REMARK                            x       y       z     vdW  Elec       q    Type
REMARK                         _______ _______ _______ _____ _____    ______ ____
ROOT
ATOM      1  C   UNL     1       4.518   3.645  18.295  0.00  0.00    +0.000 C 
ATOM      2  C   UNL     1       3.370   2.829  17.666  0.00  0.00    +0.000 C 
ATOM      3  C   UNL     1       2.131   3.654  17.385  0.00  0.00    +0.000 C 
ATOM      4  C   UNL     1       1.669   4.380  18.644  0.00  0.00    +0.000 C 
ATOM      5  N   UNL     1       2.707   5.248  19.216  0.00  0.00    +0.000 NA
ATOM      6  C   UNL     1       3.960   4.509  19.478  0.00  0.00    +0.000 C 
ENDROOT
BRANCH   1   7
ATOM      7  N   UNL     1       5.431   4.363  17.363  0.00  0.00    +0.000 NA
ATOM      8  C   UNL     1       5.609   3.704  16.068  0.00  0.00    +0.000 C 
BRANCH   7   9
ATOM      9  C   UNL     1       6.731   4.653  18.012  0.00  0.00    +0.000 C 
BRANCH   9  13
ATOM     10  C   UNL     1       8.536   9.414  18.320  0.00  0.00    +0.000 C 
ATOM     11  C   UNL     1       7.910   8.132  17.936  0.00  0.00    +0.000 A 
ATOM     12  C   UNL     1       8.101   6.855  18.511  0.00  0.00    +0.000 A 
ATOM     13  C   UNL     1       7.185   6.060  17.868  0.00  0.00    +0.000 A 
ATOM     14  O   UNL     1       6.554   6.793  16.911  0.00  0.00    +0.000 OA
ATOM     15  N   UNL     1       7.011   8.094  16.947  0.00  0.00    +0.000 NA
ENDBRANCH   9  13
ENDBRANCH   7   9
ENDBRANCH   1   7
BRANCH   5  16
ATOM     16  C   UNL     1       2.226   5.888  20.478  0.00  0.00    +0.000 C 
BRANCH  16  17
ATOM     17  C   UNL     1       1.923   7.347  20.280  0.00  0.00    +0.000 A 
ATOM     18  N   UNL     1       2.109   7.985  19.117  0.00  0.00    +0.000 NA
ATOM     19  O   UNL     1       1.455   9.205  19.319  0.00  0.00    +0.000 OA
ATOM     20  C   UNL     1       0.964   9.176  20.592  0.00  0.00    +0.000 A 
ATOM     21  C   UNL     1       0.058  10.265  20.992  0.00  0.00    +0.000 C 
ATOM     22  N   UNL     1       1.293   8.093  21.254  0.00  0.00    +0.000 NA
ENDBRANCH  16  17
ENDBRANCH   5  16
TORSDOF 5
ENDMDL
MODEL 4
REMARK VINA RESULT:      -6.9      1.150      1.488
REMARK  Name = 
REMARK  8 active torsions:
REMARK  status: ('A' for Active; 'I' for Inactive)
REMARK    1  A    between atoms: C_1  and  C_2
REMARK    2  A    between atoms: C_4  and  C_5
REMARK    3  A    between atoms: C_5  and  N_6
REMARK    4  A    between atoms: N_6  and  C_7
REMARK    5  A    between atoms: N_6  and  C_8
REMARK    6  A    between atoms: N_12  and  C_13
REMARK    7  A    between atoms: C_13  and  C_14
REMARK    8  A    between atoms: C_17  and  C_18
REMARK                            x       y       z     vdW  Elec       q    Type
REMARK                         _______ _______ _______ _____ _____    ______ ____
ROOT
ATOM      1  C   UNL     1       4.962   4.652  18.659  0.00  0.00    +0.000 C 
ATOM      2  C   UNL     1       4.110   3.593  17.931  0.00  0.00    +0.000 C 
ATOM      3  C   UNL     1       2.753   4.107  17.498  0.00  0.00    +0.000 C 
ATOM      4  C   UNL     1       2.000   4.706  18.682  0.00  0.00    +0.000 C 
ATOM      5  N   UNL     1       2.740   5.791  19.339  0.00  0.00    +0.000 NA
ATOM      6  C   UNL     1       4.093   5.363  19.753  0.00  0.00    +0.000 C 
ENDROOT
BRANCH   1   7
ATOM      7  N   UNL     1       5.781   5.563  17.813  0.00  0.00    +0.000 NA
ATOM      8  C   UNL     1       5.013   6.314  16.818  0.00  0.00    +0.000 C 
BRANCH   7   9
ATOM      9  C   UNL     1       6.914   4.836  17.192  0.00  0.00    +0.000 C 
BRANCH   9  13
ATOM     10  C   UNL     1       6.261   3.479  12.319  0.00  0.00    +0.000 C 
ATOM     11  C   UNL     1       6.573   4.145  13.599  0.00  0.00    +0.000 A 
ATOM     12  C   UNL     1       6.092   3.833  14.891  0.00  0.00    +0.000 A 
ATOM     13  C   UNL     1       6.799   4.669  15.721  0.00  0.00    +0.000 A 
ATOM     14  O   UNL     1       7.582   5.487  14.966  0.00  0.00    +0.000 OA
ATOM     15  N   UNL     1       7.439   5.164  13.632  0.00  0.00    +0.000 NA
ENDBRANCH   9  13
ENDBRANCH   7   9
ENDBRANCH   1   7
BRANCH   5  16
ATOM     16  C   UNL     1       1.987   6.301  20.526  0.00  0.00    +0.000 C 
BRANCH  16  17
ATOM     17  C   UNL     1       1.531   7.719  20.326  0.00  0.00    +0.000 A 
ATOM     18  N   UNL     1       1.206   8.537  21.337  0.00  0.00    +0.000 NA
ATOM     19  O   UNL     1       1.115   9.786  20.715  0.00  0.00    +0.000 OA
ATOM     20  C   UNL     1       1.375   9.580  19.391  0.00  0.00    +0.000 A 
ATOM     21  C   UNL     1       1.538  10.770  18.541  0.00  0.00    +0.000 C 
ATOM     22  N   UNL     1       1.555   8.318  19.085  0.00  0.00    +0.000 NA
ENDBRANCH  16  17
ENDBRANCH   5  16
TORSDOF 5
ENDMDL
MODEL 5
REMARK VINA RESULT:      -6.9      0.791      1.015
REMARK  Name = 
REMARK  8 active torsions:
REMARK  status: ('A' for Active; 'I' for Inactive)
REMARK    1  A    between atoms: C_1  and  C_2
REMARK    2  A    between atoms: C_4  and  C_5
REMARK    3  A    between atoms: C_5  and  N_6
REMARK    4  A    between atoms: N_6  and  C_7
REMARK    5  A    between atoms: N_6  and  C_8
REMARK    6  A    between atoms: N_12  and  C_13
REMARK    7  A    between atoms: C_13  and  C_14
REMARK    8  A    between atoms: C_17  and  C_18
REMARK                            x       y       z     vdW  Elec       q    Type
REMARK                         _______ _______ _______ _____ _____    ______ ____
ROOT
ATOM      1  C   UNL     1       5.489   5.264  19.058  0.00  0.00    +0.000 C 
ATOM      2  C   UNL     1       5.186   3.754  18.981  0.00  0.00    +0.000 C 
ATOM      3  C   UNL     1       4.071   3.414  18.014  0.00  0.00    +0.000 C 
ATOM      4  C   UNL     1       2.814   4.216  18.336  0.00  0.00    +0.000 C 
ATOM      5  N   UNL     1       3.042   5.666  18.318  0.00  0.00    +0.000 NA
ATOM      6  C   UNL     1       4.148   6.061  19.215  0.00  0.00    +0.000 C 
ENDROOT
BRANCH   1   7
ATOM      7  N   UNL     1       6.439   5.818  18.054  0.00  0.00    +0.000 NA
ATOM      8  C   UNL     1       5.827   6.726  17.083  0.00  0.00    +0.000 C 
BRANCH   7   9
ATOM      9  C   UNL     1       7.198   4.735  17.386  0.00  0.00    +0.000 C 
BRANCH   9  13
ATOM     10  C   UNL     1       6.035   3.561  12.560  0.00  0.00    +0.000 C 
ATOM     11  C   UNL     1       6.494   4.173  13.823  0.00  0.00    +0.000 A 
ATOM     12  C   UNL     1       6.121   3.841  15.145  0.00  0.00    +0.000 A 
ATOM     13  C   UNL     1       6.939   4.619  15.928  0.00  0.00    +0.000 A 
ATOM     14  O   UNL     1       7.685   5.426  15.126  0.00  0.00    +0.000 OA
ATOM     15  N   UNL     1       7.405   5.152  13.802  0.00  0.00    +0.000 NA
ENDBRANCH   9  13
ENDBRANCH   7   9
ENDBRANCH   1   7
BRANCH   5  16
ATOM     16  C   UNL     1       1.798   6.402  18.698  0.00  0.00    +0.000 C 
BRANCH  16  17
ATOM     17  C   UNL     1       1.950   7.885  18.506  0.00  0.00    +0.000 A 
ATOM     18  N   UNL     1       2.437   8.436  17.386  0.00  0.00    +0.000 NA
ATOM     19  O   UNL     1       2.143   9.794  17.548  0.00  0.00    +0.000 OA
ATOM     20  C   UNL     1       1.529   9.915  18.761  0.00  0.00    +0.000 A 
ATOM     21  C   UNL     1       0.936  11.221  19.091  0.00  0.00    +0.000 C 
ATOM     22  N   UNL     1       1.459   8.787  19.426  0.00  0.00    +0.000 NA
ENDBRANCH  16  17
ENDBRANCH   5  16
TORSDOF 5
ENDMDL
MODEL 6
REMARK VINA RESULT:      -6.8      2.288      7.039
REMARK  Name = 
REMARK  8 active torsions:
REMARK  status: ('A' for Active; 'I' for Inactive)
REMARK    1  A    between atoms: C_1  and  C_2
REMARK    2  A    between atoms: C_4  and  C_5
REMARK    3  A    between atoms: C_5  and  N_6
REMARK    4  A    between atoms: N_6  and  C_7
REMARK    5  A    between atoms: N_6  and  C_8
REMARK    6  A    between atoms: N_12  and  C_13
REMARK    7  A    between atoms: C_13  and  C_14
REMARK    8  A    between atoms: C_17  and  C_18
REMARK                            x       y       z     vdW  Elec       q    Type
REMARK                         _______ _______ _______ _____ _____    ______ ____
ROOT
ATOM      1  C   UNL     1       2.214   5.603  18.208  0.00  0.00    +0.000 C 
ATOM      2  C   UNL     1       1.738   4.557  19.237  0.00  0.00    +0.000 C 
ATOM      3  C   UNL     1       2.806   4.167  20.236  0.00  0.00    +0.000 C 
ATOM      4  C   UNL     1       4.071   3.703  19.521  0.00  0.00    +0.000 C 
ATOM      5  N   UNL     1       4.613   4.716  18.605  0.00  0.00    +0.000 NA
ATOM      6  C   UNL     1       3.603   5.168  17.625  0.00  0.00    +0.000 C 
ENDROOT
BRANCH   1   7
ATOM      7  N   UNL     1       2.113   7.036  18.599  0.00  0.00    +0.000 NA
ATOM      8  C   UNL     1       3.024   7.923  17.874  0.00  0.00    +0.000 C 
BRANCH   7   9
ATOM      9  C   UNL     1       2.247   7.198  20.066  0.00  0.00    +0.000 C 
BRANCH   9  13
ATOM     10  C   UNL     1      -0.685  10.464  22.664  0.00  0.00    +0.000 C 
ATOM     11  C   UNL     1       0.153   9.748  21.680  0.00  0.00    +0.000 A 
ATOM     12  C   UNL     1       1.015   8.650  21.896  0.00  0.00    +0.000 A 
ATOM     13  C   UNL     1       1.433   8.302  20.635  0.00  0.00    +0.000 A 
ATOM     14  O   UNL     1       0.927   9.190  19.737  0.00  0.00    +0.000 OA
ATOM     15  N   UNL     1       0.125  10.104  20.392  0.00  0.00    +0.000 NA
ENDBRANCH   9  13
ENDBRANCH   7   9
ENDBRANCH   1   7
BRANCH   5  16
ATOM     16  C   UNL     1       5.813   4.190  17.886  0.00  0.00    +0.000 C 
BRANCH  16  17
ATOM     17  C   UNL     1       6.759   5.294  17.505  0.00  0.00    +0.000 A 
ATOM     18  N   UNL     1       7.261   5.439  16.271  0.00  0.00    +0.000 NA
ATOM     19  O   UNL     1       7.845   6.709  16.315  0.00  0.00    +0.000 OA
ATOM     20  C   UNL     1       7.649   7.182  17.581  0.00  0.00    +0.000 A 
ATOM     21  C   UNL     1       7.997   8.589  17.838  0.00  0.00    +0.000 C 
ATOM     22  N   UNL     1       7.061   6.320  18.375  0.00  0.00    +0.000 NA
ENDBRANCH  16  17
ENDBRANCH   5  16
TORSDOF 5
ENDMDL
MODEL 7
REMARK VINA RESULT:      -6.8      1.829      6.319
REMARK  Name = 
REMARK  8 active torsions:
REMARK  status: ('A' for Active; 'I' for Inactive)
REMARK    1  A    between atoms: C_1  and  C_2
REMARK    2  A    between atoms: C_4  and  C_5
REMARK    3  A    between atoms: C_5  and  N_6
REMARK    4  A    between atoms: N_6  and  C_7
REMARK    5  A    between atoms: N_6  and  C_8
REMARK    6  A    between atoms: N_12  and  C_13
REMARK    7  A    between atoms: C_13  and  C_14
REMARK    8  A    between atoms: C_17  and  C_18
REMARK                            x       y       z     vdW  Elec       q    Type
REMARK                         _______ _______ _______ _____ _____    ______ ____
ROOT
ATOM      1  C   UNL     1       2.145   4.253  18.512  0.00  0.00    +0.000 C 
ATOM      2  C   UNL     1       1.711   2.773  18.549  0.00  0.00    +0.000 C 
ATOM      3  C   UNL     1       2.876   1.806  18.544  0.00  0.00    +0.000 C 
ATOM      4  C   UNL     1       3.803   2.083  17.365  0.00  0.00    +0.000 C 
ATOM      5  N   UNL     1       4.318   3.459  17.354  0.00  0.00    +0.000 NA
ATOM      6  C   UNL     1       3.227   4.455  17.396  0.00  0.00    +0.000 C 
ENDROOT
BRANCH   1   7
ATOM      7  N   UNL     1       2.452   4.904  19.816  0.00  0.00    +0.000 NA
ATOM      8  C   UNL     1       1.286   5.105  20.678  0.00  0.00    +0.000 C 
BRANCH   7   9
ATOM      9  C   UNL     1       3.206   6.164  19.616  0.00  0.00    +0.000 C 
BRANCH   9  13
ATOM     10  C   UNL     1       0.701  10.427  18.364  0.00  0.00    +0.000 C 
ATOM     11  C   UNL     1       1.253   9.215  19.002  0.00  0.00    +0.000 A 
ATOM     12  C   UNL     1       1.961   8.151  18.400  0.00  0.00    +0.000 A 
ATOM     13  C   UNL     1       2.351   7.368  19.459  0.00  0.00    +0.000 A 
ATOM     14  O   UNL     1       1.832   7.882  20.607  0.00  0.00    +0.000 OA
ATOM     15  N   UNL     1       1.137   9.040  20.323  0.00  0.00    +0.000 NA
ENDBRANCH   9  13
ENDBRANCH   7   9
ENDBRANCH   1   7
BRANCH   5  16
ATOM     16  C   UNL     1       5.169   3.695  16.148  0.00  0.00    +0.000 C 
BRANCH  16  17
ATOM     17  C   UNL     1       6.267   4.683  16.429  0.00  0.00    +0.000 A 
ATOM     18  N   UNL     1       6.765   5.512  15.502  0.00  0.00    +0.000 NA
ATOM     19  O   UNL     1       7.536   6.402  16.256  0.00  0.00    +0.000 OA
ATOM     20  C   UNL     1       7.436   5.997  17.556  0.00  0.00    +0.000 A 
ATOM     21  C   UNL     1       7.998   6.885  18.586  0.00  0.00    +0.000 C 
ATOM     22  N   UNL     1       6.735   4.898  17.707  0.00  0.00    +0.000 NA
ENDBRANCH  16  17
ENDBRANCH   5  16
TORSDOF 5
ENDMDL
MODEL 8
REMARK VINA RESULT:      -6.8      2.578      4.599
REMARK  Name = 
REMARK  8 active torsions:
REMARK  status: ('A' for Active; 'I' for Inactive)
REMARK    1  A    between atoms: C_1  and  C_2
REMARK    2  A    between atoms: C_4  and  C_5
REMARK    3  A    between atoms: C_5  and  N_6
REMARK    4  A    between atoms: N_6  and  C_7
REMARK    5  A    between atoms: N_6  and  C_8
REMARK    6  A    between atoms: N_12  and  C_13
REMARK    7  A    between atoms: C_13  and  C_14
REMARK    8  A    between atoms: C_17  and  C_18
REMARK                            x       y       z     vdW  Elec       q    Type
REMARK                         _______ _______ _______ _____ _____    ______ ____
ROOT
ATOM      1  C   UNL     1       4.871   6.126  16.817  0.00  0.00    +0.000 C 
ATOM      2  C   UNL     1       4.145   7.479  16.673  0.00  0.00    +0.000 C 
ATOM      3  C   UNL     1       3.330   7.856  17.892  0.00  0.00    +0.000 C 
ATOM      4  C   UNL     1       2.355   6.740  18.255  0.00  0.00    +0.000 C 
ATOM      5  N   UNL     1       3.024   5.455  18.500  0.00  0.00    +0.000 NA
ATOM      6  C   UNL     1       3.870   5.048  17.358  0.00  0.00    +0.000 C 
ENDROOT
BRANCH   1   7
ATOM      7  N   UNL     1       6.205   6.138  17.478  0.00  0.00    +0.000 NA
ATOM      8  C   UNL     1       6.893   7.429  17.423  0.00  0.00    +0.000 C 
BRANCH   7   9
ATOM      9  C   UNL     1       7.062   5.042  16.966  0.00  0.00    +0.000 C 
BRANCH   9  13
ATOM     10  C   UNL     1       6.336   3.385  12.197  0.00  0.00    +0.000 C 
ATOM     11  C   UNL     1       6.661   4.132  13.429  0.00  0.00    +0.000 A 
ATOM     12  C   UNL     1       6.214   3.888  14.747  0.00  0.00    +0.000 A 
ATOM     13  C   UNL     1       6.920   4.785  15.511  0.00  0.00    +0.000 A 
ATOM     14  O   UNL     1       7.670   5.572  14.692  0.00  0.00    +0.000 OA
ATOM     15  N   UNL     1       7.506   5.168  13.383  0.00  0.00    +0.000 NA
ENDBRANCH   9  13
ENDBRANCH   7   9
ENDBRANCH   1   7
BRANCH   5  16
ATOM     16  C   UNL     1       2.022   4.385  18.792  0.00  0.00    +0.000 C 
BRANCH  16  17
ATOM     17  C   UNL     1       2.687   3.078  19.122  0.00  0.00    +0.000 A 
ATOM     18  N   UNL     1       2.711   2.032  18.285  0.00  0.00    +0.000 NA
ATOM     19  O   UNL     1       3.640   1.173  18.880  0.00  0.00    +0.000 OA
ATOM     20  C   UNL     1       4.059   1.787  20.025  0.00  0.00    +0.000 A 
ATOM     21  C   UNL     1       5.191   1.180  20.742  0.00  0.00    +0.000 C 
ATOM     22  N   UNL     1       3.444   2.921  20.264  0.00  0.00    +0.000 NA
ENDBRANCH  16  17
ENDBRANCH   5  16
TORSDOF 5
ENDMDL
MODEL 9
REMARK VINA RESULT:      -6.7      1.574      2.137
REMARK  Name = 
REMARK  8 active torsions:
REMARK  status: ('A' for Active; 'I' for Inactive)
REMARK    1  A    between atoms: C_1  and  C_2
REMARK    2  A    between atoms: C_4  and  C_5
REMARK    3  A    between atoms: C_5  and  N_6
REMARK    4  A    between atoms: N_6  and  C_7
REMARK    5  A    between atoms: N_6  and  C_8
REMARK    6  A    between atoms: N_12  and  C_13
REMARK    7  A    between atoms: C_13  and  C_14
REMARK    8  A    between atoms: C_17  and  C_18
REMARK                            x       y       z     vdW  Elec       q    Type
REMARK                         _______ _______ _______ _____ _____    ______ ____
ROOT
ATOM      1  C   UNL     1       3.251   4.307  19.670  0.00  0.00    +0.000 C 
ATOM      2  C   UNL     1       1.830   3.892  19.236  0.00  0.00    +0.000 C 
ATOM      3  C   UNL     1       1.458   4.382  17.852  0.00  0.00    +0.000 C 
ATOM      4  C   UNL     1       1.652   5.891  17.744  0.00  0.00    +0.000 C 
ATOM      5  N   UNL     1       3.024   6.314  18.052  0.00  0.00    +0.000 NA
ATOM      6  C   UNL     1       3.463   5.833  19.379  0.00  0.00    +0.000 C 
ENDROOT
BRANCH   1   7
ATOM      7  N   UNL     1       4.374   3.422  19.254  0.00  0.00    +0.000 NA
ATOM      8  C   UNL     1       4.571   2.255  20.116  0.00  0.00    +0.000 C 
BRANCH   7   9
ATOM      9  C   UNL     1       5.627   4.196  19.089  0.00  0.00    +0.000 C 
BRANCH   9  13
ATOM     10  C   UNL     1       6.493   4.209  14.062  0.00  0.00    +0.000 C 
ATOM     11  C   UNL     1       6.534   4.351  15.532  0.00  0.00    +0.000 A 
ATOM     12  C   UNL     1       5.467   4.254  16.453  0.00  0.00    +0.000 A 
ATOM     13  C   UNL     1       6.078   4.332  17.681  0.00  0.00    +0.000 A 
ATOM     14  O   UNL     1       7.409   4.552  17.501  0.00  0.00    +0.000 OA
ATOM     15  N   UNL     1       7.699   4.570  16.152  0.00  0.00    +0.000 NA
ENDBRANCH   9  13
ENDBRANCH   7   9
ENDBRANCH   1   7
BRANCH   5  16
ATOM     16  C   UNL     1       3.145   7.803  17.990  0.00  0.00    +0.000 C 
BRANCH  16  17
ATOM     17  C   UNL     1       1.942   8.482  18.583  0.00  0.00    +0.000 A 
ATOM     18  N   UNL     1       1.650   8.452  19.890  0.00  0.00    +0.000 NA
ATOM     19  O   UNL     1       0.641   9.413  20.011  0.00  0.00    +0.000 OA
ATOM     20  C   UNL     1       0.420   9.902  18.756  0.00  0.00    +0.000 A 
ATOM     21  C   UNL     1      -0.462  11.074  18.633  0.00  0.00    +0.000 C 
ATOM     22  N   UNL     1       1.134   9.307  17.830  0.00  0.00    +0.000 NA
ENDBRANCH  16  17
ENDBRANCH   5  16
TORSDOF 5
ENDMDL
