MODEL 1
REMARK VINA RESULT:      -8.1      0.000      0.000
REMARK  Name = 
REMARK  11 active torsions:
REMARK  status: ('A' for Active; 'I' for Inactive)
REMARK    1  A    between atoms: C_4  and  C_5
REMARK    2  A    between atoms: C_10  and  C_11
REMARK    3  A    between atoms: C_12  and  C_13
REMARK    4  A    between atoms: C_15  and  C_16
REMARK    5  A    between atoms: C_16  and  C_17
REMARK    6  A    between atoms: C_17  and  C_18
REMARK    7  A    between atoms: C_17  and  C_19
REMARK    8  A    between atoms: C_17  and  O_20
REMARK    9  A    between atoms: C_27  and  O_28
REMARK   10  A    between atoms: C_29  and  C_30
REMARK   11  A    between atoms: C_31  and  O_32
REMARK                            x       y       z     vdW  Elec       q    Type
REMARK                         _______ _______ _______ _____ _____    ______ ____
ROOT
ATOM      1  C   UNL     1       0.851   7.874  20.315  0.00  0.00    +0.000 C 
ATOM      2  C   UNL     1      -0.002   8.739  20.894  0.00  0.00    +0.000 C 
ATOM      3  C   UNL     1      -0.396   8.699  22.366  0.00  0.00    +0.000 C 
ATOM      4  C   UNL     1      -0.275  10.053  23.074  0.00  0.00    +0.000 C 
ATOM      5  C   UNL     1      -0.813  11.222  22.252  0.00  0.00    +0.000 C 
ATOM      6  C   UNL     1      -0.220  11.261  20.825  0.00  0.00    +0.000 C 
ATOM      7  C   UNL     1       1.318  11.443  20.841  0.00  0.00    +0.000 C 
ATOM      8  C   UNL     1      -0.904  12.300  19.889  0.00  0.00    +0.000 C 
ATOM      9  C   UNL     1      -0.805  11.648  18.475  0.00  0.00    +0.000 C 
ATOM     10  C   UNL     1      -0.388  10.178  18.674  0.00  0.00    +0.000 C 
ATOM     11  C   UNL     1      -0.630   9.914  20.160  0.00  0.00    +0.000 C 
ENDROOT
BRANCH   1  15
ATOM     12  C   UNL     1       2.555   6.317  18.087  0.00  0.00    +0.000 C 
ATOM     13  C   UNL     1       2.041   5.417  18.942  0.00  0.00    +0.000 C 
ATOM     14  C   UNL     1       2.008   5.663  20.390  0.00  0.00    +0.000 C 
ATOM     15  C   UNL     1       1.501   6.763  20.984  0.00  0.00    +0.000 C 
ATOM     16  C   UNL     1       2.602   4.544  21.232  0.00  0.00    +0.000 C 
ATOM     17  C   UNL     1       2.085   3.160  20.823  0.00  0.00    +0.000 C 
ATOM     18  C   UNL     1       2.182   2.905  19.308  0.00  0.00    +0.000 C 
ATOM     19  C   UNL     1       3.643   2.690  18.885  0.00  0.00    +0.000 C 
ATOM     20  C   UNL     1       1.495   4.056  18.536  0.00  0.00    +0.000 C 
BRANCH  17  21
ATOM     21  O   UNL     1       0.736   2.987  21.266  0.00  0.00    +0.000 OA
ATOM     22  H   UNL     1       0.547   3.647  21.957  0.00  0.00    +0.000 HD
ENDBRANCH  17  21
BRANCH  20  23
ATOM     23  O   UNL     1       1.593   3.831  17.130  0.00  0.00    +0.000 OA
ATOM     24  H   UNL     1       2.003   4.617  16.737  0.00  0.00    +0.000 HD
ENDBRANCH  20  23
ENDBRANCH   1  15
BRANCH   8  25
ATOM     25  C   UNL     1      -0.406  13.777  19.883  0.00  0.00    +0.000 C 
ATOM     26  C   UNL     1       0.739  14.108  18.938  0.00  0.00    +0.000 C 
ATOM     27  C   UNL     1       1.694  15.015  19.680  0.00  0.00    +0.000 C 
ATOM     28  C   UNL     1       1.319  14.776  21.139  0.00  0.00    +0.000 C 
ATOM     29  O   UNL     1       0.049  14.114  21.201  0.00  0.00    +0.000 OA
BRANCH  27  30
ATOM     30  C   UNL     1       3.189  14.706  19.423  0.00  0.00    +0.000 C 
BRANCH  30  31
ATOM     31  C   UNL     1       3.992  15.562  18.409  0.00  0.00    +0.000 C 
ATOM     32  C   UNL     1       3.146  16.496  17.541  0.00  0.00    +0.000 C 
ATOM     33  C   UNL     1       5.132  16.334  19.073  0.00  0.00    +0.000 C 
BRANCH  31  34
ATOM     34  O   UNL     1       4.626  14.639  17.503  0.00  0.00    +0.000 OA
ATOM     35  H   UNL     1       5.590  14.758  17.570  0.00  0.00    +0.000 HD
ENDBRANCH  31  34
ENDBRANCH  30  31
ENDBRANCH  27  30
ENDBRANCH   8  25
TORSDOF 7
ENDMDL
MODEL 2
REMARK VINA RESULT:      -8.0      3.072      9.317
REMARK  Name = 
REMARK  11 active torsions:
REMARK  status: ('A' for Active; 'I' for Inactive)
REMARK    1  A    between atoms: C_4  and  C_5
REMARK    2  A    between atoms: C_10  and  C_11
REMARK    3  A    between atoms: C_12  and  C_13
REMARK    4  A    between atoms: C_15  and  C_16
REMARK    5  A    between atoms: C_16  and  C_17
REMARK    6  A    between atoms: C_17  and  C_18
REMARK    7  A    between atoms: C_17  and  C_19
REMARK    8  A    between atoms: C_17  and  O_20
REMARK    9  A    between atoms: C_27  and  O_28
REMARK   10  A    between atoms: C_29  and  C_30
REMARK   11  A    between atoms: C_31  and  O_32
REMARK                            x       y       z     vdW  Elec       q    Type
REMARK                         _______ _______ _______ _____ _____    ______ ____
ROOT
ATOM      1  C   UNL     1      -1.511  12.735  20.695  0.00  0.00    +0.000 C 
ATOM      2  C   UNL     1      -0.632  11.823  21.154  0.00  0.00    +0.000 C 
ATOM      3  C   UNL     1      -0.768  11.099  22.488  0.00  0.00    +0.000 C 
ATOM      4  C   UNL     1      -0.607   9.578  22.384  0.00  0.00    +0.000 C 
ATOM      5  C   UNL     1       0.549   9.147  21.484  0.00  0.00    +0.000 C 
ATOM      6  C   UNL     1       0.496   9.820  20.094  0.00  0.00    +0.000 C 
ATOM      7  C   UNL     1      -0.791   9.446  19.317  0.00  0.00    +0.000 C 
ATOM      8  C   UNL     1       1.769   9.579  19.229  0.00  0.00    +0.000 C 
ATOM      9  C   UNL     1       1.893  10.882  18.380  0.00  0.00    +0.000 C 
ATOM     10  C   UNL     1       0.932  11.921  18.988  0.00  0.00    +0.000 C 
ATOM     11  C   UNL     1       0.577  11.352  20.361  0.00  0.00    +0.000 C 
ENDROOT
BRANCH   1  15
ATOM     12  C   UNL     1      -0.746  15.509  22.112  0.00  0.00    +0.000 C 
ATOM     13  C   UNL     1      -1.570  14.825  22.924  0.00  0.00    +0.000 C 
ATOM     14  C   UNL     1      -2.729  14.091  22.400  0.00  0.00    +0.000 C 
ATOM     15  C   UNL     1      -2.695  13.187  21.399  0.00  0.00    +0.000 C 
ATOM     16  C   UNL     1      -4.044  14.415  23.092  0.00  0.00    +0.000 C 
ATOM     17  C   UNL     1      -3.929  14.391  24.621  0.00  0.00    +0.000 C 
ATOM     18  C   UNL     1      -2.738  15.213  25.147  0.00  0.00    +0.000 C 
ATOM     19  C   UNL     1      -3.013  16.718  25.006  0.00  0.00    +0.000 C 
ATOM     20  C   UNL     1      -1.438  14.769  24.439  0.00  0.00    +0.000 C 
BRANCH  17  21
ATOM     21  O   UNL     1      -3.839  13.041  25.087  0.00  0.00    +0.000 OA
ATOM     22  H   UNL     1      -3.757  13.050  26.057  0.00  0.00    +0.000 HD
ENDBRANCH  17  21
BRANCH  20  23
ATOM     23  O   UNL     1      -0.333  15.537  24.914  0.00  0.00    +0.000 OA
ATOM     24  H   UNL     1      -0.691  16.275  25.431  0.00  0.00    +0.000 HD
ENDBRANCH  20  23
ENDBRANCH   1  15
BRANCH   8  25
ATOM     25  C   UNL     1       1.870   8.299  18.347  0.00  0.00    +0.000 C 
ATOM     26  C   UNL     1       2.178   6.995  19.068  0.00  0.00    +0.000 C 
ATOM     27  C   UNL     1       3.183   6.239  18.229  0.00  0.00    +0.000 C 
ATOM     28  C   UNL     1       3.763   7.329  17.335  0.00  0.00    +0.000 C 
ATOM     29  O   UNL     1       2.917   8.485  17.384  0.00  0.00    +0.000 OA
BRANCH  27  30
ATOM     30  C   UNL     1       4.290   5.534  19.050  0.00  0.00    +0.000 C 
BRANCH  30  31
ATOM     31  C   UNL     1       4.689   4.072  18.717  0.00  0.00    +0.000 C 
ATOM     32  C   UNL     1       4.246   3.032  19.748  0.00  0.00    +0.000 C 
ATOM     33  C   UNL     1       4.251   3.655  17.312  0.00  0.00    +0.000 C 
BRANCH  31  34
ATOM     34  O   UNL     1       6.129   4.032  18.701  0.00  0.00    +0.000 OA
ATOM     35  H   UNL     1       6.416   3.698  17.834  0.00  0.00    +0.000 HD
ENDBRANCH  31  34
ENDBRANCH  30  31
ENDBRANCH  27  30
ENDBRANCH   8  25
TORSDOF 7
ENDMDL
MODEL 3
REMARK VINA RESULT:      -8.0      1.831      2.327
REMARK  Name = 
REMARK  11 active torsions:
REMARK  status: ('A' for Active; 'I' for Inactive)
REMARK    1  A    between atoms: C_4  and  C_5
REMARK    2  A    between atoms: C_10  and  C_11
REMARK    3  A    between atoms: C_12  and  C_13
REMARK    4  A    between atoms: C_15  and  C_16
REMARK    5  A    between atoms: C_16  and  C_17
REMARK    6  A    between atoms: C_17  and  C_18
REMARK    7  A    between atoms: C_17  and  C_19
REMARK    8  A    between atoms: C_17  and  O_20
REMARK    9  A    between atoms: C_27  and  O_28
REMARK   10  A    between atoms: C_29  and  C_30
REMARK   11  A    between atoms: C_31  and  O_32
REMARK                            x       y       z     vdW  Elec       q    Type
REMARK                         _______ _______ _______ _____ _____    ______ ____
ROOT
ATOM      1  C   UNL     1       1.591   7.708  20.187  0.00  0.00    +0.000 C 
ATOM      2  C   UNL     1       0.554   8.465  20.592  0.00  0.00    +0.000 C 
ATOM      3  C   UNL     1      -0.275   8.185  21.839  0.00  0.00    +0.000 C 
ATOM      4  C   UNL     1      -0.455   9.406  22.748  0.00  0.00    +0.000 C 
ATOM      5  C   UNL     1      -0.773  10.692  21.988  0.00  0.00    +0.000 C 
ATOM      6  C   UNL     1       0.232  10.964  20.845  0.00  0.00    +0.000 C 
ATOM      7  C   UNL     1       1.676  11.145  21.374  0.00  0.00    +0.000 C 
ATOM      8  C   UNL     1      -0.182  12.140  19.911  0.00  0.00    +0.000 C 
ATOM      9  C   UNL     1       0.388  11.726  18.519  0.00  0.00    +0.000 C 
ATOM     10  C   UNL     1       0.800  10.245  18.612  0.00  0.00    +0.000 C 
ATOM     11  C   UNL     1       0.123   9.742  19.886  0.00  0.00    +0.000 C 
ENDROOT
BRANCH   1  15
ATOM     12  C   UNL     1       2.993   5.899  17.939  0.00  0.00    +0.000 C 
ATOM     13  C   UNL     1       2.350   5.093  18.801  0.00  0.00    +0.000 C 
ATOM     14  C   UNL     1       2.375   5.338  20.248  0.00  0.00    +0.000 C 
ATOM     15  C   UNL     1       2.060   6.506  20.848  0.00  0.00    +0.000 C 
ATOM     16  C   UNL     1       2.788   4.137  21.084  0.00  0.00    +0.000 C 
ATOM     17  C   UNL     1       2.049   2.855  20.682  0.00  0.00    +0.000 C 
ATOM     18  C   UNL     1       2.086   2.591  19.165  0.00  0.00    +0.000 C 
ATOM     19  C   UNL     1       3.488   2.142  18.726  0.00  0.00    +0.000 C 
ATOM     20  C   UNL     1       1.586   3.839  18.401  0.00  0.00    +0.000 C 
BRANCH  17  21
ATOM     21  O   UNL     1       0.695   2.903  21.141  0.00  0.00    +0.000 OA
ATOM     22  H   UNL     1       0.419   3.835  21.202  0.00  0.00    +0.000 HD
ENDBRANCH  17  21
BRANCH  20  23
ATOM     23  O   UNL     1       1.629   3.604  16.995  0.00  0.00    +0.000 OA
ATOM     24  H   UNL     1       1.202   2.749  16.828  0.00  0.00    +0.000 HD
ENDBRANCH  20  23
ENDBRANCH   1  15
BRANCH   8  25
ATOM     25  C   UNL     1       0.212  13.599  20.290  0.00  0.00    +0.000 C 
ATOM     26  C   UNL     1      -0.714  14.704  19.805  0.00  0.00    +0.000 C 
ATOM     27  C   UNL     1       0.153  15.839  19.309  0.00  0.00    +0.000 C 
ATOM     28  C   UNL     1       1.498  15.159  19.081  0.00  0.00    +0.000 C 
ATOM     29  O   UNL     1       1.505  13.885  19.737  0.00  0.00    +0.000 OA
BRANCH  27  30
ATOM     30  C   UNL     1      -0.366  16.513  18.016  0.00  0.00    +0.000 C 
BRANCH  30  31
ATOM     31  C   UNL     1      -0.386  18.060  17.904  0.00  0.00    +0.000 C 
ATOM     32  C   UNL     1       0.368  18.629  16.700  0.00  0.00    +0.000 C 
ATOM     33  C   UNL     1      -1.803  18.630  17.967  0.00  0.00    +0.000 C 
BRANCH  31  34
ATOM     34  O   UNL     1       0.287  18.566  19.073  0.00  0.00    +0.000 OA
ATOM     35  H   UNL     1       0.959  19.207  18.785  0.00  0.00    +0.000 HD
ENDBRANCH  31  34
ENDBRANCH  30  31
ENDBRANCH  27  30
ENDBRANCH   8  25
TORSDOF 7
ENDMDL
MODEL 4
REMARK VINA RESULT:      -7.7      3.552      9.125
REMARK  Name = 
REMARK  11 active torsions:
REMARK  status: ('A' for Active; 'I' for Inactive)
REMARK    1  A    between atoms: C_4  and  C_5
REMARK    2  A    between atoms: C_10  and  C_11
REMARK    3  A    between atoms: C_12  and  C_13
REMARK    4  A    between atoms: C_15  and  C_16
REMARK    5  A    between atoms: C_16  and  C_17
REMARK    6  A    between atoms: C_17  and  C_18
REMARK    7  A    between atoms: C_17  and  C_19
REMARK    8  A    between atoms: C_17  and  O_20
REMARK    9  A    between atoms: C_27  and  O_28
REMARK   10  A    between atoms: C_29  and  C_30
REMARK   11  A    between atoms: C_31  and  O_32
REMARK                            x       y       z     vdW  Elec       q    Type
REMARK                         _______ _______ _______ _____ _____    ______ ____
ROOT
ATOM      1  C   UNL     1      -1.835  12.292  21.484  0.00  0.00    +0.000 C 
ATOM      2  C   UNL     1      -0.808  11.469  21.770  0.00  0.00    +0.000 C 
ATOM      3  C   UNL     1      -0.700  10.646  23.047  0.00  0.00    +0.000 C 
ATOM      4  C   UNL     1      -0.375   9.168  22.804  0.00  0.00    +0.000 C 
ATOM      5  C   UNL     1       0.709   8.946  21.751  0.00  0.00    +0.000 C 
ATOM      6  C   UNL     1       0.413   9.699  20.434  0.00  0.00    +0.000 C 
ATOM      7  C   UNL     1      -0.903   9.219  19.774  0.00  0.00    +0.000 C 
ATOM      8  C   UNL     1       1.595   9.678  19.420  0.00  0.00    +0.000 C 
ATOM      9  C   UNL     1       1.465  11.041  18.670  0.00  0.00    +0.000 C 
ATOM     10  C   UNL     1       0.467  11.908  19.461  0.00  0.00    +0.000 C 
ATOM     11  C   UNL     1       0.346  11.207  20.814  0.00  0.00    +0.000 C 
ENDROOT
BRANCH   1  15
ATOM     12  C   UNL     1      -4.447  12.214  19.624  0.00  0.00    +0.000 C 
ATOM     13  C   UNL     1      -4.615  13.163  20.561  0.00  0.00    +0.000 C 
ATOM     14  C   UNL     1      -4.197  12.951  21.953  0.00  0.00    +0.000 C 
ATOM     15  C   UNL     1      -2.973  12.543  22.347  0.00  0.00    +0.000 C 
ATOM     16  C   UNL     1      -5.276  13.241  22.985  0.00  0.00    +0.000 C 
ATOM     17  C   UNL     1      -5.980  14.581  22.742  0.00  0.00    +0.000 C 
ATOM     18  C   UNL     1      -6.457  14.755  21.288  0.00  0.00    +0.000 C 
ATOM     19  C   UNL     1      -7.669  13.855  21.004  0.00  0.00    +0.000 C 
ATOM     20  C   UNL     1      -5.282  14.508  20.315  0.00  0.00    +0.000 C 
BRANCH  17  21
ATOM     21  O   UNL     1      -5.119  15.664  23.111  0.00  0.00    +0.000 OA
ATOM     22  H   UNL     1      -5.498  16.493  22.769  0.00  0.00    +0.000 HD
ENDBRANCH  17  21
BRANCH  20  23
ATOM     23  O   UNL     1      -5.722  14.656  18.966  0.00  0.00    +0.000 OA
ATOM     24  H   UNL     1      -6.132  15.532  18.887  0.00  0.00    +0.000 HD
ENDBRANCH  20  23
ENDBRANCH   1  15
BRANCH   8  25
ATOM     25  C   UNL     1       1.741   8.483  18.431  0.00  0.00    +0.000 C 
ATOM     26  C   UNL     1       2.116   7.138  19.035  0.00  0.00    +0.000 C 
ATOM     27  C   UNL     1       3.143   6.502  18.125  0.00  0.00    +0.000 C 
ATOM     28  C   UNL     1       3.661   7.689  17.321  0.00  0.00    +0.000 C 
ATOM     29  O   UNL     1       2.765   8.797  17.477  0.00  0.00    +0.000 OA
BRANCH  27  30
ATOM     30  C   UNL     1       4.291   5.781  18.873  0.00  0.00    +0.000 C 
BRANCH  30  31
ATOM     31  C   UNL     1       5.183   4.759  18.120  0.00  0.00    +0.000 C 
ATOM     32  C   UNL     1       4.517   4.085  16.918  0.00  0.00    +0.000 C 
ATOM     33  C   UNL     1       6.536   5.350  17.721  0.00  0.00    +0.000 C 
BRANCH  31  34
ATOM     34  O   UNL     1       5.481   3.705  19.055  0.00  0.00    +0.000 OA
ATOM     35  H   UNL     1       6.320   3.290  18.791  0.00  0.00    +0.000 HD
ENDBRANCH  31  34
ENDBRANCH  30  31
ENDBRANCH  27  30
ENDBRANCH   8  25
TORSDOF 7
ENDMDL
MODEL 5
REMARK VINA RESULT:      -7.7      3.092      5.067
REMARK  Name = 
REMARK  11 active torsions:
REMARK  status: ('A' for Active; 'I' for Inactive)
REMARK    1  A    between atoms: C_4  and  C_5
REMARK    2  A    between atoms: C_10  and  C_11
REMARK    3  A    between atoms: C_12  and  C_13
REMARK    4  A    between atoms: C_15  and  C_16
REMARK    5  A    between atoms: C_16  and  C_17
REMARK    6  A    between atoms: C_17  and  C_18
REMARK    7  A    between atoms: C_17  and  C_19
REMARK    8  A    between atoms: C_17  and  O_20
REMARK    9  A    between atoms: C_27  and  O_28
REMARK   10  A    between atoms: C_29  and  C_30
REMARK   11  A    between atoms: C_31  and  O_32
REMARK                            x       y       z     vdW  Elec       q    Type
REMARK                         _______ _______ _______ _____ _____    ______ ____
ROOT
ATOM      1  C   UNL     1       1.825   7.212  19.504  0.00  0.00    +0.000 C 
ATOM      2  C   UNL     1       1.935   8.554  19.494  0.00  0.00    +0.000 C 
ATOM      3  C   UNL     1       2.493   9.358  18.326  0.00  0.00    +0.000 C 
ATOM      4  C   UNL     1       1.601  10.531  17.902  0.00  0.00    +0.000 C 
ATOM      5  C   UNL     1       1.039  11.327  19.078  0.00  0.00    +0.000 C 
ATOM      6  C   UNL     1       0.349  10.424  20.126  0.00  0.00    +0.000 C 
ATOM      7  C   UNL     1      -0.861   9.664  19.528  0.00  0.00    +0.000 C 
ATOM      8  C   UNL     1      -0.040  11.167  21.438  0.00  0.00    +0.000 C 
ATOM      9  C   UNL     1       0.095  10.070  22.539  0.00  0.00    +0.000 C 
ATOM     10  C   UNL     1       0.842   8.877  21.912  0.00  0.00    +0.000 C 
ATOM     11  C   UNL     1       1.448   9.443  20.629  0.00  0.00    +0.000 C 
ENDROOT
BRANCH   1  15
ATOM     12  C   UNL     1       1.080   4.229  20.417  0.00  0.00    +0.000 C 
ATOM     13  C   UNL     1       2.241   4.194  19.741  0.00  0.00    +0.000 C 
ATOM     14  C   UNL     1       2.450   4.999  18.531  0.00  0.00    +0.000 C 
ATOM     15  C   UNL     1       2.241   6.329  18.432  0.00  0.00    +0.000 C 
ATOM     16  C   UNL     1       2.953   4.213  17.330  0.00  0.00    +0.000 C 
ATOM     17  C   UNL     1       4.129   3.293  17.678  0.00  0.00    +0.000 C 
ATOM     18  C   UNL     1       3.863   2.419  18.918  0.00  0.00    +0.000 C 
ATOM     19  C   UNL     1       2.850   1.310  18.593  0.00  0.00    +0.000 C 
ATOM     20  C   UNL     1       3.423   3.307  20.104  0.00  0.00    +0.000 C 
BRANCH  17  21
ATOM     21  O   UNL     1       5.320   4.065  17.866  0.00  0.00    +0.000 OA
ATOM     22  H   UNL     1       5.368   4.341  18.799  0.00  0.00    +0.000 HD
ENDBRANCH  17  21
BRANCH  20  23
ATOM     23  O   UNL     1       3.163   2.501  21.252  0.00  0.00    +0.000 OA
ATOM     24  H   UNL     1       2.329   2.808  21.641  0.00  0.00    +0.000 HD
ENDBRANCH  20  23
ENDBRANCH   1  15
BRANCH   8  25
ATOM     25  C   UNL     1      -1.405  11.912  21.525  0.00  0.00    +0.000 C 
ATOM     26  C   UNL     1      -1.349  13.412  21.774  0.00  0.00    +0.000 C 
ATOM     27  C   UNL     1      -2.428  13.746  22.779  0.00  0.00    +0.000 C 
ATOM     28  C   UNL     1      -2.725  12.394  23.416  0.00  0.00    +0.000 C 
ATOM     29  O   UNL     1      -2.168  11.353  22.604  0.00  0.00    +0.000 OA
BRANCH  27  30
ATOM     30  C   UNL     1      -2.003  14.790  23.841  0.00  0.00    +0.000 C 
BRANCH  30  31
ATOM     31  C   UNL     1      -3.079  15.501  24.702  0.00  0.00    +0.000 C 
ATOM     32  C   UNL     1      -2.664  16.866  25.255  0.00  0.00    +0.000 C 
ATOM     33  C   UNL     1      -4.426  15.601  23.984  0.00  0.00    +0.000 C 
BRANCH  31  34
ATOM     34  O   UNL     1      -3.313  14.659  25.847  0.00  0.00    +0.000 OA
ATOM     35  H   UNL     1      -3.172  13.734  25.580  0.00  0.00    +0.000 HD
ENDBRANCH  31  34
ENDBRANCH  30  31
ENDBRANCH  27  30
ENDBRANCH   8  25
TORSDOF 7
ENDMDL
MODEL 6
REMARK VINA RESULT:      -7.6      2.160      3.360
REMARK  Name = 
REMARK  11 active torsions:
REMARK  status: ('A' for Active; 'I' for Inactive)
REMARK    1  A    between atoms: C_4  and  C_5
REMARK    2  A    between atoms: C_10  and  C_11
REMARK    3  A    between atoms: C_12  and  C_13
REMARK    4  A    between atoms: C_15  and  C_16
REMARK    5  A    between atoms: C_16  and  C_17
REMARK    6  A    between atoms: C_17  and  C_18
REMARK    7  A    between atoms: C_17  and  C_19
REMARK    8  A    between atoms: C_17  and  O_20
REMARK    9  A    between atoms: C_27  and  O_28
REMARK   10  A    between atoms: C_29  and  C_30
REMARK   11  A    between atoms: C_31  and  O_32
REMARK                            x       y       z     vdW  Elec       q    Type
REMARK                         _______ _______ _______ _____ _____    ______ ____
ROOT
ATOM      1  C   UNL     1       1.070   7.877  20.332  0.00  0.00    +0.000 C 
ATOM      2  C   UNL     1       0.174   8.696  20.915  0.00  0.00    +0.000 C 
ATOM      3  C   UNL     1      -0.349   8.519  22.336  0.00  0.00    +0.000 C 
ATOM      4  C   UNL     1      -0.284   9.796  23.181  0.00  0.00    +0.000 C 
ATOM      5  C   UNL     1      -0.739  11.047  22.433  0.00  0.00    +0.000 C 
ATOM      6  C   UNL     1      -0.022  11.215  21.074  0.00  0.00    +0.000 C 
ATOM      7  C   UNL     1       1.510  11.371  21.242  0.00  0.00    +0.000 C 
ATOM      8  C   UNL     1      -0.613  12.350  20.187  0.00  0.00    +0.000 C 
ATOM      9  C   UNL     1      -0.393  11.836  18.730  0.00  0.00    +0.000 C 
ATOM     10  C   UNL     1      -0.005  10.348  18.821  0.00  0.00    +0.000 C 
ATOM     11  C   UNL     1      -0.380   9.945  20.247  0.00  0.00    +0.000 C 
ENDROOT
BRANCH   1  15
ATOM     12  C   UNL     1       2.669   6.328  18.023  0.00  0.00    +0.000 C 
ATOM     13  C   UNL     1       2.102   5.421  18.836  0.00  0.00    +0.000 C 
ATOM     14  C   UNL     1       2.087   5.598  20.294  0.00  0.00    +0.000 C 
ATOM     15  C   UNL     1       1.650   6.698  20.943  0.00  0.00    +0.000 C 
ATOM     16  C   UNL     1       2.612   4.406  21.079  0.00  0.00    +0.000 C 
ATOM     17  C   UNL     1       2.010   3.077  20.607  0.00  0.00    +0.000 C 
ATOM     18  C   UNL     1       2.087   2.891  19.080  0.00  0.00    +0.000 C 
ATOM     19  C   UNL     1       3.532   2.606  18.641  0.00  0.00    +0.000 C 
ATOM     20  C   UNL     1       1.472   4.117  18.368  0.00  0.00    +0.000 C 
BRANCH  17  21
ATOM     21  O   UNL     1       0.653   2.967  21.048  0.00  0.00    +0.000 OA
ATOM     22  H   UNL     1       0.090   2.769  20.278  0.00  0.00    +0.000 HD
ENDBRANCH  17  21
BRANCH  20  23
ATOM     23  O   UNL     1       1.553   3.955  16.953  0.00  0.00    +0.000 OA
ATOM     24  H   UNL     1       1.311   4.803  16.548  0.00  0.00    +0.000 HD
ENDBRANCH  20  23
ENDBRANCH   1  15
BRANCH   8  25
ATOM     25  C   UNL     1      -0.108  13.812  20.369  0.00  0.00    +0.000 C 
ATOM     26  C   UNL     1      -0.134  14.373  21.783  0.00  0.00    +0.000 C 
ATOM     27  C   UNL     1      -0.639  15.796  21.699  0.00  0.00    +0.000 C 
ATOM     28  C   UNL     1      -1.326  15.829  20.338  0.00  0.00    +0.000 C 
ATOM     29  O   UNL     1      -0.924  14.685  19.575  0.00  0.00    +0.000 OA
BRANCH  27  30
ATOM     30  C   UNL     1      -1.615  16.190  22.834  0.00  0.00    +0.000 C 
BRANCH  30  31
ATOM     31  C   UNL     1      -1.083  16.383  24.279  0.00  0.00    +0.000 C 
ATOM     32  C   UNL     1       0.231  17.160  24.384  0.00  0.00    +0.000 C 
ATOM     33  C   UNL     1      -2.136  16.984  25.211  0.00  0.00    +0.000 C 
BRANCH  31  34
ATOM     34  O   UNL     1      -0.813  15.067  24.798  0.00  0.00    +0.000 OA
ATOM     35  H   UNL     1      -0.126  15.143  25.482  0.00  0.00    +0.000 HD
ENDBRANCH  31  34
ENDBRANCH  30  31
ENDBRANCH  27  30
ENDBRANCH   8  25
TORSDOF 7
ENDMDL
MODEL 7
REMARK VINA RESULT:      -7.6      2.094      3.358
REMARK  Name = 
REMARK  11 active torsions:
REMARK  status: ('A' for Active; 'I' for Inactive)
REMARK    1  A    between atoms: C_4  and  C_5
REMARK    2  A    between atoms: C_10  and  C_11
REMARK    3  A    between atoms: C_12  and  C_13
REMARK    4  A    between atoms: C_15  and  C_16
REMARK    5  A    between atoms: C_16  and  C_17
REMARK    6  A    between atoms: C_17  and  C_18
REMARK    7  A    between atoms: C_17  and  C_19
REMARK    8  A    between atoms: C_17  and  O_20
REMARK    9  A    between atoms: C_27  and  O_28
REMARK   10  A    between atoms: C_29  and  C_30
REMARK   11  A    between atoms: C_31  and  O_32
REMARK                            x       y       z     vdW  Elec       q    Type
REMARK                         _______ _______ _______ _____ _____    ______ ____
ROOT
ATOM      1  C   UNL     1       1.054   7.910  20.284  0.00  0.00    +0.000 C 
ATOM      2  C   UNL     1       0.143   8.740  20.826  0.00  0.00    +0.000 C 
ATOM      3  C   UNL     1      -0.430   8.585  22.230  0.00  0.00    +0.000 C 
ATOM      4  C   UNL     1      -0.386   9.872  23.061  0.00  0.00    +0.000 C 
ATOM      5  C   UNL     1      -0.807  11.116  22.282  0.00  0.00    +0.000 C 
ATOM      6  C   UNL     1      -0.042  11.262  20.947  0.00  0.00    +0.000 C 
ATOM      7  C   UNL     1       1.484  11.412  21.167  0.00  0.00    +0.000 C 
ATOM      8  C   UNL     1      -0.595  12.390  20.026  0.00  0.00    +0.000 C 
ATOM      9  C   UNL     1      -0.328  11.857  18.584  0.00  0.00    +0.000 C 
ATOM     10  C   UNL     1       0.047  10.367  18.707  0.00  0.00    +0.000 C 
ATOM     11  C   UNL     1      -0.379   9.985  20.124  0.00  0.00    +0.000 C 
ENDROOT
BRANCH   1  15
ATOM     12  C   UNL     1       2.734   6.329  18.056  0.00  0.00    +0.000 C 
ATOM     13  C   UNL     1       2.133   5.433  18.856  0.00  0.00    +0.000 C 
ATOM     14  C   UNL     1       2.063   5.627  20.311  0.00  0.00    +0.000 C 
ATOM     15  C   UNL     1       1.606   6.735  20.930  0.00  0.00    +0.000 C 
ATOM     16  C   UNL     1       2.551   4.441  21.128  0.00  0.00    +0.000 C 
ATOM     17  C   UNL     1       1.963   3.109  20.647  0.00  0.00    +0.000 C 
ATOM     18  C   UNL     1       2.098   2.906  19.126  0.00  0.00    +0.000 C 
ATOM     19  C   UNL     1       3.558   2.611  18.746  0.00  0.00    +0.000 C 
ATOM     20  C   UNL     1       1.516   4.127  18.378  0.00  0.00    +0.000 C 
BRANCH  17  21
ATOM     21  O   UNL     1       0.589   3.009  21.036  0.00  0.00    +0.000 OA
ATOM     22  H   UNL     1       0.111   3.786  20.695  0.00  0.00    +0.000 HD
ENDBRANCH  17  21
BRANCH  20  23
ATOM     23  O   UNL     1       1.651   3.949  16.969  0.00  0.00    +0.000 OA
ATOM     24  H   UNL     1       2.229   4.655  16.639  0.00  0.00    +0.000 HD
ENDBRANCH  20  23
ENDBRANCH   1  15
BRANCH   8  25
ATOM     25  C   UNL     1      -0.087  13.852  20.208  0.00  0.00    +0.000 C 
ATOM     26  C   UNL     1      -0.999  14.802  20.969  0.00  0.00    +0.000 C 
ATOM     27  C   UNL     1      -0.986  16.126  20.240  0.00  0.00    +0.000 C 
ATOM     28  C   UNL     1      -0.469  15.744  18.858  0.00  0.00    +0.000 C 
ATOM     29  O   UNL     1       0.111  14.435  18.912  0.00  0.00    +0.000 OA
BRANCH  27  30
ATOM     30  C   UNL     1      -2.369  16.816  20.156  0.00  0.00    +0.000 C 
BRANCH  30  31
ATOM     31  C   UNL     1      -2.940  17.560  21.392  0.00  0.00    +0.000 C 
ATOM     32  C   UNL     1      -3.848  16.717  22.289  0.00  0.00    +0.000 C 
ATOM     33  C   UNL     1      -1.847  18.237  22.219  0.00  0.00    +0.000 C 
BRANCH  31  34
ATOM     34  O   UNL     1      -3.760  18.631  20.885  0.00  0.00    +0.000 OA
ATOM     35  H   UNL     1      -4.693  18.395  21.027  0.00  0.00    +0.000 HD
ENDBRANCH  31  34
ENDBRANCH  30  31
ENDBRANCH  27  30
ENDBRANCH   8  25
TORSDOF 7
ENDMDL
MODEL 8
REMARK VINA RESULT:      -7.5      3.388      8.936
REMARK  Name = 
REMARK  11 active torsions:
REMARK  status: ('A' for Active; 'I' for Inactive)
REMARK    1  A    between atoms: C_4  and  C_5
REMARK    2  A    between atoms: C_10  and  C_11
REMARK    3  A    between atoms: C_12  and  C_13
REMARK    4  A    between atoms: C_15  and  C_16
REMARK    5  A    between atoms: C_16  and  C_17
REMARK    6  A    between atoms: C_17  and  C_18
REMARK    7  A    between atoms: C_17  and  C_19
REMARK    8  A    between atoms: C_17  and  O_20
REMARK    9  A    between atoms: C_27  and  O_28
REMARK   10  A    between atoms: C_29  and  C_30
REMARK   11  A    between atoms: C_31  and  O_32
REMARK                            x       y       z     vdW  Elec       q    Type
REMARK                         _______ _______ _______ _____ _____    ______ ____
ROOT
ATOM      1  C   UNL     1      -1.433  12.573  19.899  0.00  0.00    +0.000 C 
ATOM      2  C   UNL     1      -0.581  11.678  20.434  0.00  0.00    +0.000 C 
ATOM      3  C   UNL     1      -0.824  10.944  21.747  0.00  0.00    +0.000 C 
ATOM      4  C   UNL     1      -0.621   9.428  21.654  0.00  0.00    +0.000 C 
ATOM      5  C   UNL     1       0.622   9.025  20.863  0.00  0.00    +0.000 C 
ATOM      6  C   UNL     1       0.682   9.705  19.476  0.00  0.00    +0.000 C 
ATOM      7  C   UNL     1      -0.520   9.307  18.583  0.00  0.00    +0.000 C 
ATOM      8  C   UNL     1       2.034   9.495  18.731  0.00  0.00    +0.000 C 
ATOM      9  C   UNL     1       2.208  10.804  17.902  0.00  0.00    +0.000 C 
ATOM     10  C   UNL     1       1.173  11.820  18.422  0.00  0.00    +0.000 C 
ATOM     11  C   UNL     1       0.706  11.236  19.754  0.00  0.00    +0.000 C 
ENDROOT
BRANCH   1  15
ATOM     12  C   UNL     1      -3.711  10.636  18.737  0.00  0.00    +0.000 C 
ATOM     13  C   UNL     1      -4.222  11.873  18.863  0.00  0.00    +0.000 C 
ATOM     14  C   UNL     1      -3.922  12.713  20.030  0.00  0.00    +0.000 C 
ATOM     15  C   UNL     1      -2.687  12.996  20.492  0.00  0.00    +0.000 C 
ATOM     16  C   UNL     1      -5.148  13.287  20.723  0.00  0.00    +0.000 C 
ATOM     17  C   UNL     1      -6.142  13.917  19.740  0.00  0.00    +0.000 C 
ATOM     18  C   UNL     1      -6.482  12.994  18.555  0.00  0.00    +0.000 C 
ATOM     19  C   UNL     1      -7.381  11.835  19.011  0.00  0.00    +0.000 C 
ATOM     20  C   UNL     1      -5.181  12.515  17.871  0.00  0.00    +0.000 C 
BRANCH  17  21
ATOM     21  O   UNL     1      -5.636  15.167  19.261  0.00  0.00    +0.000 OA
ATOM     22  H   UNL     1      -5.463  15.088  18.306  0.00  0.00    +0.000 HD
ENDBRANCH  17  21
BRANCH  20  23
ATOM     23  O   UNL     1      -5.490  11.649  16.780  0.00  0.00    +0.000 OA
ATOM     24  H   UNL     1      -5.095  10.784  16.972  0.00  0.00    +0.000 HD
ENDBRANCH  20  23
ENDBRANCH   1  15
BRANCH   8  25
ATOM     25  C   UNL     1       2.244   8.222  17.858  0.00  0.00    +0.000 C 
ATOM     26  C   UNL     1       2.271   6.888  18.590  0.00  0.00    +0.000 C 
ATOM     27  C   UNL     1       3.385   6.063  17.989  0.00  0.00    +0.000 C 
ATOM     28  C   UNL     1       4.243   7.112  17.291  0.00  0.00    +0.000 C 
ATOM     29  O   UNL     1       3.501   8.332  17.176  0.00  0.00    +0.000 OA
BRANCH  27  30
ATOM     30  C   UNL     1       4.208   5.259  19.026  0.00  0.00    +0.000 C 
BRANCH  30  31
ATOM     31  C   UNL     1       4.689   3.823  18.687  0.00  0.00    +0.000 C 
ATOM     32  C   UNL     1       4.377   2.771  19.754  0.00  0.00    +0.000 C 
ATOM     33  C   UNL     1       4.204   3.355  17.315  0.00  0.00    +0.000 C 
BRANCH  31  34
ATOM     34  O   UNL     1       6.125   3.882  18.591  0.00  0.00    +0.000 OA
ATOM     35  H   UNL     1       6.368   4.720  18.159  0.00  0.00    +0.000 HD
ENDBRANCH  31  34
ENDBRANCH  30  31
ENDBRANCH  27  30
ENDBRANCH   8  25
TORSDOF 7
ENDMDL
MODEL 9
REMARK VINA RESULT:      -7.5      2.904      9.279
REMARK  Name = 
REMARK  11 active torsions:
REMARK  status: ('A' for Active; 'I' for Inactive)
REMARK    1  A    between atoms: C_4  and  C_5
REMARK    2  A    between atoms: C_10  and  C_11
REMARK    3  A    between atoms: C_12  and  C_13
REMARK    4  A    between atoms: C_15  and  C_16
REMARK    5  A    between atoms: C_16  and  C_17
REMARK    6  A    between atoms: C_17  and  C_18
REMARK    7  A    between atoms: C_17  and  C_19
REMARK    8  A    between atoms: C_17  and  O_20
REMARK    9  A    between atoms: C_27  and  O_28
REMARK   10  A    between atoms: C_29  and  C_30
REMARK   11  A    between atoms: C_31  and  O_32
REMARK                            x       y       z     vdW  Elec       q    Type
REMARK                         _______ _______ _______ _____ _____    ______ ____
ROOT
ATOM      1  C   UNL     1      -1.858  12.985  19.706  0.00  0.00    +0.000 C 
ATOM      2  C   UNL     1      -0.732  12.897  18.972  0.00  0.00    +0.000 C 
ATOM      3  C   UNL     1       0.254  14.042  18.776  0.00  0.00    +0.000 C 
ATOM      4  C   UNL     1       1.712  13.653  19.042  0.00  0.00    +0.000 C 
ATOM      5  C   UNL     1       2.102  12.302  18.446  0.00  0.00    +0.000 C 
ATOM      6  C   UNL     1       1.120  11.177  18.845  0.00  0.00    +0.000 C 
ATOM      7  C   UNL     1       1.085  10.954  20.377  0.00  0.00    +0.000 C 
ATOM      8  C   UNL     1       1.356   9.838  18.084  0.00  0.00    +0.000 C 
ATOM      9  C   UNL     1      -0.072   9.221  17.968  0.00  0.00    +0.000 C 
ATOM     10  C   UNL     1      -1.082  10.321  18.350  0.00  0.00    +0.000 C 
ATOM     11  C   UNL     1      -0.270  11.614  18.298  0.00  0.00    +0.000 C 
ENDROOT
BRANCH   1  15
ATOM     12  C   UNL     1      -1.548  12.416  22.848  0.00  0.00    +0.000 C 
ATOM     13  C   UNL     1      -2.663  13.140  22.650  0.00  0.00    +0.000 C 
ATOM     14  C   UNL     1      -2.699  14.249  21.688  0.00  0.00    +0.000 C 
ATOM     15  C   UNL     1      -2.318  14.174  20.395  0.00  0.00    +0.000 C 
ATOM     16  C   UNL     1      -3.227  15.557  22.255  0.00  0.00    +0.000 C 
ATOM     17  C   UNL     1      -4.528  15.376  23.046  0.00  0.00    +0.000 C 
ATOM     18  C   UNL     1      -4.446  14.243  24.086  0.00  0.00    +0.000 C 
ATOM     19  C   UNL     1      -3.564  14.660  25.274  0.00  0.00    +0.000 C 
ATOM     20  C   UNL     1      -3.967  12.939  23.408  0.00  0.00    +0.000 C 
BRANCH  17  21
ATOM     21  O   UNL     1      -5.620  15.144  22.151  0.00  0.00    +0.000 OA
ATOM     22  H   UNL     1      -5.814  15.971  21.674  0.00  0.00    +0.000 HD
ENDBRANCH  17  21
BRANCH  20  23
ATOM     23  O   UNL     1      -3.878  11.889  24.370  0.00  0.00    +0.000 OA
ATOM     24  H   UNL     1      -2.966  11.557  24.356  0.00  0.00    +0.000 HD
ENDBRANCH  20  23
ENDBRANCH   1  15
BRANCH   8  25
ATOM     25  C   UNL     1       2.390   8.811  18.633  0.00  0.00    +0.000 C 
ATOM     26  C   UNL     1       2.759   7.655  17.715  0.00  0.00    +0.000 C 
ATOM     27  C   UNL     1       2.816   6.404  18.561  0.00  0.00    +0.000 C 
ATOM     28  C   UNL     1       2.020   6.798  19.800  0.00  0.00    +0.000 C 
ATOM     29  O   UNL     1       1.863   8.222  19.831  0.00  0.00    +0.000 OA
BRANCH  27  30
ATOM     30  C   UNL     1       2.215   5.151  17.878  0.00  0.00    +0.000 C 
BRANCH  30  31
ATOM     31  C   UNL     1       3.068   3.863  17.735  0.00  0.00    +0.000 C 
ATOM     32  C   UNL     1       4.274   3.990  16.801  0.00  0.00    +0.000 C 
ATOM     33  C   UNL     1       3.495   3.294  19.088  0.00  0.00    +0.000 C 
BRANCH  31  34
ATOM     34  O   UNL     1       2.211   2.865  17.148  0.00  0.00    +0.000 OA
ATOM     35  H   UNL     1       2.355   2.025  17.616  0.00  0.00    +0.000 HD
ENDBRANCH  31  34
ENDBRANCH  30  31
ENDBRANCH  27  30
ENDBRANCH   8  25
TORSDOF 7
ENDMDL
