MODEL 1
REMARK VINA RESULT:      -9.2      0.000      0.000
REMARK  Name = 
REMARK  7 active torsions:
REMARK  status: ('A' for Active; 'I' for Inactive)
REMARK    1  A    between atoms: C_1  and  N_2
REMARK    2  A    between atoms: C_3  and  C_5
REMARK    3  A    between atoms: C_7  and  O_8
REMARK    4  A    between atoms: O_8  and  C_9
REMARK    5  A    between atoms: C_12  and  C_13
REMARK    6  A    between atoms: C_16  and  C_17
REMARK    7  A    between atoms: C_20  and  N_21
REMARK                            x       y       z     vdW  Elec       q    Type
REMARK                         _______ _______ _______ _____ _____    ______ ____
ROOT
ATOM      1  C   UNL     1       3.086   5.976  18.590  0.00  0.00    +0.000 A 
ATOM      2  C   UNL     1       3.057   7.000  17.639  0.00  0.00    +0.000 A 
ATOM      3  C   UNL     1       2.455   8.226  17.948  0.00  0.00    +0.000 A 
ATOM      4  C   UNL     1       1.867   8.426  19.204  0.00  0.00    +0.000 A 
ATOM      5  C   UNL     1       1.902   7.404  20.154  0.00  0.00    +0.000 A 
ATOM      6  C   UNL     1       2.483   6.178  19.835  0.00  0.00    +0.000 A 
ENDROOT
BRANCH   4   7
ATOM      7  C   UNL     1       1.191   9.707  19.499  0.00  0.00    +0.000 C 
ATOM      8  N   UNL     1       1.013  10.154  20.705  0.00  0.00    +0.000 NA
ATOM      9  N   UNL     1       0.292  11.288  20.586  0.00  0.00    +0.000 N 
ATOM     10  C   UNL     1       0.118  11.764  19.217  0.00  0.00    +0.000 C 
ATOM     11  C   UNL     1       0.687  10.606  18.399  0.00  0.00    +0.000 C 
ATOM     12  H   UNL     1       0.467  12.000  21.294  0.00  0.00    +0.000 HD
BRANCH  10  13
ATOM     13  C   UNL     1       0.781  13.103  18.950  0.00  0.00    +0.000 A 
ATOM     14  C   UNL     1       2.072  13.192  18.403  0.00  0.00    +0.000 A 
ATOM     15  C   UNL     1       2.684  14.432  18.204  0.00  0.00    +0.000 A 
ATOM     16  C   UNL     1       2.002  15.605  18.549  0.00  0.00    +0.000 A 
ATOM     17  C   UNL     1       0.708  15.541  19.073  0.00  0.00    +0.000 A 
ATOM     18  C   UNL     1       0.101  14.295  19.266  0.00  0.00    +0.000 A 
BRANCH  16  19
ATOM     19  N   UNL     1       2.658  16.906  18.369  0.00  0.00    +0.000 N 
ATOM     20  O   UNL     1       2.854  17.300  17.211  0.00  0.00    +0.000 OA
ATOM     21  O   UNL     1       2.979  17.536  19.389  0.00  0.00    +0.000 OA
ENDBRANCH  16  19
ENDBRANCH  10  13
ENDBRANCH   4   7
BRANCH   1  22
ATOM     22  O   UNL     1       3.666   4.790  18.199  0.00  0.00    +0.000 OA
BRANCH  22  25
ATOM     23  C   UNL     1       6.567   4.678  15.934  0.00  0.00    +0.000 A 
ATOM     24  C   UNL     1       5.236   4.682  16.325  0.00  0.00    +0.000 A 
ATOM     25  C   UNL     1       4.944   4.789  17.680  0.00  0.00    +0.000 A 
ATOM     26  C   UNL     1       5.985   4.836  18.602  0.00  0.00    +0.000 A 
ATOM     27  C   UNL     1       7.288   4.815  18.120  0.00  0.00    +0.000 A 
ATOM     28  N   UNL     1       7.610   4.741  16.812  0.00  0.00    +0.000 NA
BRANCH  23  31
ATOM     29  C   UNL     1       6.438   3.465  12.357  0.00  0.00    +0.000 C 
ATOM     30  N   UNL     1       6.220   3.643  13.765  0.00  0.00    +0.000 N 
ATOM     31  C   UNL     1       6.893   4.612  14.479  0.00  0.00    +0.000 C 
ATOM     32  O   UNL     1       7.709   5.380  13.972  0.00  0.00    +0.000 OA
ATOM     33  H   UNL     1       5.511   3.110  14.264  0.00  0.00    +0.000 HD
ENDBRANCH  23  31
ENDBRANCH  22  25
ENDBRANCH   1  22
TORSDOF 6
ENDMDL
MODEL 2
REMARK VINA RESULT:      -9.2      0.152      1.238
REMARK  Name = 
REMARK  7 active torsions:
REMARK  status: ('A' for Active; 'I' for Inactive)
REMARK    1  A    between atoms: C_1  and  N_2
REMARK    2  A    between atoms: C_3  and  C_5
REMARK    3  A    between atoms: C_7  and  O_8
REMARK    4  A    between atoms: O_8  and  C_9
REMARK    5  A    between atoms: C_12  and  C_13
REMARK    6  A    between atoms: C_16  and  C_17
REMARK    7  A    between atoms: C_20  and  N_21
REMARK                            x       y       z     vdW  Elec       q    Type
REMARK                         _______ _______ _______ _____ _____    ______ ____
ROOT
ATOM      1  C   UNL     1       3.168   6.050  18.603  0.00  0.00    +0.000 A 
ATOM      2  C   UNL     1       2.533   6.239  19.834  0.00  0.00    +0.000 A 
ATOM      3  C   UNL     1       1.860   7.438  20.099  0.00  0.00    +0.000 A 
ATOM      4  C   UNL     1       1.833   8.457  19.138  0.00  0.00    +0.000 A 
ATOM      5  C   UNL     1       2.463   8.265  17.908  0.00  0.00    +0.000 A 
ATOM      6  C   UNL     1       3.150   7.079  17.657  0.00  0.00    +0.000 A 
ENDROOT
BRANCH   4   7
ATOM      7  C   UNL     1       1.162   9.738  19.450  0.00  0.00    +0.000 C 
ATOM      8  N   UNL     1       0.941  10.146  20.662  0.00  0.00    +0.000 NA
ATOM      9  N   UNL     1       0.239  11.293  20.554  0.00  0.00    +0.000 N 
ATOM     10  C   UNL     1       0.128  11.818  19.196  0.00  0.00    +0.000 C 
ATOM     11  C   UNL     1       0.714  10.681  18.363  0.00  0.00    +0.000 C 
ATOM     12  H   UNL     1       0.395  11.978  21.293  0.00  0.00    +0.000 HD
BRANCH  10  13
ATOM     13  C   UNL     1       0.818  13.156  19.003  0.00  0.00    +0.000 A 
ATOM     14  C   UNL     1       0.191  14.365  19.347  0.00  0.00    +0.000 A 
ATOM     15  C   UNL     1       0.824  15.592  19.124  0.00  0.00    +0.000 A 
ATOM     16  C   UNL     1       2.101  15.618  18.554  0.00  0.00    +0.000 A 
ATOM     17  C   UNL     1       2.753  14.425  18.225  0.00  0.00    +0.000 A 
ATOM     18  C   UNL     1       2.114  13.202  18.455  0.00  0.00    +0.000 A 
BRANCH  16  19
ATOM     19  N   UNL     1       2.753  16.907  18.290  0.00  0.00    +0.000 N 
ATOM     20  O   UNL     1       2.716  17.348  17.132  0.00  0.00    +0.000 OA
ATOM     21  O   UNL     1       3.305  17.479  19.242  0.00  0.00    +0.000 OA
ENDBRANCH  16  19
ENDBRANCH  10  13
ENDBRANCH   4   7
BRANCH   1  22
ATOM     22  O   UNL     1       3.836   4.859  18.433  0.00  0.00    +0.000 OA
BRANCH  22  25
ATOM     23  C   UNL     1       6.646   4.718  16.058  0.00  0.00    +0.000 A 
ATOM     24  C   UNL     1       5.332   4.727  16.500  0.00  0.00    +0.000 A 
ATOM     25  C   UNL     1       5.093   4.850  17.865  0.00  0.00    +0.000 A 
ATOM     26  C   UNL     1       6.169   4.907  18.744  0.00  0.00    +0.000 A 
ATOM     27  C   UNL     1       7.452   4.879  18.212  0.00  0.00    +0.000 A 
ATOM     28  N   UNL     1       7.722   4.790  16.893  0.00  0.00    +0.000 NA
BRANCH  23  31
ATOM     29  C   UNL     1       6.369   3.471  12.501  0.00  0.00    +0.000 C 
ATOM     30  N   UNL     1       6.207   3.665  13.914  0.00  0.00    +0.000 N 
ATOM     31  C   UNL     1       6.914   4.635  14.592  0.00  0.00    +0.000 C 
ATOM     32  O   UNL     1       7.717   5.391  14.047  0.00  0.00    +0.000 OA
ATOM     33  H   UNL     1       5.514   3.142  14.446  0.00  0.00    +0.000 HD
ENDBRANCH  23  31
ENDBRANCH  22  25
ENDBRANCH   1  22
TORSDOF 6
ENDMDL
MODEL 3
REMARK VINA RESULT:      -9.2      3.336      4.073
REMARK  Name = 
REMARK  7 active torsions:
REMARK  status: ('A' for Active; 'I' for Inactive)
REMARK    1  A    between atoms: C_1  and  N_2
REMARK    2  A    between atoms: C_3  and  C_5
REMARK    3  A    between atoms: C_7  and  O_8
REMARK    4  A    between atoms: O_8  and  C_9
REMARK    5  A    between atoms: C_12  and  C_13
REMARK    6  A    between atoms: C_16  and  C_17
REMARK    7  A    between atoms: C_20  and  N_21
REMARK                            x       y       z     vdW  Elec       q    Type
REMARK                         _______ _______ _______ _____ _____    ______ ____
ROOT
ATOM      1  C   UNL     1       3.389   5.912  18.535  0.00  0.00    +0.000 A 
ATOM      2  C   UNL     1       3.573   6.903  17.567  0.00  0.00    +0.000 A 
ATOM      3  C   UNL     1       2.934   8.141  17.704  0.00  0.00    +0.000 A 
ATOM      4  C   UNL     1       2.098   8.386  18.801  0.00  0.00    +0.000 A 
ATOM      5  C   UNL     1       1.920   7.397  19.769  0.00  0.00    +0.000 A 
ATOM      6  C   UNL     1       2.540   6.158  19.618  0.00  0.00    +0.000 A 
ENDROOT
BRANCH   4   7
ATOM      7  C   UNL     1       1.390   9.681  18.906  0.00  0.00    +0.000 C 
ATOM      8  N   UNL     1       1.576  10.661  18.075  0.00  0.00    +0.000 NA
ATOM      9  N   UNL     1       0.838  11.692  18.534  0.00  0.00    +0.000 N 
ATOM     10  C   UNL     1      -0.062  11.360  19.635  0.00  0.00    +0.000 C 
ATOM     11  C   UNL     1       0.366   9.936  19.981  0.00  0.00    +0.000 C 
ATOM     12  H   UNL     1       0.471  12.324  17.823  0.00  0.00    +0.000 HD
BRANCH  10  13
ATOM     13  C   UNL     1      -1.531  11.504  19.282  0.00  0.00    +0.000 A 
ATOM     14  C   UNL     1      -2.068  10.944  18.111  0.00  0.00    +0.000 A 
ATOM     15  C   UNL     1      -3.413  11.122  17.780  0.00  0.00    +0.000 A 
ATOM     16  C   UNL     1      -4.242  11.865  18.627  0.00  0.00    +0.000 A 
ATOM     17  C   UNL     1      -3.736  12.413  19.810  0.00  0.00    +0.000 A 
ATOM     18  C   UNL     1      -2.388  12.226  20.135  0.00  0.00    +0.000 A 
BRANCH  16  19
ATOM     19  N   UNL     1      -5.649  12.080  18.264  0.00  0.00    +0.000 N 
ATOM     20  O   UNL     1      -6.490  12.070  19.174  0.00  0.00    +0.000 OA
ATOM     21  O   UNL     1      -5.914  12.256  17.065  0.00  0.00    +0.000 OA
ENDBRANCH  16  19
ENDBRANCH  10  13
ENDBRANCH   4   7
BRANCH   1  22
ATOM     22  O   UNL     1       4.024   4.710  18.312  0.00  0.00    +0.000 OA
BRANCH  22  25
ATOM     23  C   UNL     1       6.673   4.565  15.759  0.00  0.00    +0.000 A 
ATOM     24  C   UNL     1       5.390   4.594  16.285  0.00  0.00    +0.000 A 
ATOM     25  C   UNL     1       5.241   4.687  17.665  0.00  0.00    +0.000 A 
ATOM     26  C   UNL     1       6.372   4.694  18.474  0.00  0.00    +0.000 A 
ATOM     27  C   UNL     1       7.618   4.650  17.861  0.00  0.00    +0.000 A 
ATOM     28  N   UNL     1       7.802   4.589  16.525  0.00  0.00    +0.000 NA
BRANCH  23  31
ATOM     29  C   UNL     1       6.262   3.317  12.216  0.00  0.00    +0.000 C 
ATOM     30  N   UNL     1       6.182   3.489  13.639  0.00  0.00    +0.000 N 
ATOM     31  C   UNL     1       6.846   4.514  14.278  0.00  0.00    +0.000 C 
ATOM     32  O   UNL     1       7.538   5.342  13.687  0.00  0.00    +0.000 OA
ATOM     33  H   UNL     1       5.576   2.903  14.210  0.00  0.00    +0.000 HD
ENDBRANCH  23  31
ENDBRANCH  22  25
ENDBRANCH   1  22
TORSDOF 6
ENDMDL
MODEL 4
REMARK VINA RESULT:      -9.1      0.285      1.040
REMARK  Name = 
REMARK  7 active torsions:
REMARK  status: ('A' for Active; 'I' for Inactive)
REMARK    1  A    between atoms: C_1  and  N_2
REMARK    2  A    between atoms: C_3  and  C_5
REMARK    3  A    between atoms: C_7  and  O_8
REMARK    4  A    between atoms: O_8  and  C_9
REMARK    5  A    between atoms: C_12  and  C_13
REMARK    6  A    between atoms: C_16  and  C_17
REMARK    7  A    between atoms: C_20  and  N_21
REMARK                            x       y       z     vdW  Elec       q    Type
REMARK                         _______ _______ _______ _____ _____    ______ ____
ROOT
ATOM      1  C   UNL     1       2.978   6.136  18.679  0.00  0.00    +0.000 A 
ATOM      2  C   UNL     1       2.920   7.160  17.729  0.00  0.00    +0.000 A 
ATOM      3  C   UNL     1       2.313   8.380  18.051  0.00  0.00    +0.000 A 
ATOM      4  C   UNL     1       1.750   8.574  19.319  0.00  0.00    +0.000 A 
ATOM      5  C   UNL     1       1.814   7.554  20.268  0.00  0.00    +0.000 A 
ATOM      6  C   UNL     1       2.400   6.333  19.937  0.00  0.00    +0.000 A 
ENDROOT
BRANCH   4   7
ATOM      7  C   UNL     1       1.068   9.850  19.628  0.00  0.00    +0.000 C 
ATOM      8  N   UNL     1       0.871  10.273  20.839  0.00  0.00    +0.000 NA
ATOM      9  N   UNL     1       0.150  11.408  20.731  0.00  0.00    +0.000 N 
ATOM     10  C   UNL     1      -0.003  11.911  19.369  0.00  0.00    +0.000 C 
ATOM     11  C   UNL     1       0.580  10.770  18.538  0.00  0.00    +0.000 C 
ATOM     12  H   UNL     1       0.314  12.107  21.456  0.00  0.00    +0.000 HD
BRANCH  10  13
ATOM     13  C   UNL     1       0.663  13.255  19.139  0.00  0.00    +0.000 A 
ATOM     14  C   UNL     1      -0.083  14.443  19.055  0.00  0.00    +0.000 A 
ATOM     15  C   UNL     1       0.540  15.667  18.801  0.00  0.00    +0.000 A 
ATOM     16  C   UNL     1       1.929  15.715  18.631  0.00  0.00    +0.000 A 
ATOM     17  C   UNL     1       2.694  14.549  18.733  0.00  0.00    +0.000 A 
ATOM     18  C   UNL     1       2.061  13.328  18.991  0.00  0.00    +0.000 A 
BRANCH  16  19
ATOM     19  N   UNL     1       2.581  16.996  18.332  0.00  0.00    +0.000 N 
ATOM     20  O   UNL     1       3.306  17.494  19.205  0.00  0.00    +0.000 OA
ATOM     21  O   UNL     1       2.367  17.507  17.222  0.00  0.00    +0.000 OA
ENDBRANCH  16  19
ENDBRANCH  10  13
ENDBRANCH   4   7
BRANCH   1  22
ATOM     22  O   UNL     1       3.561   4.956  18.276  0.00  0.00    +0.000 OA
BRANCH  22  25
ATOM     23  C   UNL     1       6.516   4.802  16.084  0.00  0.00    +0.000 A 
ATOM     24  C   UNL     1       5.177   4.795  16.444  0.00  0.00    +0.000 A 
ATOM     25  C   UNL     1       4.850   4.959  17.787  0.00  0.00    +0.000 A 
ATOM     26  C   UNL     1       5.868   5.071  18.728  0.00  0.00    +0.000 A 
ATOM     27  C   UNL     1       7.182   5.056  18.277  0.00  0.00    +0.000 A 
ATOM     28  N   UNL     1       7.536   4.929  16.981  0.00  0.00    +0.000 NA
BRANCH  23  31
ATOM     29  C   UNL     1       6.404   3.507  12.536  0.00  0.00    +0.000 C 
ATOM     30  N   UNL     1       6.159   3.737  13.932  0.00  0.00    +0.000 N 
ATOM     31  C   UNL     1       6.877   4.676  14.642  0.00  0.00    +0.000 C 
ATOM     32  O   UNL     1       7.758   5.373  14.141  0.00  0.00    +0.000 OA
ATOM     33  H   UNL     1       5.402   3.266  14.422  0.00  0.00    +0.000 HD
ENDBRANCH  23  31
ENDBRANCH  22  25
ENDBRANCH   1  22
TORSDOF 6
ENDMDL
MODEL 5
REMARK VINA RESULT:      -9.0      3.550      4.388
REMARK  Name = 
REMARK  7 active torsions:
REMARK  status: ('A' for Active; 'I' for Inactive)
REMARK    1  A    between atoms: C_1  and  N_2
REMARK    2  A    between atoms: C_3  and  C_5
REMARK    3  A    between atoms: C_7  and  O_8
REMARK    4  A    between atoms: O_8  and  C_9
REMARK    5  A    between atoms: C_12  and  C_13
REMARK    6  A    between atoms: C_16  and  C_17
REMARK    7  A    between atoms: C_20  and  N_21
REMARK                            x       y       z     vdW  Elec       q    Type
REMARK                         _______ _______ _______ _____ _____    ______ ____
ROOT
ATOM      1  C   UNL     1       3.034   6.396  18.862  0.00  0.00    +0.000 A 
ATOM      2  C   UNL     1       2.377   6.678  20.063  0.00  0.00    +0.000 A 
ATOM      3  C   UNL     1       1.644   7.864  20.197  0.00  0.00    +0.000 A 
ATOM      4  C   UNL     1       1.578   8.776  19.136  0.00  0.00    +0.000 A 
ATOM      5  C   UNL     1       2.230   8.490  17.936  0.00  0.00    +0.000 A 
ATOM      6  C   UNL     1       2.977   7.319  17.813  0.00  0.00    +0.000 A 
ENDROOT
BRANCH   4   7
ATOM      7  C   UNL     1       0.843  10.048  19.310  0.00  0.00    +0.000 C 
ATOM      8  N   UNL     1       1.130  11.129  18.651  0.00  0.00    +0.000 NA
ATOM      9  N   UNL     1       0.318  12.092  19.132  0.00  0.00    +0.000 N 
ATOM     10  C   UNL     1      -0.724  11.620  20.040  0.00  0.00    +0.000 C 
ATOM     11  C   UNL     1      -0.328  10.161  20.253  0.00  0.00    +0.000 C 
ATOM     12  H   UNL     1       0.045  12.814  18.466  0.00  0.00    +0.000 HD
BRANCH  10  13
ATOM     13  C   UNL     1      -2.130  11.815  19.504  0.00  0.00    +0.000 A 
ATOM     14  C   UNL     1      -3.114  12.494  20.242  0.00  0.00    +0.000 A 
ATOM     15  C   UNL     1      -4.416  12.629  19.753  0.00  0.00    +0.000 A 
ATOM     16  C   UNL     1      -4.747  12.083  18.507  0.00  0.00    +0.000 A 
ATOM     17  C   UNL     1      -3.779  11.423  17.745  0.00  0.00    +0.000 A 
ATOM     18  C   UNL     1      -2.477  11.296  18.242  0.00  0.00    +0.000 A 
BRANCH  16  19
ATOM     19  N   UNL     1      -6.123  12.196  18.007  0.00  0.00    +0.000 N 
ATOM     20  O   UNL     1      -6.837  11.183  18.042  0.00  0.00    +0.000 OA
ATOM     21  O   UNL     1      -6.490  13.299  17.575  0.00  0.00    +0.000 OA
ENDBRANCH  16  19
ENDBRANCH  10  13
ENDBRANCH   4   7
BRANCH   1  22
ATOM     22  O   UNL     1       3.760   5.227  18.820  0.00  0.00    +0.000 OA
BRANCH  22  25
ATOM     23  C   UNL     1       6.580   4.995  16.463  0.00  0.00    +0.000 A 
ATOM     24  C   UNL     1       5.265   4.991  16.904  0.00  0.00    +0.000 A 
ATOM     25  C   UNL     1       5.018   5.219  18.254  0.00  0.00    +0.000 A 
ATOM     26  C   UNL     1       6.088   5.392  19.124  0.00  0.00    +0.000 A 
ATOM     27  C   UNL     1       7.373   5.369  18.596  0.00  0.00    +0.000 A 
ATOM     28  N   UNL     1       7.651   5.179  17.289  0.00  0.00    +0.000 NA
BRANCH  23  31
ATOM     29  C   UNL     1       6.213   3.579  12.979  0.00  0.00    +0.000 C 
ATOM     30  N   UNL     1       6.057   3.871  14.375  0.00  0.00    +0.000 N 
ATOM     31  C   UNL     1       6.855   4.799  15.010  0.00  0.00    +0.000 C 
ATOM     32  O   UNL     1       7.740   5.434  14.436  0.00  0.00    +0.000 OA
ATOM     33  H   UNL     1       5.306   3.456  14.923  0.00  0.00    +0.000 HD
ENDBRANCH  23  31
ENDBRANCH  22  25
ENDBRANCH   1  22
TORSDOF 6
ENDMDL
MODEL 6
REMARK VINA RESULT:      -9.0      3.375      4.274
REMARK  Name = 
REMARK  7 active torsions:
REMARK  status: ('A' for Active; 'I' for Inactive)
REMARK    1  A    between atoms: C_1  and  N_2
REMARK    2  A    between atoms: C_3  and  C_5
REMARK    3  A    between atoms: C_7  and  O_8
REMARK    4  A    between atoms: O_8  and  C_9
REMARK    5  A    between atoms: C_12  and  C_13
REMARK    6  A    between atoms: C_16  and  C_17
REMARK    7  A    between atoms: C_20  and  N_21
REMARK                            x       y       z     vdW  Elec       q    Type
REMARK                         _______ _______ _______ _____ _____    ______ ____
ROOT
ATOM      1  C   UNL     1       3.214   6.317  18.853  0.00  0.00    +0.000 A 
ATOM      2  C   UNL     1       2.399   6.575  19.959  0.00  0.00    +0.000 A 
ATOM      3  C   UNL     1       1.605   7.728  19.989  0.00  0.00    +0.000 A 
ATOM      4  C   UNL     1       1.634   8.632  18.920  0.00  0.00    +0.000 A 
ATOM      5  C   UNL     1       2.444   8.370  17.814  0.00  0.00    +0.000 A 
ATOM      6  C   UNL     1       3.250   7.233  17.797  0.00  0.00    +0.000 A 
ENDROOT
BRANCH   4   7
ATOM      7  C   UNL     1       0.828   9.871  18.987  0.00  0.00    +0.000 C 
ATOM      8  N   UNL     1      -0.089  10.168  18.117  0.00  0.00    +0.000 NA
ATOM      9  N   UNL     1      -0.540  11.396  18.448  0.00  0.00    +0.000 N 
ATOM     10  C   UNL     1      -0.053  11.905  19.726  0.00  0.00    +0.000 C 
ATOM     11  C   UNL     1       0.998  10.865  20.107  0.00  0.00    +0.000 C 
ATOM     12  H   UNL     1      -1.519  11.580  18.230  0.00  0.00    +0.000 HD
BRANCH  10  13
ATOM     13  C   UNL     1      -1.147  12.097  20.761  0.00  0.00    +0.000 A 
ATOM     14  C   UNL     1      -2.378  12.687  20.431  0.00  0.00    +0.000 A 
ATOM     15  C   UNL     1      -3.359  12.896  21.404  0.00  0.00    +0.000 A 
ATOM     16  C   UNL     1      -3.115  12.508  22.727  0.00  0.00    +0.000 A 
ATOM     17  C   UNL     1      -1.906  11.898  23.073  0.00  0.00    +0.000 A 
ATOM     18  C   UNL     1      -0.931  11.690  22.091  0.00  0.00    +0.000 A 
BRANCH  16  19
ATOM     19  N   UNL     1      -4.133  12.756  23.756  0.00  0.00    +0.000 N 
ATOM     20  O   UNL     1      -4.493  11.799  24.456  0.00  0.00    +0.000 OA
ATOM     21  O   UNL     1      -4.574  13.911  23.864  0.00  0.00    +0.000 OA
ENDBRANCH  16  19
ENDBRANCH  10  13
ENDBRANCH   4   7
BRANCH   1  22
ATOM     22  O   UNL     1       3.990   5.182  18.913  0.00  0.00    +0.000 OA
BRANCH  22  25
ATOM     23  C   UNL     1       6.604   4.814  16.347  0.00  0.00    +0.000 A 
ATOM     24  C   UNL     1       5.331   4.841  16.894  0.00  0.00    +0.000 A 
ATOM     25  C   UNL     1       5.196   5.137  18.247  0.00  0.00    +0.000 A 
ATOM     26  C   UNL     1       6.336   5.344  19.017  0.00  0.00    +0.000 A 
ATOM     27  C   UNL     1       7.572   5.286  18.386  0.00  0.00    +0.000 A 
ATOM     28  N   UNL     1       7.740   5.031  17.071  0.00  0.00    +0.000 NA
BRANCH  23  31
ATOM     29  C   UNL     1       7.874   5.237  12.813  0.00  0.00    +0.000 C 
ATOM     30  N   UNL     1       7.633   5.378  14.221  0.00  0.00    +0.000 N 
ATOM     31  C   UNL     1       6.758   4.546  14.887  0.00  0.00    +0.000 C 
ATOM     32  O   UNL     1       6.136   3.639  14.336  0.00  0.00    +0.000 OA
ATOM     33  H   UNL     1       8.152   6.048  14.784  0.00  0.00    +0.000 HD
ENDBRANCH  23  31
ENDBRANCH  22  25
ENDBRANCH   1  22
TORSDOF 6
ENDMDL
MODEL 7
REMARK VINA RESULT:      -9.0      3.380      4.143
REMARK  Name = 
REMARK  7 active torsions:
REMARK  status: ('A' for Active; 'I' for Inactive)
REMARK    1  A    between atoms: C_1  and  N_2
REMARK    2  A    between atoms: C_3  and  C_5
REMARK    3  A    between atoms: C_7  and  O_8
REMARK    4  A    between atoms: O_8  and  C_9
REMARK    5  A    between atoms: C_12  and  C_13
REMARK    6  A    between atoms: C_16  and  C_17
REMARK    7  A    between atoms: C_20  and  N_21
REMARK                            x       y       z     vdW  Elec       q    Type
REMARK                         _______ _______ _______ _____ _____    ______ ____
ROOT
ATOM      1  C   UNL     1       3.092   6.260  18.933  0.00  0.00    +0.000 A 
ATOM      2  C   UNL     1       3.041   7.093  17.812  0.00  0.00    +0.000 A 
ATOM      3  C   UNL     1       2.323   8.294  17.864  0.00  0.00    +0.000 A 
ATOM      4  C   UNL     1       1.643   8.658  19.033  0.00  0.00    +0.000 A 
ATOM      5  C   UNL     1       1.699   7.828  20.153  0.00  0.00    +0.000 A 
ATOM      6  C   UNL     1       2.397   6.623  20.091  0.00  0.00    +0.000 A 
ENDROOT
BRANCH   4   7
ATOM      7  C   UNL     1       0.847   9.905  19.058  0.00  0.00    +0.000 C 
ATOM      8  N   UNL     1      -0.067  10.181  18.179  0.00  0.00    +0.000 NA
ATOM      9  N   UNL     1      -0.508  11.422  18.467  0.00  0.00    +0.000 N 
ATOM     10  C   UNL     1      -0.015  11.971  19.727  0.00  0.00    +0.000 C 
ATOM     11  C   UNL     1       1.027  10.936  20.143  0.00  0.00    +0.000 C 
ATOM     12  H   UNL     1      -1.485  11.608  18.243  0.00  0.00    +0.000 HD
BRANCH  10  13
ATOM     13  C   UNL     1      -1.107  12.208  20.754  0.00  0.00    +0.000 A 
ATOM     14  C   UNL     1      -0.890  11.994  22.125  0.00  0.00    +0.000 A 
ATOM     15  C   UNL     1      -1.918  12.176  23.054  0.00  0.00    +0.000 A 
ATOM     16  C   UNL     1      -3.183  12.582  22.614  0.00  0.00    +0.000 A 
ATOM     17  C   UNL     1      -3.416  12.824  21.257  0.00  0.00    +0.000 A 
ATOM     18  C   UNL     1      -2.379  12.642  20.336  0.00  0.00    +0.000 A 
BRANCH  16  19
ATOM     19  N   UNL     1      -4.273  12.744  23.586  0.00  0.00    +0.000 N 
ATOM     20  O   UNL     1      -4.429  11.853  24.433  0.00  0.00    +0.000 OA
ATOM     21  O   UNL     1      -4.975  13.763  23.500  0.00  0.00    +0.000 OA
ENDBRANCH  16  19
ENDBRANCH  10  13
ENDBRANCH   4   7
BRANCH   1  22
ATOM     22  O   UNL     1       3.790   5.082  18.791  0.00  0.00    +0.000 OA
BRANCH  22  25
ATOM     23  C   UNL     1       6.551   4.821  16.370  0.00  0.00    +0.000 A 
ATOM     24  C   UNL     1       5.250   4.797  16.848  0.00  0.00    +0.000 A 
ATOM     25  C   UNL     1       5.031   5.087  18.191  0.00  0.00    +0.000 A 
ATOM     26  C   UNL     1       6.118   5.339  19.020  0.00  0.00    +0.000 A 
ATOM     27  C   UNL     1       7.388   5.332  18.457  0.00  0.00    +0.000 A 
ATOM     28  N   UNL     1       7.637   5.084  17.154  0.00  0.00    +0.000 NA
BRANCH  23  31
ATOM     29  C   UNL     1       7.972   5.311  12.903  0.00  0.00    +0.000 C 
ATOM     30  N   UNL     1       7.651   5.441  14.296  0.00  0.00    +0.000 N 
ATOM     31  C   UNL     1       6.794   4.560  14.921  0.00  0.00    +0.000 C 
ATOM     32  O   UNL     1       6.255   3.617  14.343  0.00  0.00    +0.000 OA
ATOM     33  H   UNL     1       8.101   6.142  14.881  0.00  0.00    +0.000 HD
ENDBRANCH  23  31
ENDBRANCH  22  25
ENDBRANCH   1  22
TORSDOF 6
ENDMDL
MODEL 8
REMARK VINA RESULT:      -8.9      3.407      4.244
REMARK  Name = 
REMARK  7 active torsions:
REMARK  status: ('A' for Active; 'I' for Inactive)
REMARK    1  A    between atoms: C_1  and  N_2
REMARK    2  A    between atoms: C_3  and  C_5
REMARK    3  A    between atoms: C_7  and  O_8
REMARK    4  A    between atoms: O_8  and  C_9
REMARK    5  A    between atoms: C_12  and  C_13
REMARK    6  A    between atoms: C_16  and  C_17
REMARK    7  A    between atoms: C_20  and  N_21
REMARK                            x       y       z     vdW  Elec       q    Type
REMARK                         _______ _______ _______ _____ _____    ______ ____
ROOT
ATOM      1  C   UNL     1       3.154   6.402  18.848  0.00  0.00    +0.000 A 
ATOM      2  C   UNL     1       2.394   6.702  19.982  0.00  0.00    +0.000 A 
ATOM      3  C   UNL     1       1.634   7.877  20.025  0.00  0.00    +0.000 A 
ATOM      4  C   UNL     1       1.643   8.762  18.939  0.00  0.00    +0.000 A 
ATOM      5  C   UNL     1       2.398   8.458  17.805  0.00  0.00    +0.000 A 
ATOM      6  C   UNL     1       3.170   7.298  17.775  0.00  0.00    +0.000 A 
ENDROOT
BRANCH   4   7
ATOM      7  C   UNL     1       0.876  10.024  19.017  0.00  0.00    +0.000 C 
ATOM      8  N   UNL     1       0.005  10.382  18.123  0.00  0.00    +0.000 NA
ATOM      9  N   UNL     1      -0.419  11.612  18.478  0.00  0.00    +0.000 N 
ATOM     10  C   UNL     1       0.033  12.062  19.791  0.00  0.00    +0.000 C 
ATOM     11  C   UNL     1       1.034  10.974  20.177  0.00  0.00    +0.000 C 
ATOM     12  H   UNL     1      -1.382  11.837  18.229  0.00  0.00    +0.000 HD
BRANCH  10  13
ATOM     13  C   UNL     1      -1.094  12.257  20.788  0.00  0.00    +0.000 A 
ATOM     14  C   UNL     1      -0.920  12.003  22.159  0.00  0.00    +0.000 A 
ATOM     15  C   UNL     1      -1.980  12.147  23.058  0.00  0.00    +0.000 A 
ATOM     16  C   UNL     1      -3.235  12.553  22.589  0.00  0.00    +0.000 A 
ATOM     17  C   UNL     1      -3.425  12.833  21.232  0.00  0.00    +0.000 A 
ATOM     18  C   UNL     1      -2.357  12.690  20.341  0.00  0.00    +0.000 A 
BRANCH  16  19
ATOM     19  N   UNL     1      -4.357  12.674  23.528  0.00  0.00    +0.000 N 
ATOM     20  O   UNL     1      -5.201  13.555  23.311  0.00  0.00    +0.000 OA
ATOM     21  O   UNL     1      -4.395  11.886  24.485  0.00  0.00    +0.000 OA
ENDBRANCH  16  19
ENDBRANCH  10  13
ENDBRANCH   4   7
BRANCH   1  22
ATOM     22  O   UNL     1       3.899   5.245  18.897  0.00  0.00    +0.000 OA
BRANCH  22  25
ATOM     23  C   UNL     1       6.590   4.846  16.415  0.00  0.00    +0.000 A 
ATOM     24  C   UNL     1       5.300   4.882  16.923  0.00  0.00    +0.000 A 
ATOM     25  C   UNL     1       5.125   5.191  18.268  0.00  0.00    +0.000 A 
ATOM     26  C   UNL     1       6.241   5.402  19.071  0.00  0.00    +0.000 A 
ATOM     27  C   UNL     1       7.496   5.334  18.478  0.00  0.00    +0.000 A 
ATOM     28  N   UNL     1       7.704   5.066  17.172  0.00  0.00    +0.000 NA
BRANCH  23  31
ATOM     29  C   UNL     1       7.923   5.270  12.905  0.00  0.00    +0.000 C 
ATOM     30  N   UNL     1       7.643   5.421  14.305  0.00  0.00    +0.000 N 
ATOM     31  C   UNL     1       6.787   4.564  14.963  0.00  0.00    +0.000 C 
ATOM     32  O   UNL     1       6.214   3.625  14.411  0.00  0.00    +0.000 OA
ATOM     33  H   UNL     1       8.123   6.119  14.869  0.00  0.00    +0.000 HD
ENDBRANCH  23  31
ENDBRANCH  22  25
ENDBRANCH   1  22
TORSDOF 6
ENDMDL
MODEL 9
REMARK VINA RESULT:      -8.9      3.621      4.390
REMARK  Name = 
REMARK  7 active torsions:
REMARK  status: ('A' for Active; 'I' for Inactive)
REMARK    1  A    between atoms: C_1  and  N_2
REMARK    2  A    between atoms: C_3  and  C_5
REMARK    3  A    between atoms: C_7  and  O_8
REMARK    4  A    between atoms: O_8  and  C_9
REMARK    5  A    between atoms: C_12  and  C_13
REMARK    6  A    between atoms: C_16  and  C_17
REMARK    7  A    between atoms: C_20  and  N_21
REMARK                            x       y       z     vdW  Elec       q    Type
REMARK                         _______ _______ _______ _____ _____    ______ ____
ROOT
ATOM      1  C   UNL     1       2.544   6.621  18.759  0.00  0.00    +0.000 A 
ATOM      2  C   UNL     1       2.433   7.644  17.813  0.00  0.00    +0.000 A 
ATOM      3  C   UNL     1       1.928   8.894  18.191  0.00  0.00    +0.000 A 
ATOM      4  C   UNL     1       1.519   9.120  19.512  0.00  0.00    +0.000 A 
ATOM      5  C   UNL     1       1.636   8.099  20.456  0.00  0.00    +0.000 A 
ATOM      6  C   UNL     1       2.119   6.849  20.072  0.00  0.00    +0.000 A 
ENDROOT
BRANCH   4   7
ATOM      7  C   UNL     1       0.941  10.429  19.885  0.00  0.00    +0.000 C 
ATOM      8  N   UNL     1       0.709  11.373  19.024  0.00  0.00    +0.000 NA
ATOM      9  N   UNL     1       0.272  12.433  19.734  0.00  0.00    +0.000 N 
ATOM     10  C   UNL     1       0.001  12.160  21.142  0.00  0.00    +0.000 C 
ATOM     11  C   UNL     1       0.547  10.743  21.305  0.00  0.00    +0.000 C 
ATOM     12  H   UNL     1      -0.390  13.043  19.255  0.00  0.00    +0.000 HD
BRANCH  10  13
ATOM     13  C   UNL     1      -1.460  12.315  21.521  0.00  0.00    +0.000 A 
ATOM     14  C   UNL     1      -2.433  12.683  20.576  0.00  0.00    +0.000 A 
ATOM     15  C   UNL     1      -3.767  12.863  20.949  0.00  0.00    +0.000 A 
ATOM     16  C   UNL     1      -4.144  12.671  22.284  0.00  0.00    +0.000 A 
ATOM     17  C   UNL     1      -3.198  12.282  23.237  0.00  0.00    +0.000 A 
ATOM     18  C   UNL     1      -1.865  12.101  22.852  0.00  0.00    +0.000 A 
BRANCH  16  19
ATOM     19  N   UNL     1      -5.540  12.891  22.683  0.00  0.00    +0.000 N 
ATOM     20  O   UNL     1      -5.784  13.850  23.429  0.00  0.00    +0.000 OA
ATOM     21  O   UNL     1      -6.394  12.101  22.252  0.00  0.00    +0.000 OA
ENDBRANCH  16  19
ENDBRANCH  10  13
ENDBRANCH   4   7
BRANCH   1  22
ATOM     22  O   UNL     1       3.018   5.411  18.303  0.00  0.00    +0.000 OA
BRANCH  22  25
ATOM     23  C   UNL     1       6.171   4.956  16.455  0.00  0.00    +0.000 A 
ATOM     24  C   UNL     1       4.806   5.091  16.662  0.00  0.00    +0.000 A 
ATOM     25  C   UNL     1       4.348   5.279  17.962  0.00  0.00    +0.000 A 
ATOM     26  C   UNL     1       5.258   5.275  19.014  0.00  0.00    +0.000 A 
ATOM     27  C   UNL     1       6.606   5.122  18.714  0.00  0.00    +0.000 A 
ATOM     28  N   UNL     1       7.090   4.967  17.464  0.00  0.00    +0.000 NA
BRANCH  23  31
ATOM     29  C   UNL     1       6.355   3.670  12.907  0.00  0.00    +0.000 C 
ATOM     30  N   UNL     1       5.976   3.919  14.269  0.00  0.00    +0.000 N 
ATOM     31  C   UNL     1       6.678   4.803  15.061  0.00  0.00    +0.000 C 
ATOM     32  O   UNL     1       7.659   5.431  14.665  0.00  0.00    +0.000 OA
ATOM     33  H   UNL     1       5.136   3.506  14.670  0.00  0.00    +0.000 HD
ENDBRANCH  23  31
ENDBRANCH  22  25
ENDBRANCH   1  22
TORSDOF 6
ENDMDL
