MODEL 1
REMARK VINA RESULT:      -6.2      0.000      0.000
REMARK  Name = 
REMARK  11 active torsions:
REMARK  status: ('A' for Active; 'I' for Inactive)
REMARK    1  A    between atoms: C_2  and  C_3
REMARK    2  A    between atoms: C_4  and  C_5
REMARK    3  A    between atoms: C_5  and  C_6
REMARK    4  A    between atoms: C_6  and  C_7
REMARK    5  A    between atoms: C_7  and  C_8
REMARK    6  A    between atoms: C_8  and  C_9
REMARK    7  A    between atoms: C_10  and  C_11
REMARK    8  A    between atoms: N_13  and  C_14
REMARK    9  A    between atoms: C_14  and  C_15
REMARK   10  A    between atoms: C_15  and  C_16
REMARK   11  A    between atoms: C_15  and  C_17
REMARK                            x       y       z     vdW  Elec       q    Type
REMARK                         _______ _______ _______ _____ _____    ______ ____
ROOT
ATOM      1  C   UNL     1       4.362   5.094  16.849  0.00  0.00    +0.000 C 
ATOM      2  C   UNL     1       3.919   6.250  17.374  0.00  0.00    +0.000 C 
ENDROOT
BRANCH   2   3
ATOM      3  C   UNL     1       3.004   6.227  18.547  0.00  0.00    +0.000 C 
ATOM      4  O   UNL     1       2.636   7.254  19.108  0.00  0.00    +0.000 OA
ATOM      5  N   UNL     1       2.621   4.971  18.947  0.00  0.00    +0.000 N 
ATOM      6  H   UNL     1       2.971   4.153  18.466  0.00  0.00    +0.000 HD
BRANCH   5   7
ATOM      7  C   UNL     1       1.736   4.795  20.090  0.00  0.00    +0.000 C 
BRANCH   7   8
ATOM      8  C   UNL     1       1.040   3.423  20.123  0.00  0.00    +0.000 C 
ATOM      9  C   UNL     1       1.477   2.548  18.946  0.00  0.00    +0.000 C 
ATOM     10  C   UNL     1       1.352   2.693  21.435  0.00  0.00    +0.000 C 
ENDBRANCH   7   8
ENDBRANCH   5   7
ENDBRANCH   2   3
BRANCH   1  11
ATOM     11  C   UNL     1       5.292   5.003  15.670  0.00  0.00    +0.000 C 
BRANCH  11  12
ATOM     12  C   UNL     1       6.678   5.570  15.985  0.00  0.00    +0.000 C 
BRANCH  12  13
ATOM     13  C   UNL     1       7.433   4.678  16.971  0.00  0.00    +0.000 C 
BRANCH  13  14
ATOM     14  C   UNL     1       7.422   5.280  18.373  0.00  0.00    +0.000 C 
BRANCH  14  16
ATOM     15  C   UNL     1       8.184   7.997  18.268  0.00  0.00    +0.000 C 
ATOM     16  C   UNL     1       7.831   6.742  18.317  0.00  0.00    +0.000 C 
BRANCH  15  18
ATOM     17  C   UNL     1       8.931  10.629  18.165  0.00  0.00    +0.000 C 
ATOM     18  C   UNL     1       8.603   9.470  18.211  0.00  0.00    +0.000 C 
ENDBRANCH  15  18
ENDBRANCH  14  16
ENDBRANCH  13  14
ENDBRANCH  12  13
ENDBRANCH  11  12
ENDBRANCH   1  11
TORSDOF 9
ENDMDL
MODEL 2
REMARK VINA RESULT:      -6.2      2.835      5.202
REMARK  Name = 
REMARK  11 active torsions:
REMARK  status: ('A' for Active; 'I' for Inactive)
REMARK    1  A    between atoms: C_2  and  C_3
REMARK    2  A    between atoms: C_4  and  C_5
REMARK    3  A    between atoms: C_5  and  C_6
REMARK    4  A    between atoms: C_6  and  C_7
REMARK    5  A    between atoms: C_7  and  C_8
REMARK    6  A    between atoms: C_8  and  C_9
REMARK    7  A    between atoms: C_10  and  C_11
REMARK    8  A    between atoms: N_13  and  C_14
REMARK    9  A    between atoms: C_14  and  C_15
REMARK   10  A    between atoms: C_15  and  C_16
REMARK   11  A    between atoms: C_15  and  C_17
REMARK                            x       y       z     vdW  Elec       q    Type
REMARK                         _______ _______ _______ _____ _____    ______ ____
ROOT
ATOM      1  C   UNL     1       4.857   4.194  17.280  0.00  0.00    +0.000 C 
ATOM      2  C   UNL     1       3.939   5.163  17.114  0.00  0.00    +0.000 C 
ENDROOT
BRANCH   2   3
ATOM      3  C   UNL     1       3.033   5.524  18.238  0.00  0.00    +0.000 C 
ATOM      4  O   UNL     1       2.283   6.494  18.186  0.00  0.00    +0.000 OA
ATOM      5  N   UNL     1       3.117   4.694  19.328  0.00  0.00    +0.000 N 
ATOM      6  H   UNL     1       3.770   3.921  19.332  0.00  0.00    +0.000 HD
BRANCH   5   7
ATOM      7  C   UNL     1       2.298   4.934  20.507  0.00  0.00    +0.000 C 
BRANCH   7   8
ATOM      8  C   UNL     1       1.498   3.699  20.962  0.00  0.00    +0.000 C 
ATOM      9  C   UNL     1       0.757   3.053  19.789  0.00  0.00    +0.000 C 
ATOM     10  C   UNL     1       2.429   2.662  21.600  0.00  0.00    +0.000 C 
ENDBRANCH   7   8
ENDBRANCH   5   7
ENDBRANCH   2   3
BRANCH   1  11
ATOM     11  C   UNL     1       5.823   3.754  16.215  0.00  0.00    +0.000 C 
BRANCH  11  12
ATOM     12  C   UNL     1       6.516   4.941  15.541  0.00  0.00    +0.000 C 
BRANCH  12  13
ATOM     13  C   UNL     1       6.740   4.680  14.050  0.00  0.00    +0.000 C 
BRANCH  13  14
ATOM     14  C   UNL     1       6.126   3.347  13.629  0.00  0.00    +0.000 C 
BRANCH  14  16
ATOM     15  C   UNL     1       4.386   3.730  11.439  0.00  0.00    +0.000 C 
ATOM     16  C   UNL     1       5.189   3.553  12.451  0.00  0.00    +0.000 C 
BRANCH  15  18
ATOM     17  C   UNL     1       2.694   4.108   9.319  0.00  0.00    +0.000 C 
ATOM     18  C   UNL     1       3.439   3.942  10.252  0.00  0.00    +0.000 C 
ENDBRANCH  15  18
ENDBRANCH  14  16
ENDBRANCH  13  14
ENDBRANCH  12  13
ENDBRANCH  11  12
ENDBRANCH   1  11
TORSDOF 9
ENDMDL
MODEL 3
REMARK VINA RESULT:      -6.1      2.432      4.718
REMARK  Name = 
REMARK  11 active torsions:
REMARK  status: ('A' for Active; 'I' for Inactive)
REMARK    1  A    between atoms: C_2  and  C_3
REMARK    2  A    between atoms: C_4  and  C_5
REMARK    3  A    between atoms: C_5  and  C_6
REMARK    4  A    between atoms: C_6  and  C_7
REMARK    5  A    between atoms: C_7  and  C_8
REMARK    6  A    between atoms: C_8  and  C_9
REMARK    7  A    between atoms: C_10  and  C_11
REMARK    8  A    between atoms: N_13  and  C_14
REMARK    9  A    between atoms: C_14  and  C_15
REMARK   10  A    between atoms: C_15  and  C_16
REMARK   11  A    between atoms: C_15  and  C_17
REMARK                            x       y       z     vdW  Elec       q    Type
REMARK                         _______ _______ _______ _____ _____    ______ ____
ROOT
ATOM      1  C   UNL     1       4.405   6.624  17.580  0.00  0.00    +0.000 C 
ATOM      2  C   UNL     1       3.123   6.955  17.818  0.00  0.00    +0.000 C 
ENDROOT
BRANCH   2   3
ATOM      3  C   UNL     1       2.521   6.676  19.150  0.00  0.00    +0.000 C 
ATOM      4  O   UNL     1       2.090   7.569  19.872  0.00  0.00    +0.000 OA
ATOM      5  N   UNL     1       2.501   5.348  19.499  0.00  0.00    +0.000 N 
ATOM      6  H   UNL     1       2.892   4.650  18.880  0.00  0.00    +0.000 HD
BRANCH   5   7
ATOM      7  C   UNL     1       1.952   4.927  20.781  0.00  0.00    +0.000 C 
BRANCH   7   8
ATOM      8  C   UNL     1       1.110   3.642  20.698  0.00  0.00    +0.000 C 
ATOM      9  C   UNL     1       1.089   3.082  19.274  0.00  0.00    +0.000 C 
ATOM     10  C   UNL     1       1.662   2.575  21.649  0.00  0.00    +0.000 C 
ENDBRANCH   7   8
ENDBRANCH   5   7
ENDBRANCH   2   3
BRANCH   1  11
ATOM     11  C   UNL     1       5.112   6.865  16.275  0.00  0.00    +0.000 C 
BRANCH  11  12
ATOM     12  C   UNL     1       5.162   5.606  15.407  0.00  0.00    +0.000 C 
BRANCH  12  13
ATOM     13  C   UNL     1       6.332   4.703  15.803  0.00  0.00    +0.000 C 
BRANCH  13  14
ATOM     14  C   UNL     1       7.041   4.154  14.568  0.00  0.00    +0.000 C 
BRANCH  14  16
ATOM     15  C   UNL     1       5.167   3.630  12.522  0.00  0.00    +0.000 C 
ATOM     16  C   UNL     1       6.032   3.872  13.467  0.00  0.00    +0.000 C 
BRANCH  15  18
ATOM     17  C   UNL     1       3.357   3.129  10.530  0.00  0.00    +0.000 C 
ATOM     18  C   UNL     1       4.153   3.349  11.408  0.00  0.00    +0.000 C 
ENDBRANCH  15  18
ENDBRANCH  14  16
ENDBRANCH  13  14
ENDBRANCH  12  13
ENDBRANCH  11  12
ENDBRANCH   1  11
TORSDOF 9
ENDMDL
MODEL 4
REMARK VINA RESULT:      -6.1      2.553      4.905
REMARK  Name = 
REMARK  11 active torsions:
REMARK  status: ('A' for Active; 'I' for Inactive)
REMARK    1  A    between atoms: C_2  and  C_3
REMARK    2  A    between atoms: C_4  and  C_5
REMARK    3  A    between atoms: C_5  and  C_6
REMARK    4  A    between atoms: C_6  and  C_7
REMARK    5  A    between atoms: C_7  and  C_8
REMARK    6  A    between atoms: C_8  and  C_9
REMARK    7  A    between atoms: C_10  and  C_11
REMARK    8  A    between atoms: N_13  and  C_14
REMARK    9  A    between atoms: C_14  and  C_15
REMARK   10  A    between atoms: C_15  and  C_16
REMARK   11  A    between atoms: C_15  and  C_17
REMARK                            x       y       z     vdW  Elec       q    Type
REMARK                         _______ _______ _______ _____ _____    ______ ____
ROOT
ATOM      1  C   UNL     1       4.182   5.204  17.612  0.00  0.00    +0.000 C 
ATOM      2  C   UNL     1       4.722   4.009  17.907  0.00  0.00    +0.000 C 
ENDROOT
BRANCH   2   3
ATOM      3  C   UNL     1       4.044   3.109  18.878  0.00  0.00    +0.000 C 
ATOM      4  O   UNL     1       4.642   2.587  19.814  0.00  0.00    +0.000 OA
ATOM      5  N   UNL     1       2.708   2.908  18.632  0.00  0.00    +0.000 N 
ATOM      6  H   UNL     1       2.265   3.342  17.833  0.00  0.00    +0.000 HD
BRANCH   5   7
ATOM      7  C   UNL     1       1.918   2.040  19.494  0.00  0.00    +0.000 C 
BRANCH   7   8
ATOM      8  C   UNL     1       1.052   2.806  20.511  0.00  0.00    +0.000 C 
ATOM      9  C   UNL     1       1.612   2.675  21.929  0.00  0.00    +0.000 C 
ATOM     10  C   UNL     1       0.972   4.291  20.138  0.00  0.00    +0.000 C 
ENDBRANCH   7   8
ENDBRANCH   5   7
ENDBRANCH   2   3
BRANCH   1  11
ATOM     11  C   UNL     1       4.780   6.187  16.644  0.00  0.00    +0.000 C 
BRANCH  11  12
ATOM     12  C   UNL     1       6.308   6.215  16.723  0.00  0.00    +0.000 C 
BRANCH  12  13
ATOM     13  C   UNL     1       6.941   5.859  15.377  0.00  0.00    +0.000 C 
BRANCH  13  14
ATOM     14  C   UNL     1       6.922   4.350  15.145  0.00  0.00    +0.000 C 
BRANCH  14  16
ATOM     15  C   UNL     1       5.296   3.731  12.922  0.00  0.00    +0.000 C 
ATOM     16  C   UNL     1       6.047   4.016  13.949  0.00  0.00    +0.000 C 
BRANCH  15  18
ATOM     17  C   UNL     1       3.708   3.127  10.775  0.00  0.00    +0.000 C 
ATOM     18  C   UNL     1       4.408   3.393  11.720  0.00  0.00    +0.000 C 
ENDBRANCH  15  18
ENDBRANCH  14  16
ENDBRANCH  13  14
ENDBRANCH  12  13
ENDBRANCH  11  12
ENDBRANCH   1  11
TORSDOF 9
ENDMDL
MODEL 5
REMARK VINA RESULT:      -6.1      3.460      7.247
REMARK  Name = 
REMARK  11 active torsions:
REMARK  status: ('A' for Active; 'I' for Inactive)
REMARK    1  A    between atoms: C_2  and  C_3
REMARK    2  A    between atoms: C_4  and  C_5
REMARK    3  A    between atoms: C_5  and  C_6
REMARK    4  A    between atoms: C_6  and  C_7
REMARK    5  A    between atoms: C_7  and  C_8
REMARK    6  A    between atoms: C_8  and  C_9
REMARK    7  A    between atoms: C_10  and  C_11
REMARK    8  A    between atoms: N_13  and  C_14
REMARK    9  A    between atoms: C_14  and  C_15
REMARK   10  A    between atoms: C_15  and  C_16
REMARK   11  A    between atoms: C_15  and  C_17
REMARK                            x       y       z     vdW  Elec       q    Type
REMARK                         _______ _______ _______ _____ _____    ______ ____
ROOT
ATOM      1  C   UNL     1       5.312   4.787  16.334  0.00  0.00    +0.000 C 
ATOM      2  C   UNL     1       6.563   5.037  15.908  0.00  0.00    +0.000 C 
ENDROOT
BRANCH   2   3
ATOM      3  C   UNL     1       6.917   4.816  14.480  0.00  0.00    +0.000 C 
ATOM      4  O   UNL     1       7.818   5.439  13.926  0.00  0.00    +0.000 OA
ATOM      5  N   UNL     1       6.149   3.875  13.841  0.00  0.00    +0.000 N 
ATOM      6  H   UNL     1       5.400   3.406  14.334  0.00  0.00    +0.000 HD
BRANCH   5   7
ATOM      7  C   UNL     1       6.374   3.564  12.436  0.00  0.00    +0.000 C 
BRANCH   7   8
ATOM      8  C   UNL     1       5.437   2.472  11.890  0.00  0.00    +0.000 C 
ATOM      9  C   UNL     1       4.284   3.078  11.086  0.00  0.00    +0.000 C 
ATOM     10  C   UNL     1       6.212   1.496  10.997  0.00  0.00    +0.000 C 
ENDBRANCH   7   8
ENDBRANCH   5   7
ENDBRANCH   2   3
BRANCH   1  11
ATOM     11  C   UNL     1       4.847   4.979  17.750  0.00  0.00    +0.000 C 
BRANCH  11  12
ATOM     12  C   UNL     1       4.702   6.460  18.112  0.00  0.00    +0.000 C 
BRANCH  12  13
ATOM     13  C   UNL     1       3.310   6.985  17.759  0.00  0.00    +0.000 C 
BRANCH  13  14
ATOM     14  C   UNL     1       2.499   7.277  19.019  0.00  0.00    +0.000 C 
BRANCH  14  16
ATOM     15  C   UNL     1       1.988   4.880  20.421  0.00  0.00    +0.000 C 
ATOM     16  C   UNL     1       2.223   5.986  19.773  0.00  0.00    +0.000 C 
BRANCH  15  18
ATOM     17  C   UNL     1       1.499   2.548  21.771  0.00  0.00    +0.000 C 
ATOM     18  C   UNL     1       1.714   3.575  21.178  0.00  0.00    +0.000 C 
ENDBRANCH  15  18
ENDBRANCH  14  16
ENDBRANCH  13  14
ENDBRANCH  12  13
ENDBRANCH  11  12
ENDBRANCH   1  11
TORSDOF 9
ENDMDL
MODEL 6
REMARK VINA RESULT:      -6.0      3.526      5.693
REMARK  Name = 
REMARK  11 active torsions:
REMARK  status: ('A' for Active; 'I' for Inactive)
REMARK    1  A    between atoms: C_2  and  C_3
REMARK    2  A    between atoms: C_4  and  C_5
REMARK    3  A    between atoms: C_5  and  C_6
REMARK    4  A    between atoms: C_6  and  C_7
REMARK    5  A    between atoms: C_7  and  C_8
REMARK    6  A    between atoms: C_8  and  C_9
REMARK    7  A    between atoms: C_10  and  C_11
REMARK    8  A    between atoms: N_13  and  C_14
REMARK    9  A    between atoms: C_14  and  C_15
REMARK   10  A    between atoms: C_15  and  C_16
REMARK   11  A    between atoms: C_15  and  C_17
REMARK                            x       y       z     vdW  Elec       q    Type
REMARK                         _______ _______ _______ _____ _____    ______ ____
ROOT
ATOM      1  C   UNL     1       5.185   4.655  15.767  0.00  0.00    +0.000 C 
ATOM      2  C   UNL     1       6.438   5.059  15.491  0.00  0.00    +0.000 C 
ENDROOT
BRANCH   2   3
ATOM      3  C   UNL     1       6.993   4.867  14.124  0.00  0.00    +0.000 C 
ATOM      4  O   UNL     1       7.945   5.520  13.708  0.00  0.00    +0.000 OA
ATOM      5  N   UNL     1       6.348   3.914  13.375  0.00  0.00    +0.000 N 
ATOM      6  H   UNL     1       5.551   3.420  13.754  0.00  0.00    +0.000 HD
BRANCH   5   7
ATOM      7  C   UNL     1       6.775   3.628  12.012  0.00  0.00    +0.000 C 
BRANCH   7   8
ATOM      8  C   UNL     1       5.750   2.813  11.205  0.00  0.00    +0.000 C 
ATOM      9  C   UNL     1       5.939   1.310  11.420  0.00  0.00    +0.000 C 
ATOM     10  C   UNL     1       4.321   3.201  11.604  0.00  0.00    +0.000 C 
ENDBRANCH   7   8
ENDBRANCH   5   7
ENDBRANCH   2   3
BRANCH   1  11
ATOM     11  C   UNL     1       4.525   4.805  17.110  0.00  0.00    +0.000 C 
BRANCH  11  12
ATOM     12  C   UNL     1       5.188   5.892  17.959  0.00  0.00    +0.000 C 
BRANCH  12  13
ATOM     13  C   UNL     1       6.052   5.284  19.065  0.00  0.00    +0.000 C 
BRANCH  13  14
ATOM     14  C   UNL     1       7.535   5.387  18.721  0.00  0.00    +0.000 C 
BRANCH  14  16
ATOM     15  C   UNL     1       8.282   8.097  18.450  0.00  0.00    +0.000 C 
ATOM     16  C   UNL     1       7.938   6.846  18.575  0.00  0.00    +0.000 C 
BRANCH  15  18
ATOM     17  C   UNL     1       9.005  10.724  18.178  0.00  0.00    +0.000 C 
ATOM     18  C   UNL     1       8.687   9.567  18.296  0.00  0.00    +0.000 C 
ENDBRANCH  15  18
ENDBRANCH  14  16
ENDBRANCH  13  14
ENDBRANCH  12  13
ENDBRANCH  11  12
ENDBRANCH   1  11
TORSDOF 9
ENDMDL
MODEL 7
REMARK VINA RESULT:      -6.0      3.684      5.981
REMARK  Name = 
REMARK  11 active torsions:
REMARK  status: ('A' for Active; 'I' for Inactive)
REMARK    1  A    between atoms: C_2  and  C_3
REMARK    2  A    between atoms: C_4  and  C_5
REMARK    3  A    between atoms: C_5  and  C_6
REMARK    4  A    between atoms: C_6  and  C_7
REMARK    5  A    between atoms: C_7  and  C_8
REMARK    6  A    between atoms: C_8  and  C_9
REMARK    7  A    between atoms: C_10  and  C_11
REMARK    8  A    between atoms: N_13  and  C_14
REMARK    9  A    between atoms: C_14  and  C_15
REMARK   10  A    between atoms: C_15  and  C_16
REMARK   11  A    between atoms: C_15  and  C_17
REMARK                            x       y       z     vdW  Elec       q    Type
REMARK                         _______ _______ _______ _____ _____    ______ ____
ROOT
ATOM      1  C   UNL     1       4.702   4.594  15.874  0.00  0.00    +0.000 C 
ATOM      2  C   UNL     1       4.779   4.300  17.184  0.00  0.00    +0.000 C 
ENDROOT
BRANCH   2   3
ATOM      3  C   UNL     1       3.562   4.388  18.036  0.00  0.00    +0.000 C 
ATOM      4  O   UNL     1       2.432   4.264  17.574  0.00  0.00    +0.000 OA
ATOM      5  N   UNL     1       3.812   4.627  19.364  0.00  0.00    +0.000 N 
ATOM      6  H   UNL     1       4.761   4.747  19.692  0.00  0.00    +0.000 HD
BRANCH   5   7
ATOM      7  C   UNL     1       2.714   4.751  20.314  0.00  0.00    +0.000 C 
BRANCH   7   8
ATOM      8  C   UNL     1       2.507   3.496  21.181  0.00  0.00    +0.000 C 
ATOM      9  C   UNL     1       1.070   2.980  21.079  0.00  0.00    +0.000 C 
ATOM     10  C   UNL     1       3.471   2.383  20.753  0.00  0.00    +0.000 C 
ENDBRANCH   7   8
ENDBRANCH   5   7
ENDBRANCH   2   3
BRANCH   1  11
ATOM     11  C   UNL     1       5.865   4.532  14.924  0.00  0.00    +0.000 C 
BRANCH  11  12
ATOM     12  C   UNL     1       5.413   4.387  13.469  0.00  0.00    +0.000 C 
BRANCH  12  13
ATOM     13  C   UNL     1       6.276   3.372  12.717  0.00  0.00    +0.000 C 
BRANCH  13  14
ATOM     14  C   UNL     1       5.409   2.402  11.919  0.00  0.00    +0.000 C 
BRANCH  14  16
ATOM     15  C   UNL     1       3.600   3.831  10.288  0.00  0.00    +0.000 C 
ATOM     16  C   UNL     1       4.435   3.172  11.041  0.00  0.00    +0.000 C 
BRANCH  15  18
ATOM     17  C   UNL     1       1.852   5.217   8.700  0.00  0.00    +0.000 C 
ATOM     18  C   UNL     1       2.622   4.606   9.398  0.00  0.00    +0.000 C 
ENDBRANCH  15  18
ENDBRANCH  14  16
ENDBRANCH  13  14
ENDBRANCH  12  13
ENDBRANCH  11  12
ENDBRANCH   1  11
TORSDOF 9
ENDMDL
MODEL 8
REMARK VINA RESULT:      -6.0      1.951      3.730
REMARK  Name = 
REMARK  11 active torsions:
REMARK  status: ('A' for Active; 'I' for Inactive)
REMARK    1  A    between atoms: C_2  and  C_3
REMARK    2  A    between atoms: C_4  and  C_5
REMARK    3  A    between atoms: C_5  and  C_6
REMARK    4  A    between atoms: C_6  and  C_7
REMARK    5  A    between atoms: C_7  and  C_8
REMARK    6  A    between atoms: C_8  and  C_9
REMARK    7  A    between atoms: C_10  and  C_11
REMARK    8  A    between atoms: N_13  and  C_14
REMARK    9  A    between atoms: C_14  and  C_15
REMARK   10  A    between atoms: C_15  and  C_16
REMARK   11  A    between atoms: C_15  and  C_17
REMARK                            x       y       z     vdW  Elec       q    Type
REMARK                         _______ _______ _______ _____ _____    ______ ____
ROOT
ATOM      1  C   UNL     1       3.789   6.117  17.675  0.00  0.00    +0.000 C 
ATOM      2  C   UNL     1       3.120   6.687  18.693  0.00  0.00    +0.000 C 
ENDROOT
BRANCH   2   3
ATOM      3  C   UNL     1       2.197   5.868  19.523  0.00  0.00    +0.000 C 
ATOM      4  O   UNL     1       1.780   6.254  20.611  0.00  0.00    +0.000 OA
ATOM      5  N   UNL     1       1.865   4.653  18.977  0.00  0.00    +0.000 N 
ATOM      6  H   UNL     1       2.255   4.369  18.087  0.00  0.00    +0.000 HD
BRANCH   5   7
ATOM      7  C   UNL     1       0.979   3.739  19.685  0.00  0.00    +0.000 C 
BRANCH   7   8
ATOM      8  C   UNL     1       1.693   2.489  20.229  0.00  0.00    +0.000 C 
ATOM      9  C   UNL     1       2.943   2.161  19.411  0.00  0.00    +0.000 C 
ATOM     10  C   UNL     1       2.092   2.695  21.695  0.00  0.00    +0.000 C 
ENDBRANCH   7   8
ENDBRANCH   5   7
ENDBRANCH   2   3
BRANCH   1  11
ATOM     11  C   UNL     1       4.749   6.849  16.778  0.00  0.00    +0.000 C 
BRANCH  11  12
ATOM     12  C   UNL     1       6.187   6.783  17.298  0.00  0.00    +0.000 C 
BRANCH  12  13
ATOM     13  C   UNL     1       6.451   5.470  18.037  0.00  0.00    +0.000 C 
BRANCH  13  14
ATOM     14  C   UNL     1       7.485   4.625  17.297  0.00  0.00    +0.000 C 
BRANCH  14  16
ATOM     15  C   UNL     1       6.560   4.012  14.700  0.00  0.00    +0.000 C 
ATOM     16  C   UNL     1       6.987   4.295  15.899  0.00  0.00    +0.000 C 
BRANCH  15  18
ATOM     17  C   UNL     1       5.672   3.416  12.180  0.00  0.00    +0.000 C 
ATOM     18  C   UNL     1       6.064   3.678  13.289  0.00  0.00    +0.000 C 
ENDBRANCH  15  18
ENDBRANCH  14  16
ENDBRANCH  13  14
ENDBRANCH  12  13
ENDBRANCH  11  12
ENDBRANCH   1  11
TORSDOF 9
ENDMDL
MODEL 9
REMARK VINA RESULT:      -5.8      2.133      6.134
REMARK  Name = 
REMARK  11 active torsions:
REMARK  status: ('A' for Active; 'I' for Inactive)
REMARK    1  A    between atoms: C_2  and  C_3
REMARK    2  A    between atoms: C_4  and  C_5
REMARK    3  A    between atoms: C_5  and  C_6
REMARK    4  A    between atoms: C_6  and  C_7
REMARK    5  A    between atoms: C_7  and  C_8
REMARK    6  A    between atoms: C_8  and  C_9
REMARK    7  A    between atoms: C_10  and  C_11
REMARK    8  A    between atoms: N_13  and  C_14
REMARK    9  A    between atoms: C_14  and  C_15
REMARK   10  A    between atoms: C_15  and  C_16
REMARK   11  A    between atoms: C_15  and  C_17
REMARK                            x       y       z     vdW  Elec       q    Type
REMARK                         _______ _______ _______ _____ _____    ______ ____
ROOT
ATOM      1  C   UNL     1       2.703   2.816  18.092  0.00  0.00    +0.000 C 
ATOM      2  C   UNL     1       4.016   2.714  18.365  0.00  0.00    +0.000 C 
ENDROOT
BRANCH   2   3
ATOM      3  C   UNL     1       4.997   3.527  17.598  0.00  0.00    +0.000 C 
ATOM      4  O   UNL     1       5.009   3.549  16.371  0.00  0.00    +0.000 OA
ATOM      5  N   UNL     1       5.882   4.234  18.373  0.00  0.00    +0.000 N 
ATOM      6  H   UNL     1       5.848   4.163  19.382  0.00  0.00    +0.000 HD
BRANCH   5   7
ATOM      7  C   UNL     1       6.908   5.064  17.758  0.00  0.00    +0.000 C 
BRANCH   7   8
ATOM      8  C   UNL     1       6.567   6.565  17.759  0.00  0.00    +0.000 C 
ATOM      9  C   UNL     1       7.819   7.421  17.553  0.00  0.00    +0.000 C 
ATOM     10  C   UNL     1       5.552   6.886  16.656  0.00  0.00    +0.000 C 
ENDBRANCH   7   8
ENDBRANCH   5   7
ENDBRANCH   2   3
BRANCH   1  11
ATOM     11  C   UNL     1       1.628   2.046  18.808  0.00  0.00    +0.000 C 
BRANCH  11  12
ATOM     12  C   UNL     1       0.773   2.948  19.703  0.00  0.00    +0.000 C 
BRANCH  12  13
ATOM     13  C   UNL     1       1.124   2.760  21.179  0.00  0.00    +0.000 C 
BRANCH  13  14
ATOM     14  C   UNL     1       2.246   3.705  21.600  0.00  0.00    +0.000 C 
BRANCH  14  16
ATOM     15  C   UNL     1       2.306   5.957  19.898  0.00  0.00    +0.000 C 
ATOM     16  C   UNL     1       2.279   4.918  20.684  0.00  0.00    +0.000 C 
BRANCH  15  18
ATOM     17  C   UNL     1       2.372   8.137  18.242  0.00  0.00    +0.000 C 
ATOM     18  C   UNL     1       2.344   7.177  18.971  0.00  0.00    +0.000 C 
ENDBRANCH  15  18
ENDBRANCH  14  16
ENDBRANCH  13  14
ENDBRANCH  12  13
ENDBRANCH  11  12
ENDBRANCH   1  11
TORSDOF 9
ENDMDL
