MODEL 1
REMARK VINA RESULT:      -8.7      0.000      0.000
REMARK  Name = 
REMARK  6 active torsions:
REMARK  status: ('A' for Active; 'I' for Inactive)
REMARK    1  A    between atoms: N_1  and  S_2
REMARK    2  A    between atoms: S_2  and  C_5
REMARK    3  A    between atoms: C_10  and  N_11
REMARK    4  A    between atoms: N_11  and  C_12
REMARK    5  A    between atoms: C_14  and  C_15
REMARK    6  A    between atoms: C_22  and  C_23
REMARK                            x       y       z     vdW  Elec       q    Type
REMARK                         _______ _______ _______ _____ _____    ______ ____
ROOT
ATOM      1  C   UNL     1       2.257   6.243  20.206  0.00  0.00    +0.000 A 
ATOM      2  C   UNL     1       3.578   6.227  19.727  0.00  0.00    +0.000 A 
ATOM      3  C   UNL     1       4.174   5.038  19.271  0.00  0.00    +0.000 A 
ATOM      4  C   UNL     1       3.454   3.840  19.323  0.00  0.00    +0.000 A 
ATOM      5  C   UNL     1       2.141   3.822  19.806  0.00  0.00    +0.000 A 
ATOM      6  C   UNL     1       1.550   5.031  20.218  0.00  0.00    +0.000 A 
ENDROOT
BRANCH   3   7
ATOM      7  C   UNL     1       5.611   5.030  18.875  0.00  0.00    +0.000 C 
ATOM      8  O   UNL     1       6.471   5.273  19.722  0.00  0.00    +0.000 OA
ATOM      9  N   UNL     1       5.904   4.664  17.576  0.00  0.00    +0.000 N 
ATOM     10  C   UNL     1       7.248   4.480  17.030  0.00  0.00    +0.000 C 
ATOM     11  C   UNL     1       6.864   5.446  15.915  0.00  0.00    +0.000 C 
ATOM     12  C   UNL     1       5.409   5.330  16.367  0.00  0.00    +0.000 C 
ENDBRANCH   3   7
BRANCH   5  13
ATOM     13  C   UNL     1       1.390   2.524  19.944  0.00  0.00    +0.000 C 
ATOM     14  F   UNL     1       1.996   1.483  19.299  0.00  0.00    +0.000 F 
ATOM     15  F   UNL     1       1.270   2.123  21.241  0.00  0.00    +0.000 F 
ATOM     16  F   UNL     1       0.127   2.580  19.445  0.00  0.00    +0.000 F 
ENDBRANCH   5  13
BRANCH   1  17
ATOM     17  N   UNL     1       1.722   7.444  20.729  0.00  0.00    +0.000 N 
ATOM     18  H   UNL     1       1.945   7.589  21.716  0.00  0.00    +0.000 HD
BRANCH  17  24
ATOM     19  C   UNL     1       0.711   9.692  20.712  0.00  0.00    +0.000 A 
ATOM     20  C   UNL     1       0.339  10.838  19.990  0.00  0.00    +0.000 A 
ATOM     21  C   UNL     1       0.658  10.932  18.644  0.00  0.00    +0.000 A 
ATOM     22  C   UNL     1       1.334   9.877  18.076  0.00  0.00    +0.000 A 
ATOM     23  N   UNL     1       1.681   8.758  18.751  0.00  0.00    +0.000 NA
ATOM     24  C   UNL     1       1.385   8.649  20.074  0.00  0.00    +0.000 A 
BRANCH  19  25
ATOM     25  S   UNL     1       0.454   9.725  22.453  0.00  0.00    +0.000 S 
ATOM     26  O   UNL     1      -0.206  10.962  22.802  0.00  0.00    +0.000 OA
ATOM     27  O   UNL     1       1.660   9.298  23.127  0.00  0.00    +0.000 OA
BRANCH  25  28
ATOM     28  N   UNL     1      -0.684   8.521  22.715  0.00  0.00    +0.000 NA
ATOM     29  H   UNL     1      -0.300   7.613  22.446  0.00  0.00    +0.000 HD
ATOM     30  H   UNL     1      -1.555   8.748  22.229  0.00  0.00    +0.000 HD
ENDBRANCH  25  28
ENDBRANCH  19  25
ENDBRANCH  17  24
ENDBRANCH   1  17
TORSDOF 6
ENDMDL
MODEL 2
REMARK VINA RESULT:      -8.6      0.691      1.121
REMARK  Name = 
REMARK  6 active torsions:
REMARK  status: ('A' for Active; 'I' for Inactive)
REMARK    1  A    between atoms: N_1  and  S_2
REMARK    2  A    between atoms: S_2  and  C_5
REMARK    3  A    between atoms: C_10  and  N_11
REMARK    4  A    between atoms: N_11  and  C_12
REMARK    5  A    between atoms: C_14  and  C_15
REMARK    6  A    between atoms: C_22  and  C_23
REMARK                            x       y       z     vdW  Elec       q    Type
REMARK                         _______ _______ _______ _____ _____    ______ ____
ROOT
ATOM      1  C   UNL     1       2.300   6.268  20.164  0.00  0.00    +0.000 A 
ATOM      2  C   UNL     1       3.619   6.226  19.679  0.00  0.00    +0.000 A 
ATOM      3  C   UNL     1       4.191   5.023  19.229  0.00  0.00    +0.000 A 
ATOM      4  C   UNL     1       3.451   3.839  19.293  0.00  0.00    +0.000 A 
ATOM      5  C   UNL     1       2.140   3.847  19.781  0.00  0.00    +0.000 A 
ATOM      6  C   UNL     1       1.572   5.070  20.187  0.00  0.00    +0.000 A 
ENDROOT
BRANCH   3   7
ATOM      7  C   UNL     1       5.626   4.987  18.828  0.00  0.00    +0.000 C 
ATOM      8  O   UNL     1       6.496   5.180  19.678  0.00  0.00    +0.000 OA
ATOM      9  N   UNL     1       5.905   4.653  17.517  0.00  0.00    +0.000 N 
ATOM     10  C   UNL     1       7.242   4.448  16.960  0.00  0.00    +0.000 C 
ATOM     11  C   UNL     1       6.882   5.458  15.877  0.00  0.00    +0.000 C 
ATOM     12  C   UNL     1       5.425   5.368  16.331  0.00  0.00    +0.000 C 
ENDBRANCH   3   7
BRANCH   5  13
ATOM     13  C   UNL     1       1.367   2.563  19.933  0.00  0.00    +0.000 C 
ATOM     14  F   UNL     1       1.120   2.238  21.237  0.00  0.00    +0.000 F 
ATOM     15  F   UNL     1       0.143   2.614  19.336  0.00  0.00    +0.000 F 
ATOM     16  F   UNL     1       2.006   1.487  19.401  0.00  0.00    +0.000 F 
ENDBRANCH   5  13
BRANCH   1  17
ATOM     17  N   UNL     1       1.789   7.482  20.680  0.00  0.00    +0.000 N 
ATOM     18  H   UNL     1       2.102   7.680  21.632  0.00  0.00    +0.000 HD
BRANCH  17  24
ATOM     19  C   UNL     1       0.550   9.613  20.608  0.00  0.00    +0.000 A 
ATOM     20  C   UNL     1       0.096  10.716  19.866  0.00  0.00    +0.000 A 
ATOM     21  C   UNL     1       0.466  10.844  18.535  0.00  0.00    +0.000 A 
ATOM     22  C   UNL     1       1.274   9.865  18.003  0.00  0.00    +0.000 A 
ATOM     23  N   UNL     1       1.704   8.787  18.697  0.00  0.00    +0.000 NA
ATOM     24  C   UNL     1       1.359   8.647  20.005  0.00  0.00    +0.000 A 
BRANCH  19  25
ATOM     25  S   UNL     1       0.211   9.616  22.335  0.00  0.00    +0.000 S 
ATOM     26  O   UNL     1      -0.651   8.497  22.640  0.00  0.00    +0.000 OA
ATOM     27  O   UNL     1      -0.118  10.958  22.761  0.00  0.00    +0.000 OA
BRANCH  25  28
ATOM     28  N   UNL     1       1.689   9.247  23.037  0.00  0.00    +0.000 NA
ATOM     29  H   UNL     1       1.556   8.583  23.802  0.00  0.00    +0.000 HD
ATOM     30  H   UNL     1       2.166  10.104  23.326  0.00  0.00    +0.000 HD
ENDBRANCH  25  28
ENDBRANCH  19  25
ENDBRANCH  17  24
ENDBRANCH   1  17
TORSDOF 6
ENDMDL
MODEL 3
REMARK VINA RESULT:      -8.5      1.147      1.499
REMARK  Name = 
REMARK  6 active torsions:
REMARK  status: ('A' for Active; 'I' for Inactive)
REMARK    1  A    between atoms: N_1  and  S_2
REMARK    2  A    between atoms: S_2  and  C_5
REMARK    3  A    between atoms: C_10  and  N_11
REMARK    4  A    between atoms: N_11  and  C_12
REMARK    5  A    between atoms: C_14  and  C_15
REMARK    6  A    between atoms: C_22  and  C_23
REMARK                            x       y       z     vdW  Elec       q    Type
REMARK                         _______ _______ _______ _____ _____    ______ ____
ROOT
ATOM      1  C   UNL     1       2.045   6.726  20.017  0.00  0.00    +0.000 A 
ATOM      2  C   UNL     1       3.095   6.715  19.082  0.00  0.00    +0.000 A 
ATOM      3  C   UNL     1       3.521   5.520  18.478  0.00  0.00    +0.000 A 
ATOM      4  C   UNL     1       2.915   4.311  18.835  0.00  0.00    +0.000 A 
ATOM      5  C   UNL     1       1.876   4.288  19.771  0.00  0.00    +0.000 A 
ATOM      6  C   UNL     1       1.436   5.503  20.331  0.00  0.00    +0.000 A 
ENDROOT
BRANCH   3   7
ATOM      7  C   UNL     1       4.710   5.523  17.579  0.00  0.00    +0.000 C 
ATOM      8  O   UNL     1       4.576   5.192  16.401  0.00  0.00    +0.000 OA
ATOM      9  N   UNL     1       5.899   5.984  18.109  0.00  0.00    +0.000 N 
ATOM     10  C   UNL     1       7.142   6.177  17.363  0.00  0.00    +0.000 C 
ATOM     11  C   UNL     1       7.836   5.312  18.409  0.00  0.00    +0.000 C 
ATOM     12  C   UNL     1       6.586   5.429  19.280  0.00  0.00    +0.000 C 
ENDBRANCH   3   7
BRANCH   5  13
ATOM     13  C   UNL     1       1.275   2.982  20.223  0.00  0.00    +0.000 C 
ATOM     14  F   UNL     1       0.123   2.665  19.560  0.00  0.00    +0.000 F 
ATOM     15  F   UNL     1       2.110   1.924  20.022  0.00  0.00    +0.000 F 
ATOM     16  F   UNL     1       0.954   2.970  21.543  0.00  0.00    +0.000 F 
ENDBRANCH   5  13
BRANCH   1  17
ATOM     17  N   UNL     1       1.700   7.939  20.659  0.00  0.00    +0.000 N 
ATOM     18  H   UNL     1       2.294   8.154  21.461  0.00  0.00    +0.000 HD
BRANCH  17  24
ATOM     19  C   UNL     1       0.269   9.927  20.938  0.00  0.00    +0.000 A 
ATOM     20  C   UNL     1      -0.405  11.015  20.358  0.00  0.00    +0.000 A 
ATOM     21  C   UNL     1      -0.273  11.256  18.998  0.00  0.00    +0.000 A 
ATOM     22  C   UNL     1       0.526  10.399  18.276  0.00  0.00    +0.000 A 
ATOM     23  N   UNL     1       1.165   9.336  18.814  0.00  0.00    +0.000 NA
ATOM     24  C   UNL     1       1.055   9.087  20.146  0.00  0.00    +0.000 A 
BRANCH  19  25
ATOM     25  S   UNL     1       0.219   9.798  22.692  0.00  0.00    +0.000 S 
ATOM     26  O   UNL     1      -0.485  10.943  23.222  0.00  0.00    +0.000 OA
ATOM     27  O   UNL     1       1.525   9.422  23.186  0.00  0.00    +0.000 OA
BRANCH  25  28
ATOM     28  N   UNL     1      -0.787   8.485  22.971  0.00  0.00    +0.000 NA
ATOM     29  H   UNL     1      -0.511   7.701  22.377  0.00  0.00    +0.000 HD
ATOM     30  H   UNL     1      -1.765   8.759  22.846  0.00  0.00    +0.000 HD
ENDBRANCH  25  28
ENDBRANCH  19  25
ENDBRANCH  17  24
ENDBRANCH   1  17
TORSDOF 6
ENDMDL
MODEL 4
REMARK VINA RESULT:      -8.4      1.291      1.541
REMARK  Name = 
REMARK  6 active torsions:
REMARK  status: ('A' for Active; 'I' for Inactive)
REMARK    1  A    between atoms: N_1  and  S_2
REMARK    2  A    between atoms: S_2  and  C_5
REMARK    3  A    between atoms: C_10  and  N_11
REMARK    4  A    between atoms: N_11  and  C_12
REMARK    5  A    between atoms: C_14  and  C_15
REMARK    6  A    between atoms: C_22  and  C_23
REMARK                            x       y       z     vdW  Elec       q    Type
REMARK                         _______ _______ _______ _____ _____    ______ ____
ROOT
ATOM      1  C   UNL     1       2.142   6.603  19.949  0.00  0.00    +0.000 A 
ATOM      2  C   UNL     1       3.185   6.526  19.009  0.00  0.00    +0.000 A 
ATOM      3  C   UNL     1       3.562   5.298  18.438  0.00  0.00    +0.000 A 
ATOM      4  C   UNL     1       2.913   4.124  18.832  0.00  0.00    +0.000 A 
ATOM      5  C   UNL     1       1.878   4.167  19.773  0.00  0.00    +0.000 A 
ATOM      6  C   UNL     1       1.489   5.414  20.301  0.00  0.00    +0.000 A 
ENDROOT
BRANCH   3   7
ATOM      7  C   UNL     1       4.744   5.230  17.533  0.00  0.00    +0.000 C 
ATOM      8  O   UNL     1       4.622   4.727  16.416  0.00  0.00    +0.000 OA
ATOM      9  N   UNL     1       5.912   5.821  17.977  0.00  0.00    +0.000 N 
ATOM     10  C   UNL     1       7.139   5.965  17.196  0.00  0.00    +0.000 C 
ATOM     11  C   UNL     1       7.882   5.295  18.346  0.00  0.00    +0.000 C 
ATOM     12  C   UNL     1       6.631   5.474  19.207  0.00  0.00    +0.000 C 
ENDBRANCH   3   7
BRANCH   5  13
ATOM     13  C   UNL     1       1.232   2.899  20.266  0.00  0.00    +0.000 C 
ATOM     14  F   UNL     1       2.017   1.795  20.089  0.00  0.00    +0.000 F 
ATOM     15  F   UNL     1       0.955   2.935  21.599  0.00  0.00    +0.000 F 
ATOM     16  F   UNL     1       0.058   2.619  19.640  0.00  0.00    +0.000 F 
ENDBRANCH   5  13
BRANCH   1  17
ATOM     17  N   UNL     1       1.847   7.846  20.558  0.00  0.00    +0.000 N 
ATOM     18  H   UNL     1       2.505   8.099  21.298  0.00  0.00    +0.000 HD
BRANCH  17  24
ATOM     19  C   UNL     1       0.279   9.731  20.814  0.00  0.00    +0.000 A 
ATOM     20  C   UNL     1      -0.429  10.794  20.230  0.00  0.00    +0.000 A 
ATOM     21  C   UNL     1      -0.237  11.090  18.889  0.00  0.00    +0.000 A 
ATOM     22  C   UNL     1       0.654  10.310  18.188  0.00  0.00    +0.000 A 
ATOM     23  N   UNL     1       1.329   9.270  18.729  0.00  0.00    +0.000 NA
ATOM     24  C   UNL     1       1.161   8.969  20.044  0.00  0.00    +0.000 A 
BRANCH  19  25
ATOM     25  S   UNL     1       0.140   9.538  22.558  0.00  0.00    +0.000 S 
ATOM     26  O   UNL     1       1.468   9.486  23.127  0.00  0.00    +0.000 OA
ATOM     27  O   UNL     1      -0.847   8.525  22.855  0.00  0.00    +0.000 OA
BRANCH  25  28
ATOM     28  N   UNL     1      -0.510  10.997  23.074  0.00  0.00    +0.000 NA
ATOM     29  H   UNL     1      -0.322  11.726  22.384  0.00  0.00    +0.000 HD
ATOM     30  H   UNL     1      -0.162  11.227  24.007  0.00  0.00    +0.000 HD
ENDBRANCH  25  28
ENDBRANCH  19  25
ENDBRANCH  17  24
ENDBRANCH   1  17
TORSDOF 6
ENDMDL
MODEL 5
REMARK VINA RESULT:      -8.3      1.289      1.732
REMARK  Name = 
REMARK  6 active torsions:
REMARK  status: ('A' for Active; 'I' for Inactive)
REMARK    1  A    between atoms: N_1  and  S_2
REMARK    2  A    between atoms: S_2  and  C_5
REMARK    3  A    between atoms: C_10  and  N_11
REMARK    4  A    between atoms: N_11  and  C_12
REMARK    5  A    between atoms: C_14  and  C_15
REMARK    6  A    between atoms: C_22  and  C_23
REMARK                            x       y       z     vdW  Elec       q    Type
REMARK                         _______ _______ _______ _____ _____    ______ ____
ROOT
ATOM      1  C   UNL     1       2.082   6.629  20.007  0.00  0.00    +0.000 A 
ATOM      2  C   UNL     1       3.150   6.603  19.093  0.00  0.00    +0.000 A 
ATOM      3  C   UNL     1       3.574   5.400  18.501  0.00  0.00    +0.000 A 
ATOM      4  C   UNL     1       2.947   4.200  18.850  0.00  0.00    +0.000 A 
ATOM      5  C   UNL     1       1.889   4.192  19.765  0.00  0.00    +0.000 A 
ATOM      6  C   UNL     1       1.453   5.414  20.314  0.00  0.00    +0.000 A 
ENDROOT
BRANCH   3   7
ATOM      7  C   UNL     1       4.779   5.386  17.625  0.00  0.00    +0.000 C 
ATOM      8  O   UNL     1       4.679   4.982  16.466  0.00  0.00    +0.000 OA
ATOM      9  N   UNL     1       5.943   5.915  18.148  0.00  0.00    +0.000 N 
ATOM     10  C   UNL     1       7.194   6.101  17.414  0.00  0.00    +0.000 C 
ATOM     11  C   UNL     1       7.893   5.322  18.522  0.00  0.00    +0.000 C 
ATOM     12  C   UNL     1       6.623   5.452  19.362  0.00  0.00    +0.000 C 
ENDBRANCH   3   7
BRANCH   5  13
ATOM     13  C   UNL     1       1.265   2.895  20.209  0.00  0.00    +0.000 C 
ATOM     14  F   UNL     1       0.975   2.871  21.544  0.00  0.00    +0.000 F 
ATOM     15  F   UNL     1       0.084   2.638  19.579  0.00  0.00    +0.000 F 
ATOM     16  F   UNL     1       2.059   1.815  19.987  0.00  0.00    +0.000 F 
ENDBRANCH   5  13
BRANCH   1  17
ATOM     17  N   UNL     1       1.739   7.848  20.639  0.00  0.00    +0.000 N 
ATOM     18  H   UNL     1       2.274   8.026  21.490  0.00  0.00    +0.000 HD
BRANCH  17  24
ATOM     19  C   UNL     1       0.331   9.864  20.813  0.00  0.00    +0.000 A 
ATOM     20  C   UNL     1      -0.240  10.989  20.195  0.00  0.00    +0.000 A 
ATOM     21  C   UNL     1       0.067  11.274  18.873  0.00  0.00    +0.000 A 
ATOM     22  C   UNL     1       0.930  10.421  18.223  0.00  0.00    +0.000 A 
ATOM     23  N   UNL     1       1.472   9.322  18.796  0.00  0.00    +0.000 NA
ATOM     24  C   UNL     1       1.191   9.030  20.094  0.00  0.00    +0.000 A 
BRANCH  19  25
ATOM     25  S   UNL     1       0.059   9.675  22.541  0.00  0.00    +0.000 S 
ATOM     26  O   UNL     1      -0.736   8.488  22.759  0.00  0.00    +0.000 OA
ATOM     27  O   UNL     1      -0.316  10.949  23.114  0.00  0.00    +0.000 OA
BRANCH  25  28
ATOM     28  N   UNL     1       1.580   9.312  23.151  0.00  0.00    +0.000 NA
ATOM     29  H   UNL     1       1.939   8.464  22.710  0.00  0.00    +0.000 HD
ATOM     30  H   UNL     1       1.544   9.251  24.171  0.00  0.00    +0.000 HD
ENDBRANCH  25  28
ENDBRANCH  19  25
ENDBRANCH  17  24
ENDBRANCH   1  17
TORSDOF 6
ENDMDL
MODEL 6
REMARK VINA RESULT:      -8.1      4.162      5.737
REMARK  Name = 
REMARK  6 active torsions:
REMARK  status: ('A' for Active; 'I' for Inactive)
REMARK    1  A    between atoms: N_1  and  S_2
REMARK    2  A    between atoms: S_2  and  C_5
REMARK    3  A    between atoms: C_10  and  N_11
REMARK    4  A    between atoms: N_11  and  C_12
REMARK    5  A    between atoms: C_14  and  C_15
REMARK    6  A    between atoms: C_22  and  C_23
REMARK                            x       y       z     vdW  Elec       q    Type
REMARK                         _______ _______ _______ _____ _____    ______ ____
ROOT
ATOM      1  C   UNL     1       4.655   5.303  17.310  0.00  0.00    +0.000 A 
ATOM      2  C   UNL     1       5.093   5.059  15.996  0.00  0.00    +0.000 A 
ATOM      3  C   UNL     1       6.462   4.962  15.691  0.00  0.00    +0.000 A 
ATOM      4  C   UNL     1       7.411   5.144  16.702  0.00  0.00    +0.000 A 
ATOM      5  C   UNL     1       7.006   5.400  18.016  0.00  0.00    +0.000 A 
ATOM      6  C   UNL     1       5.629   5.451  18.308  0.00  0.00    +0.000 A 
ENDROOT
BRANCH   3   7
ATOM      7  C   UNL     1       6.899   4.816  14.273  0.00  0.00    +0.000 C 
ATOM      8  O   UNL     1       7.759   5.575  13.825  0.00  0.00    +0.000 OA
ATOM      9  N   UNL     1       6.362   3.766  13.554  0.00  0.00    +0.000 N 
ATOM     10  C   UNL     1       6.749   3.383  12.197  0.00  0.00    +0.000 C 
ATOM     11  C   UNL     1       5.274   3.461  11.818  0.00  0.00    +0.000 C 
ATOM     12  C   UNL     1       4.935   3.540  13.306  0.00  0.00    +0.000 C 
ENDBRANCH   3   7
BRANCH   5  13
ATOM     13  C   UNL     1       8.021   5.681  19.093  0.00  0.00    +0.000 C 
ATOM     14  F   UNL     1       9.032   4.763  19.128  0.00  0.00    +0.000 F 
ATOM     15  F   UNL     1       8.634   6.887  18.935  0.00  0.00    +0.000 F 
ATOM     16  F   UNL     1       7.487   5.686  20.343  0.00  0.00    +0.000 F 
ENDBRANCH   5  13
BRANCH   1  17
ATOM     17  N   UNL     1       3.273   5.472  17.560  0.00  0.00    +0.000 N 
ATOM     18  H   UNL     1       2.681   4.886  16.970  0.00  0.00    +0.000 HD
BRANCH  17  24
ATOM     19  C   UNL     1       1.968   5.008  19.600  0.00  0.00    +0.000 A 
ATOM     20  C   UNL     1       1.262   5.494  20.713  0.00  0.00    +0.000 A 
ATOM     21  C   UNL     1       1.218   6.860  20.952  0.00  0.00    +0.000 A 
ATOM     22  C   UNL     1       1.879   7.681  20.068  0.00  0.00    +0.000 A 
ATOM     23  N   UNL     1       2.546   7.232  18.980  0.00  0.00    +0.000 NA
ATOM     24  C   UNL     1       2.608   5.896  18.732  0.00  0.00    +0.000 A 
BRANCH  19  25
ATOM     25  S   UNL     1       2.152   3.263  19.469  0.00  0.00    +0.000 S 
ATOM     26  O   UNL     1       1.172   2.627  20.322  0.00  0.00    +0.000 OA
ATOM     27  O   UNL     1       3.554   2.917  19.544  0.00  0.00    +0.000 OA
BRANCH  25  28
ATOM     28  N   UNL     1       1.665   2.923  17.899  0.00  0.00    +0.000 NA
ATOM     29  H   UNL     1       2.444   2.527  17.371  0.00  0.00    +0.000 HD
ATOM     30  H   UNL     1       1.269   3.760  17.465  0.00  0.00    +0.000 HD
ENDBRANCH  25  28
ENDBRANCH  19  25
ENDBRANCH  17  24
ENDBRANCH   1  17
TORSDOF 6
ENDMDL
MODEL 7
REMARK VINA RESULT:      -8.0      4.444      6.797
REMARK  Name = 
REMARK  6 active torsions:
REMARK  status: ('A' for Active; 'I' for Inactive)
REMARK    1  A    between atoms: N_1  and  S_2
REMARK    2  A    between atoms: S_2  and  C_5
REMARK    3  A    between atoms: C_10  and  N_11
REMARK    4  A    between atoms: N_11  and  C_12
REMARK    5  A    between atoms: C_14  and  C_15
REMARK    6  A    between atoms: C_22  and  C_23
REMARK                            x       y       z     vdW  Elec       q    Type
REMARK                         _______ _______ _______ _____ _____    ______ ____
ROOT
ATOM      1  C   UNL     1       4.407   6.691  17.303  0.00  0.00    +0.000 A 
ATOM      2  C   UNL     1       3.773   5.467  17.578  0.00  0.00    +0.000 A 
ATOM      3  C   UNL     1       2.432   5.420  17.998  0.00  0.00    +0.000 A 
ATOM      4  C   UNL     1       1.721   6.611  18.178  0.00  0.00    +0.000 A 
ATOM      5  C   UNL     1       2.329   7.845  17.923  0.00  0.00    +0.000 A 
ATOM      6  C   UNL     1       3.660   7.866  17.463  0.00  0.00    +0.000 A 
ENDROOT
BRANCH   3   7
ATOM      7  C   UNL     1       1.821   4.118  18.392  0.00  0.00    +0.000 C 
ATOM      8  O   UNL     1       1.051   3.553  17.615  0.00  0.00    +0.000 OA
ATOM      9  N   UNL     1       2.226   3.572  19.594  0.00  0.00    +0.000 N 
ATOM     10  C   UNL     1       1.837   2.256  20.100  0.00  0.00    +0.000 C 
ATOM     11  C   UNL     1       1.387   2.947  21.383  0.00  0.00    +0.000 C 
ATOM     12  C   UNL     1       2.103   4.211  20.908  0.00  0.00    +0.000 C 
ENDBRANCH   3   7
BRANCH   5  13
ATOM     13  C   UNL     1       1.599   9.134  18.195  0.00  0.00    +0.000 C 
ATOM     14  F   UNL     1       0.391   9.208  17.561  0.00  0.00    +0.000 F 
ATOM     15  F   UNL     1       1.324   9.311  19.517  0.00  0.00    +0.000 F 
ATOM     16  F   UNL     1       2.291  10.235  17.798  0.00  0.00    +0.000 F 
ENDBRANCH   5  13
BRANCH   1  17
ATOM     17  N   UNL     1       5.780   6.699  16.959  0.00  0.00    +0.000 N 
ATOM     18  H   UNL     1       5.955   6.441  15.986  0.00  0.00    +0.000 HD
BRANCH  17  24
ATOM     19  C   UNL     1       7.627   6.937  18.576  0.00  0.00    +0.000 A 
ATOM     20  C   UNL     1       8.635   7.735  19.141  0.00  0.00    +0.000 A 
ATOM     21  C   UNL     1       8.865   9.006  18.636  0.00  0.00    +0.000 A 
ATOM     22  C   UNL     1       8.077   9.426  17.589  0.00  0.00    +0.000 A 
ATOM     23  N   UNL     1       7.089   8.679  17.046  0.00  0.00    +0.000 NA
ATOM     24  C   UNL     1       6.852   7.427  17.521  0.00  0.00    +0.000 A 
BRANCH  19  25
ATOM     25  S   UNL     1       7.522   5.269  19.128  0.00  0.00    +0.000 S 
ATOM     26  O   UNL     1       7.976   4.399  18.066  0.00  0.00    +0.000 OA
ATOM     27  O   UNL     1       6.252   5.056  19.785  0.00  0.00    +0.000 OA
BRANCH  25  28
ATOM     28  N   UNL     1       8.696   5.166  20.322  0.00  0.00    +0.000 NA
ATOM     29  H   UNL     1       9.315   4.375  20.136  0.00  0.00    +0.000 HD
ATOM     30  H   UNL     1       8.256   5.123  21.245  0.00  0.00    +0.000 HD
ENDBRANCH  25  28
ENDBRANCH  19  25
ENDBRANCH  17  24
ENDBRANCH   1  17
TORSDOF 6
ENDMDL
MODEL 8
REMARK VINA RESULT:      -8.0      4.370      5.933
REMARK  Name = 
REMARK  6 active torsions:
REMARK  status: ('A' for Active; 'I' for Inactive)
REMARK    1  A    between atoms: N_1  and  S_2
REMARK    2  A    between atoms: S_2  and  C_5
REMARK    3  A    between atoms: C_10  and  N_11
REMARK    4  A    between atoms: N_11  and  C_12
REMARK    5  A    between atoms: C_14  and  C_15
REMARK    6  A    between atoms: C_22  and  C_23
REMARK                            x       y       z     vdW  Elec       q    Type
REMARK                         _______ _______ _______ _____ _____    ______ ____
ROOT
ATOM      1  C   UNL     1       4.664   5.267  17.241  0.00  0.00    +0.000 A 
ATOM      2  C   UNL     1       5.113   5.020  15.932  0.00  0.00    +0.000 A 
ATOM      3  C   UNL     1       6.485   4.943  15.635  0.00  0.00    +0.000 A 
ATOM      4  C   UNL     1       7.425   5.148  16.649  0.00  0.00    +0.000 A 
ATOM      5  C   UNL     1       7.009   5.407  17.960  0.00  0.00    +0.000 A 
ATOM      6  C   UNL     1       5.630   5.437  18.243  0.00  0.00    +0.000 A 
ENDROOT
BRANCH   3   7
ATOM      7  C   UNL     1       6.932   4.794  14.221  0.00  0.00    +0.000 C 
ATOM      8  O   UNL     1       7.802   5.545  13.780  0.00  0.00    +0.000 OA
ATOM      9  N   UNL     1       6.391   3.750  13.497  0.00  0.00    +0.000 N 
ATOM     10  C   UNL     1       6.785   3.364  12.142  0.00  0.00    +0.000 C 
ATOM     11  C   UNL     1       5.314   3.456  11.751  0.00  0.00    +0.000 C 
ATOM     12  C   UNL     1       4.964   3.538  13.237  0.00  0.00    +0.000 C 
ENDBRANCH   3   7
BRANCH   5  13
ATOM     13  C   UNL     1       8.013   5.711  19.040  0.00  0.00    +0.000 C 
ATOM     14  F   UNL     1       7.464   5.726  20.292  0.00  0.00    +0.000 F 
ATOM     15  F   UNL     1       9.017   4.793  19.097  0.00  0.00    +0.000 F 
ATOM     16  F   UNL     1       8.612   6.922  18.888  0.00  0.00    +0.000 F 
ENDBRANCH   5  13
BRANCH   1  17
ATOM     17  N   UNL     1       3.277   5.415  17.483  0.00  0.00    +0.000 N 
ATOM     18  H   UNL     1       2.694   4.916  16.809  0.00  0.00    +0.000 HD
BRANCH  17  24
ATOM     19  C   UNL     1       1.910   4.706  19.409  0.00  0.00    +0.000 A 
ATOM     20  C   UNL     1       1.186   5.051  20.561  0.00  0.00    +0.000 A 
ATOM     21  C   UNL     1       1.160   6.372  20.984  0.00  0.00    +0.000 A 
ATOM     22  C   UNL     1       1.860   7.291  20.237  0.00  0.00    +0.000 A 
ATOM     23  N   UNL     1       2.546   6.980  19.114  0.00  0.00    +0.000 NA
ATOM     24  C   UNL     1       2.590   5.690  18.686  0.00  0.00    +0.000 A 
BRANCH  19  25
ATOM     25  S   UNL     1       2.065   2.991  19.044  0.00  0.00    +0.000 S 
ATOM     26  O   UNL     1       1.924   2.806  17.617  0.00  0.00    +0.000 OA
ATOM     27  O   UNL     1       1.279   2.224  19.984  0.00  0.00    +0.000 OA
BRANCH  25  28
ATOM     28  N   UNL     1       3.673   2.650  19.382  0.00  0.00    +0.000 NA
ATOM     29  H   UNL     1       4.162   3.507  19.647  0.00  0.00    +0.000 HD
ATOM     30  H   UNL     1       4.105   2.170  18.590  0.00  0.00    +0.000 HD
ENDBRANCH  25  28
ENDBRANCH  19  25
ENDBRANCH  17  24
ENDBRANCH   1  17
TORSDOF 6
ENDMDL
MODEL 9
REMARK VINA RESULT:      -8.0      0.904      1.256
REMARK  Name = 
REMARK  6 active torsions:
REMARK  status: ('A' for Active; 'I' for Inactive)
REMARK    1  A    between atoms: N_1  and  S_2
REMARK    2  A    between atoms: S_2  and  C_5
REMARK    3  A    between atoms: C_10  and  N_11
REMARK    4  A    between atoms: N_11  and  C_12
REMARK    5  A    between atoms: C_14  and  C_15
REMARK    6  A    between atoms: C_22  and  C_23
REMARK                            x       y       z     vdW  Elec       q    Type
REMARK                         _______ _______ _______ _____ _____    ______ ____
ROOT
ATOM      1  C   UNL     1       2.197   6.260  20.247  0.00  0.00    +0.000 A 
ATOM      2  C   UNL     1       3.516   6.251  19.762  0.00  0.00    +0.000 A 
ATOM      3  C   UNL     1       4.106   5.072  19.275  0.00  0.00    +0.000 A 
ATOM      4  C   UNL     1       3.382   3.876  19.300  0.00  0.00    +0.000 A 
ATOM      5  C   UNL     1       2.071   3.850  19.787  0.00  0.00    +0.000 A 
ATOM      6  C   UNL     1       1.486   5.052  20.231  0.00  0.00    +0.000 A 
ENDROOT
BRANCH   3   7
ATOM      7  C   UNL     1       5.541   5.068  18.874  0.00  0.00    +0.000 C 
ATOM      8  O   UNL     1       6.377   4.566  19.626  0.00  0.00    +0.000 OA
ATOM      9  N   UNL     1       5.846   5.566  17.622  0.00  0.00    +0.000 N 
ATOM     10  C   UNL     1       7.169   5.542  17.000  0.00  0.00    +0.000 C 
ATOM     11  C   UNL     1       7.029   7.044  16.778  0.00  0.00    +0.000 C 
ATOM     12  C   UNL     1       5.550   6.920  17.145  0.00  0.00    +0.000 C 
ENDBRANCH   3   7
BRANCH   5  13
ATOM     13  C   UNL     1       1.315   2.552  19.897  0.00  0.00    +0.000 C 
ATOM     14  F   UNL     1       1.069   2.184  21.189  0.00  0.00    +0.000 F 
ATOM     15  F   UNL     1       0.092   2.604  19.298  0.00  0.00    +0.000 F 
ATOM     16  F   UNL     1       1.970   1.502  19.334  0.00  0.00    +0.000 F 
ENDBRANCH   5  13
BRANCH   1  17
ATOM     17  N   UNL     1       1.669   7.450  20.801  0.00  0.00    +0.000 N 
ATOM     18  H   UNL     1       1.909   7.579  21.785  0.00  0.00    +0.000 HD
BRANCH  17  24
ATOM     19  C   UNL     1       0.558   9.652  20.811  0.00  0.00    +0.000 A 
ATOM     20  C   UNL     1       0.177  10.809  20.112  0.00  0.00    +0.000 A 
ATOM     21  C   UNL     1       0.568  10.972  18.792  0.00  0.00    +0.000 A 
ATOM     22  C   UNL     1       1.323   9.971  18.225  0.00  0.00    +0.000 A 
ATOM     23  N   UNL     1       1.682   8.841  18.876  0.00  0.00    +0.000 NA
ATOM     24  C   UNL     1       1.315   8.665  20.173  0.00  0.00    +0.000 A 
BRANCH  19  25
ATOM     25  S   UNL     1       0.201   9.601  22.533  0.00  0.00    +0.000 S 
ATOM     26  O   UNL     1       1.447   9.575  23.265  0.00  0.00    +0.000 OA
ATOM     27  O   UNL     1      -0.840   8.629  22.783  0.00  0.00    +0.000 OA
BRANCH  25  28
ATOM     28  N   UNL     1      -0.472  11.106  22.849  0.00  0.00    +0.000 NA
ATOM     29  H   UNL     1       0.183  11.843  22.584  0.00  0.00    +0.000 HD
ATOM     30  H   UNL     1      -0.765  11.161  23.827  0.00  0.00    +0.000 HD
ENDBRANCH  25  28
ENDBRANCH  19  25
ENDBRANCH  17  24
ENDBRANCH   1  17
TORSDOF 6
ENDMDL
