MODEL 1
REMARK VINA RESULT:      -8.0      0.000      0.000
REMARK  Name = 
REMARK  13 active torsions:
REMARK  status: ('A' for Active; 'I' for Inactive)
REMARK    1  A    between atoms: C_1  and  C_2
REMARK    2  A    between atoms: C_2  and  O_3
REMARK    3  A    between atoms: O_3  and  C_4
REMARK    4  A    between atoms: C_4  and  C_6
REMARK    5  A    between atoms: C_6  and  C_22
REMARK    6  A    between atoms: C_7  and  N_8
REMARK    7  A    between atoms: N_8  and  N_9
REMARK    8  A    between atoms: C_10  and  C_12
REMARK    9  A    between atoms: C_18  and  C_19
REMARK   10  A    between atoms: C_19  and  O_21
REMARK   11  A    between atoms: C_22  and  O_24
REMARK   12  A    between atoms: O_24  and  C_25
REMARK   13  A    between atoms: C_25  and  C_26
REMARK                            x       y       z     vdW  Elec       q    Type
REMARK                         _______ _______ _______ _____ _____    ______ ____
ROOT
ATOM      1  N   UNL     1       3.627   4.905  17.531  0.00  0.00    +0.000 N 
ATOM      2  C   UNL     1       4.173   4.453  18.729  0.00  0.00    +0.000 C 
ATOM      3  O   UNL     1       5.331   4.712  19.059  0.00  0.00    +0.000 OA
ATOM      4  H   UNL     1       2.622   5.013  17.423  0.00  0.00    +0.000 HD
ENDROOT
BRANCH   2   5
ATOM      5  C   UNL     1       3.268   3.537  19.544  0.00  0.00    +0.000 C 
ATOM      6  C   UNL     1       3.130   4.092  20.986  0.00  0.00    +0.000 C 
ATOM      7  C   UNL     1       2.352   3.086  21.808  0.00  0.00    +0.000 C 
ATOM      8  C   UNL     1       1.077   3.125  21.386  0.00  0.00    +0.000 C 
ATOM      9  C   UNL     1       1.011   4.128  20.266  0.00  0.00    +0.000 C 
ATOM     10  C   UNL     1       2.023   5.141  20.806  0.00  0.00    +0.000 C 
ATOM     11  C   UNL     1       1.775   3.570  19.035  0.00  0.00    +0.000 C 
BRANCH  11  12
ATOM     12  C   UNL     1       1.267   2.215  18.587  0.00  0.00    +0.000 C 
ATOM     13  O   UNL     1       0.101   1.954  18.340  0.00  0.00    +0.000 OA
BRANCH  12  14
ATOM     14  O   UNL     1       2.235   1.269  18.538  0.00  0.00    +0.000 OA
ATOM     15  H   UNL     1       2.395   0.896  17.651  0.00  0.00    +0.000 HD
ENDBRANCH  12  14
ENDBRANCH  11  12
ENDBRANCH   2   5
BRANCH   1  16
ATOM     16  N   UNL     1       4.447   5.809  16.802  0.00  0.00    +0.000 N 
ATOM     17  H   UNL     1       5.129   6.183  17.482  0.00  0.00    +0.000 HD
BRANCH  16  19
ATOM     18  C   UNL     1       6.404   5.212  15.362  0.00  0.00    +0.000 C 
ATOM     19  C   UNL     1       5.098   5.375  15.658  0.00  0.00    +0.000 C 
BRANCH  18  20
ATOM     20  C   UNL     1       7.498   5.291  16.356  0.00  0.00    +0.000 C 
ATOM     21  O   UNL     1       7.936   4.317  16.955  0.00  0.00    +0.000 OA
BRANCH  20  22
ATOM     22  O   UNL     1       7.936   6.565  16.541  0.00  0.00    +0.000 OA
BRANCH  22  24
ATOM     23  C   UNL     1       7.734   8.559  17.882  0.00  0.00    +0.000 C 
ATOM     24  C   UNL     1       7.827   7.046  17.890  0.00  0.00    +0.000 C 
ENDBRANCH  22  24
ENDBRANCH  20  22
ENDBRANCH  18  20
BRANCH  18  25
ATOM     25  C   UNL     1       6.706   4.795  13.969  0.00  0.00    +0.000 C 
ATOM     26  O   UNL     1       7.666   5.192  13.323  0.00  0.00    +0.000 OA
BRANCH  25  27
ATOM     27  O   UNL     1       5.761   3.935  13.514  0.00  0.00    +0.000 OA
BRANCH  27  28
ATOM     28  C   UNL     1       6.029   3.323  12.244  0.00  0.00    +0.000 C 
ATOM     29  C   UNL     1       4.706   3.056  11.547  0.00  0.00    +0.000 C 
ENDBRANCH  27  28
ENDBRANCH  25  27
ENDBRANCH  18  25
ENDBRANCH  16  19
ENDBRANCH   1  16
TORSDOF 11
ENDMDL
MODEL 2
REMARK VINA RESULT:      -7.9      1.371      1.595
REMARK  Name = 
REMARK  13 active torsions:
REMARK  status: ('A' for Active; 'I' for Inactive)
REMARK    1  A    between atoms: C_1  and  C_2
REMARK    2  A    between atoms: C_2  and  O_3
REMARK    3  A    between atoms: O_3  and  C_4
REMARK    4  A    between atoms: C_4  and  C_6
REMARK    5  A    between atoms: C_6  and  C_22
REMARK    6  A    between atoms: C_7  and  N_8
REMARK    7  A    between atoms: N_8  and  N_9
REMARK    8  A    between atoms: C_10  and  C_12
REMARK    9  A    between atoms: C_18  and  C_19
REMARK   10  A    between atoms: C_19  and  O_21
REMARK   11  A    between atoms: C_22  and  O_24
REMARK   12  A    between atoms: O_24  and  C_25
REMARK   13  A    between atoms: C_25  and  C_26
REMARK                            x       y       z     vdW  Elec       q    Type
REMARK                         _______ _______ _______ _____ _____    ______ ____
ROOT
ATOM      1  N   UNL     1       5.719   3.545  18.588  0.00  0.00    +0.000 N 
ATOM      2  C   UNL     1       4.867   4.325  19.363  0.00  0.00    +0.000 C 
ATOM      3  O   UNL     1       5.175   5.458  19.737  0.00  0.00    +0.000 OA
ATOM      4  H   UNL     1       5.354   2.806  17.993  0.00  0.00    +0.000 HD
ENDROOT
BRANCH   2   5
ATOM      5  C   UNL     1       3.577   3.637  19.795  0.00  0.00    +0.000 C 
ATOM      6  C   UNL     1       2.846   4.513  20.845  0.00  0.00    +0.000 C 
ATOM      7  C   UNL     1       1.654   3.738  21.361  0.00  0.00    +0.000 C 
ATOM      8  C   UNL     1       0.745   3.697  20.373  0.00  0.00    +0.000 C 
ATOM      9  C   UNL     1       1.342   4.412  19.191  0.00  0.00    +0.000 C 
ATOM     10  C   UNL     1       2.097   5.509  19.946  0.00  0.00    +0.000 C 
ATOM     11  C   UNL     1       2.518   3.572  18.627  0.00  0.00    +0.000 C 
BRANCH  11  12
ATOM     12  C   UNL     1       2.116   2.159  18.263  0.00  0.00    +0.000 C 
ATOM     13  O   UNL     1       0.977   1.800  18.011  0.00  0.00    +0.000 OA
BRANCH  12  14
ATOM     14  O   UNL     1       3.148   1.281  18.300  0.00  0.00    +0.000 OA
ATOM     15  H   UNL     1       3.893   1.503  17.710  0.00  0.00    +0.000 HD
ENDBRANCH  12  14
ENDBRANCH  11  12
ENDBRANCH   2   5
BRANCH   1  16
ATOM     16  N   UNL     1       6.892   4.208  18.134  0.00  0.00    +0.000 N 
ATOM     17  H   UNL     1       7.682   3.739  18.606  0.00  0.00    +0.000 HD
BRANCH  16  19
ATOM     18  C   UNL     1       6.694   5.170  15.833  0.00  0.00    +0.000 C 
ATOM     19  C   UNL     1       7.140   4.313  16.775  0.00  0.00    +0.000 C 
BRANCH  18  20
ATOM     20  C   UNL     1       5.928   6.401  16.126  0.00  0.00    +0.000 C 
ATOM     21  O   UNL     1       5.062   6.848  15.385  0.00  0.00    +0.000 OA
BRANCH  20  22
ATOM     22  O   UNL     1       6.314   6.984  17.292  0.00  0.00    +0.000 OA
BRANCH  22  24
ATOM     23  C   UNL     1       8.261   7.717  18.512  0.00  0.00    +0.000 C 
ATOM     24  C   UNL     1       7.506   7.780  17.198  0.00  0.00    +0.000 C 
ENDBRANCH  22  24
ENDBRANCH  20  22
ENDBRANCH  18  20
BRANCH  18  25
ATOM     25  C   UNL     1       7.140   4.895  14.443  0.00  0.00    +0.000 C 
ATOM     26  O   UNL     1       7.887   5.620  13.802  0.00  0.00    +0.000 OA
BRANCH  25  27
ATOM     27  O   UNL     1       6.587   3.744  13.985  0.00  0.00    +0.000 OA
BRANCH  27  28
ATOM     28  C   UNL     1       5.365   3.886  13.246  0.00  0.00    +0.000 C 
ATOM     29  C   UNL     1       5.507   3.141  11.930  0.00  0.00    +0.000 C 
ENDBRANCH  27  28
ENDBRANCH  25  27
ENDBRANCH  18  25
ENDBRANCH  16  19
ENDBRANCH   1  16
TORSDOF 11
ENDMDL
MODEL 3
REMARK VINA RESULT:      -7.7      1.566      2.007
REMARK  Name = 
REMARK  13 active torsions:
REMARK  status: ('A' for Active; 'I' for Inactive)
REMARK    1  A    between atoms: C_1  and  C_2
REMARK    2  A    between atoms: C_2  and  O_3
REMARK    3  A    between atoms: O_3  and  C_4
REMARK    4  A    between atoms: C_4  and  C_6
REMARK    5  A    between atoms: C_6  and  C_22
REMARK    6  A    between atoms: C_7  and  N_8
REMARK    7  A    between atoms: N_8  and  N_9
REMARK    8  A    between atoms: C_10  and  C_12
REMARK    9  A    between atoms: C_18  and  C_19
REMARK   10  A    between atoms: C_19  and  O_21
REMARK   11  A    between atoms: C_22  and  O_24
REMARK   12  A    between atoms: O_24  and  C_25
REMARK   13  A    between atoms: C_25  and  C_26
REMARK                            x       y       z     vdW  Elec       q    Type
REMARK                         _______ _______ _______ _____ _____    ______ ____
ROOT
ATOM      1  N   UNL     1       5.685   3.398  18.927  0.00  0.00    +0.000 N 
ATOM      2  C   UNL     1       4.620   4.112  19.466  0.00  0.00    +0.000 C 
ATOM      3  O   UNL     1       4.671   5.330  19.644  0.00  0.00    +0.000 OA
ATOM      4  H   UNL     1       5.532   2.511  18.454  0.00  0.00    +0.000 HD
ENDROOT
BRANCH   2   5
ATOM      5  C   UNL     1       3.434   3.264  19.911  0.00  0.00    +0.000 C 
ATOM      6  C   UNL     1       3.014   3.670  21.347  0.00  0.00    +0.000 C 
ATOM      7  C   UNL     1       1.937   2.713  21.814  0.00  0.00    +0.000 C 
ATOM      8  C   UNL     1       0.822   2.998  21.122  0.00  0.00    +0.000 C 
ATOM      9  C   UNL     1       1.161   4.117  20.174  0.00  0.00    +0.000 C 
ATOM     10  C   UNL     1       2.126   4.893  21.073  0.00  0.00    +0.000 C 
ATOM     11  C   UNL     1       2.130   3.586  19.083  0.00  0.00    +0.000 C 
BRANCH  11  12
ATOM     12  C   UNL     1       1.583   2.386  18.339  0.00  0.00    +0.000 C 
ATOM     13  O   UNL     1       0.398   2.116  18.225  0.00  0.00    +0.000 OA
BRANCH  12  14
ATOM     14  O   UNL     1       2.550   1.576  17.844  0.00  0.00    +0.000 OA
ATOM     15  H   UNL     1       2.230   0.719  17.505  0.00  0.00    +0.000 HD
ENDBRANCH  12  14
ENDBRANCH  11  12
ENDBRANCH   2   5
BRANCH   1  16
ATOM     16  N   UNL     1       6.764   4.194  18.456  0.00  0.00    +0.000 N 
ATOM     17  H   UNL     1       7.612   3.819  18.911  0.00  0.00    +0.000 HD
BRANCH  16  19
ATOM     18  C   UNL     1       6.583   5.268  16.203  0.00  0.00    +0.000 C 
ATOM     19  C   UNL     1       6.973   4.332  17.093  0.00  0.00    +0.000 C 
BRANCH  18  20
ATOM     20  C   UNL     1       5.957   6.557  16.574  0.00  0.00    +0.000 C 
ATOM     21  O   UNL     1       6.596   7.543  16.917  0.00  0.00    +0.000 OA
BRANCH  20  22
ATOM     22  O   UNL     1       4.600   6.507  16.511  0.00  0.00    +0.000 OA
BRANCH  22  24
ATOM     23  C   UNL     1       2.801   7.087  18.010  0.00  0.00    +0.000 C 
ATOM     24  C   UNL     1       3.930   7.610  17.143  0.00  0.00    +0.000 C 
ENDBRANCH  22  24
ENDBRANCH  20  22
ENDBRANCH  18  20
BRANCH  18  25
ATOM     25  C   UNL     1       6.949   5.009  14.787  0.00  0.00    +0.000 C 
ATOM     26  O   UNL     1       7.829   5.605  14.182  0.00  0.00    +0.000 OA
BRANCH  25  27
ATOM     27  O   UNL     1       6.160   4.039  14.261  0.00  0.00    +0.000 OA
BRANCH  27  28
ATOM     28  C   UNL     1       6.473   3.634  12.921  0.00  0.00    +0.000 C 
ATOM     29  C   UNL     1       5.174   3.360  12.183  0.00  0.00    +0.000 C 
ENDBRANCH  27  28
ENDBRANCH  25  27
ENDBRANCH  18  25
ENDBRANCH  16  19
ENDBRANCH   1  16
TORSDOF 11
ENDMDL
MODEL 4
REMARK VINA RESULT:      -7.5      1.558      2.147
REMARK  Name = 
REMARK  13 active torsions:
REMARK  status: ('A' for Active; 'I' for Inactive)
REMARK    1  A    between atoms: C_1  and  C_2
REMARK    2  A    between atoms: C_2  and  O_3
REMARK    3  A    between atoms: O_3  and  C_4
REMARK    4  A    between atoms: C_4  and  C_6
REMARK    5  A    between atoms: C_6  and  C_22
REMARK    6  A    between atoms: C_7  and  N_8
REMARK    7  A    between atoms: N_8  and  N_9
REMARK    8  A    between atoms: C_10  and  C_12
REMARK    9  A    between atoms: C_18  and  C_19
REMARK   10  A    between atoms: C_19  and  O_21
REMARK   11  A    between atoms: C_22  and  O_24
REMARK   12  A    between atoms: O_24  and  C_25
REMARK   13  A    between atoms: C_25  and  C_26
REMARK                            x       y       z     vdW  Elec       q    Type
REMARK                         _______ _______ _______ _____ _____    ______ ____
ROOT
ATOM      1  N   UNL     1       4.699   3.553  17.406  0.00  0.00    +0.000 N 
ATOM      2  C   UNL     1       3.876   2.825  18.259  0.00  0.00    +0.000 C 
ATOM      3  O   UNL     1       3.566   1.655  18.030  0.00  0.00    +0.000 OA
ATOM      4  H   UNL     1       5.235   4.345  17.749  0.00  0.00    +0.000 HD
ENDROOT
BRANCH   2   5
ATOM      5  C   UNL     1       3.308   3.612  19.435  0.00  0.00    +0.000 C 
ATOM      6  C   UNL     1       2.777   4.981  18.936  0.00  0.00    +0.000 C 
ATOM      7  C   UNL     1       2.359   5.795  20.142  0.00  0.00    +0.000 C 
ATOM      8  C   UNL     1       1.239   5.239  20.632  0.00  0.00    +0.000 C 
ATOM      9  C   UNL     1       0.929   4.039  19.777  0.00  0.00    +0.000 C 
ATOM     10  C   UNL     1       1.379   4.599  18.426  0.00  0.00    +0.000 C 
ATOM     11  C   UNL     1       2.004   2.946  20.022  0.00  0.00    +0.000 C 
BRANCH  11  12
ATOM     12  C   UNL     1       2.135   2.559  21.479  0.00  0.00    +0.000 C 
ATOM     13  O   UNL     1       3.186   2.285  22.037  0.00  0.00    +0.000 OA
BRANCH  12  14
ATOM     14  O   UNL     1       0.946   2.482  22.123  0.00  0.00    +0.000 OA
ATOM     15  H   UNL     1       0.181   2.298  21.546  0.00  0.00    +0.000 HD
ENDBRANCH  12  14
ENDBRANCH  11  12
ENDBRANCH   2   5
BRANCH   1  16
ATOM     16  N   UNL     1       5.277   2.802  16.346  0.00  0.00    +0.000 N 
ATOM     17  H   UNL     1       4.514   2.220  15.964  0.00  0.00    +0.000 HD
BRANCH  16  19
ATOM     18  C   UNL     1       6.808   4.491  15.314  0.00  0.00    +0.000 C 
ATOM     19  C   UNL     1       5.939   3.459  15.321  0.00  0.00    +0.000 C 
BRANCH  18  20
ATOM     20  C   UNL     1       7.434   5.058  16.528  0.00  0.00    +0.000 C 
ATOM     21  O   UNL     1       7.888   4.373  17.435  0.00  0.00    +0.000 OA
BRANCH  20  22
ATOM     22  O   UNL     1       7.423   6.417  16.527  0.00  0.00    +0.000 OA
BRANCH  22  24
ATOM     23  C   UNL     1       7.944   8.467  17.687  0.00  0.00    +0.000 C 
ATOM     24  C   UNL     1       7.519   7.018  17.828  0.00  0.00    +0.000 C 
ENDBRANCH  22  24
ENDBRANCH  20  22
ENDBRANCH  18  20
BRANCH  18  25
ATOM     25  C   UNL     1       7.239   4.965  13.973  0.00  0.00    +0.000 C 
ATOM     26  O   UNL     1       8.208   5.686  13.776  0.00  0.00    +0.000 OA
BRANCH  25  27
ATOM     27  O   UNL     1       6.400   4.505  13.012  0.00  0.00    +0.000 OA
BRANCH  27  28
ATOM     28  C   UNL     1       7.024   4.002  11.823  0.00  0.00    +0.000 C 
ATOM     29  C   UNL     1       6.631   2.544  11.651  0.00  0.00    +0.000 C 
ENDBRANCH  27  28
ENDBRANCH  25  27
ENDBRANCH  18  25
ENDBRANCH  16  19
ENDBRANCH   1  16
TORSDOF 11
ENDMDL
MODEL 5
REMARK VINA RESULT:      -7.4      1.759      2.406
REMARK  Name = 
REMARK  13 active torsions:
REMARK  status: ('A' for Active; 'I' for Inactive)
REMARK    1  A    between atoms: C_1  and  C_2
REMARK    2  A    between atoms: C_2  and  O_3
REMARK    3  A    between atoms: O_3  and  C_4
REMARK    4  A    between atoms: C_4  and  C_6
REMARK    5  A    between atoms: C_6  and  C_22
REMARK    6  A    between atoms: C_7  and  N_8
REMARK    7  A    between atoms: N_8  and  N_9
REMARK    8  A    between atoms: C_10  and  C_12
REMARK    9  A    between atoms: C_18  and  C_19
REMARK   10  A    between atoms: C_19  and  O_21
REMARK   11  A    between atoms: C_22  and  O_24
REMARK   12  A    between atoms: O_24  and  C_25
REMARK   13  A    between atoms: C_25  and  C_26
REMARK                            x       y       z     vdW  Elec       q    Type
REMARK                         _______ _______ _______ _____ _____    ______ ____
ROOT
ATOM      1  N   UNL     1       5.354   3.627  18.636  0.00  0.00    +0.000 N 
ATOM      2  C   UNL     1       4.521   4.617  19.147  0.00  0.00    +0.000 C 
ATOM      3  O   UNL     1       4.928   5.754  19.391  0.00  0.00    +0.000 OA
ATOM      4  H   UNL     1       4.973   2.845  18.109  0.00  0.00    +0.000 HD
ENDROOT
BRANCH   2   5
ATOM      5  C   UNL     1       3.104   4.161  19.475  0.00  0.00    +0.000 C 
ATOM      6  C   UNL     1       2.320   3.911  18.160  0.00  0.00    +0.000 C 
ATOM      7  C   UNL     1       0.881   3.606  18.516  0.00  0.00    +0.000 C 
ATOM      8  C   UNL     1       0.858   2.385  19.075  0.00  0.00    +0.000 C 
ATOM      9  C   UNL     1       2.279   1.891  19.123  0.00  0.00    +0.000 C 
ATOM     10  C   UNL     1       2.771   2.486  17.802  0.00  0.00    +0.000 C 
ATOM     11  C   UNL     1       3.079   2.735  20.149  0.00  0.00    +0.000 C 
BRANCH  11  12
ATOM     12  C   UNL     1       2.456   2.738  21.529  0.00  0.00    +0.000 C 
ATOM     13  O   UNL     1       2.181   3.741  22.169  0.00  0.00    +0.000 OA
BRANCH  12  14
ATOM     14  O   UNL     1       2.275   1.496  22.039  0.00  0.00    +0.000 OA
ATOM     15  H   UNL     1       1.571   1.429  22.710  0.00  0.00    +0.000 HD
ENDBRANCH  12  14
ENDBRANCH  11  12
ENDBRANCH   2   5
BRANCH   1  16
ATOM     16  N   UNL     1       6.656   4.068  18.273  0.00  0.00    +0.000 N 
ATOM     17  H   UNL     1       7.313   3.412  18.727  0.00  0.00    +0.000 HD
BRANCH  16  19
ATOM     18  C   UNL     1       6.705   5.190  16.038  0.00  0.00    +0.000 C 
ATOM     19  C   UNL     1       6.981   4.221  16.935  0.00  0.00    +0.000 C 
BRANCH  18  20
ATOM     20  C   UNL     1       6.105   6.498  16.384  0.00  0.00    +0.000 C 
ATOM     21  O   UNL     1       4.900   6.678  16.497  0.00  0.00    +0.000 OA
BRANCH  20  22
ATOM     22  O   UNL     1       7.043   7.471  16.537  0.00  0.00    +0.000 OA
BRANCH  22  24
ATOM     23  C   UNL     1       8.247   8.908  18.054  0.00  0.00    +0.000 C 
ATOM     24  C   UNL     1       7.628   7.539  17.847  0.00  0.00    +0.000 C 
ENDBRANCH  22  24
ENDBRANCH  20  22
ENDBRANCH  18  20
BRANCH  18  25
ATOM     25  C   UNL     1       7.174   4.942  14.650  0.00  0.00    +0.000 C 
ATOM     26  O   UNL     1       8.127   5.508  14.133  0.00  0.00    +0.000 OA
BRANCH  25  27
ATOM     27  O   UNL     1       6.387   4.020  14.039  0.00  0.00    +0.000 OA
BRANCH  27  28
ATOM     28  C   UNL     1       6.655   3.791  12.648  0.00  0.00    +0.000 C 
ATOM     29  C   UNL     1       5.411   3.197  12.009  0.00  0.00    +0.000 C 
ENDBRANCH  27  28
ENDBRANCH  25  27
ENDBRANCH  18  25
ENDBRANCH  16  19
ENDBRANCH   1  16
TORSDOF 11
ENDMDL
MODEL 6
REMARK VINA RESULT:      -7.4      1.437      1.926
REMARK  Name = 
REMARK  13 active torsions:
REMARK  status: ('A' for Active; 'I' for Inactive)
REMARK    1  A    between atoms: C_1  and  C_2
REMARK    2  A    between atoms: C_2  and  O_3
REMARK    3  A    between atoms: O_3  and  C_4
REMARK    4  A    between atoms: C_4  and  C_6
REMARK    5  A    between atoms: C_6  and  C_22
REMARK    6  A    between atoms: C_7  and  N_8
REMARK    7  A    between atoms: N_8  and  N_9
REMARK    8  A    between atoms: C_10  and  C_12
REMARK    9  A    between atoms: C_18  and  C_19
REMARK   10  A    between atoms: C_19  and  O_21
REMARK   11  A    between atoms: C_22  and  O_24
REMARK   12  A    between atoms: O_24  and  C_25
REMARK   13  A    between atoms: C_25  and  C_26
REMARK                            x       y       z     vdW  Elec       q    Type
REMARK                         _______ _______ _______ _____ _____    ______ ____
ROOT
ATOM      1  N   UNL     1       4.718   3.268  17.238  0.00  0.00    +0.000 N 
ATOM      2  C   UNL     1       4.829   3.628  18.578  0.00  0.00    +0.000 C 
ATOM      3  O   UNL     1       5.909   3.931  19.087  0.00  0.00    +0.000 OA
ATOM      4  H   UNL     1       3.838   3.372  16.741  0.00  0.00    +0.000 HD
ENDROOT
BRANCH   2   5
ATOM      5  C   UNL     1       3.540   3.520  19.383  0.00  0.00    +0.000 C 
ATOM      6  C   UNL     1       3.331   4.818  20.206  0.00  0.00    +0.000 C 
ATOM      7  C   UNL     1       2.129   4.621  21.104  0.00  0.00    +0.000 C 
ATOM      8  C   UNL     1       1.038   4.627  20.320  0.00  0.00    +0.000 C 
ATOM      9  C   UNL     1       1.513   4.793  18.901  0.00  0.00    +0.000 C 
ATOM     10  C   UNL     1       2.685   5.742  19.163  0.00  0.00    +0.000 C 
ATOM     11  C   UNL     1       2.261   3.507  18.459  0.00  0.00    +0.000 C 
BRANCH  11  12
ATOM     12  C   UNL     1       1.427   2.254  18.612  0.00  0.00    +0.000 C 
ATOM     13  O   UNL     1       0.230   2.179  18.381  0.00  0.00    +0.000 OA
BRANCH  12  14
ATOM     14  O   UNL     1       2.125   1.200  19.098  0.00  0.00    +0.000 OA
ATOM     15  H   UNL     1       2.023   0.374  18.591  0.00  0.00    +0.000 HD
ENDBRANCH  12  14
ENDBRANCH  11  12
ENDBRANCH   2   5
BRANCH   1  16
ATOM     16  N   UNL     1       5.906   3.427  16.474  0.00  0.00    +0.000 N 
ATOM     17  H   UNL     1       6.601   2.787  16.893  0.00  0.00    +0.000 HD
BRANCH  16  19
ATOM     18  C   UNL     1       6.296   4.025  14.076  0.00  0.00    +0.000 C 
ATOM     19  C   UNL     1       5.867   3.258  15.100  0.00  0.00    +0.000 C 
BRANCH  18  20
ATOM     20  C   UNL     1       7.144   5.226  14.237  0.00  0.00    +0.000 C 
ATOM     21  O   UNL     1       7.858   5.671  13.347  0.00  0.00    +0.000 OA
BRANCH  20  22
ATOM     22  O   UNL     1       7.056   5.756  15.486  0.00  0.00    +0.000 OA
BRANCH  22  24
ATOM     23  C   UNL     1       5.775   6.908  17.174  0.00  0.00    +0.000 C 
ATOM     24  C   UNL     1       5.923   6.614  15.694  0.00  0.00    +0.000 C 
ENDBRANCH  22  24
ENDBRANCH  20  22
ENDBRANCH  18  20
BRANCH  18  25
ATOM     25  C   UNL     1       5.989   3.518  12.713  0.00  0.00    +0.000 C 
ATOM     26  O   UNL     1       6.812   3.011  11.965  0.00  0.00    +0.000 OA
BRANCH  25  27
ATOM     27  O   UNL     1       4.681   3.718  12.415  0.00  0.00    +0.000 OA
BRANCH  27  28
ATOM     28  C   UNL     1       4.161   2.942  11.325  0.00  0.00    +0.000 C 
ATOM     29  C   UNL     1       3.366   3.862  10.414  0.00  0.00    +0.000 C 
ENDBRANCH  27  28
ENDBRANCH  25  27
ENDBRANCH  18  25
ENDBRANCH  16  19
ENDBRANCH   1  16
TORSDOF 11
ENDMDL
MODEL 7
REMARK VINA RESULT:      -7.3      1.553      2.130
REMARK  Name = 
REMARK  13 active torsions:
REMARK  status: ('A' for Active; 'I' for Inactive)
REMARK    1  A    between atoms: C_1  and  C_2
REMARK    2  A    between atoms: C_2  and  O_3
REMARK    3  A    between atoms: O_3  and  C_4
REMARK    4  A    between atoms: C_4  and  C_6
REMARK    5  A    between atoms: C_6  and  C_22
REMARK    6  A    between atoms: C_7  and  N_8
REMARK    7  A    between atoms: N_8  and  N_9
REMARK    8  A    between atoms: C_10  and  C_12
REMARK    9  A    between atoms: C_18  and  C_19
REMARK   10  A    between atoms: C_19  and  O_21
REMARK   11  A    between atoms: C_22  and  O_24
REMARK   12  A    between atoms: O_24  and  C_25
REMARK   13  A    between atoms: C_25  and  C_26
REMARK                            x       y       z     vdW  Elec       q    Type
REMARK                         _______ _______ _______ _____ _____    ______ ____
ROOT
ATOM      1  N   UNL     1       3.474   5.216  17.351  0.00  0.00    +0.000 N 
ATOM      2  C   UNL     1       3.350   5.313  18.734  0.00  0.00    +0.000 C 
ATOM      3  O   UNL     1       4.064   6.060  19.404  0.00  0.00    +0.000 OA
ATOM      4  H   UNL     1       2.693   4.908  16.778  0.00  0.00    +0.000 HD
ENDROOT
BRANCH   2   5
ATOM      5  C   UNL     1       2.341   4.357  19.360  0.00  0.00    +0.000 C 
ATOM      6  C   UNL     1       1.431   3.763  18.253  0.00  0.00    +0.000 C 
ATOM      7  C   UNL     1       0.351   2.939  18.920  0.00  0.00    +0.000 C 
ATOM      8  C   UNL     1       0.935   1.831  19.405  0.00  0.00    +0.000 C 
ATOM      9  C   UNL     1       2.404   1.931  19.093  0.00  0.00    +0.000 C 
ATOM     10  C   UNL     1       2.301   2.612  17.726  0.00  0.00    +0.000 C 
ATOM     11  C   UNL     1       3.031   3.066  19.947  0.00  0.00    +0.000 C 
BRANCH  11  12
ATOM     12  C   UNL     1       2.799   2.888  21.432  0.00  0.00    +0.000 C 
ATOM     13  O   UNL     1       2.131   3.636  22.129  0.00  0.00    +0.000 OA
BRANCH  12  14
ATOM     14  O   UNL     1       3.462   1.829  21.956  0.00  0.00    +0.000 OA
ATOM     15  H   UNL     1       3.162   1.559  22.844  0.00  0.00    +0.000 HD
ENDBRANCH  12  14
ENDBRANCH  11  12
ENDBRANCH   2   5
BRANCH   1  16
ATOM     16  N   UNL     1       4.369   6.149  16.762  0.00  0.00    +0.000 N 
ATOM     17  H   UNL     1       4.923   6.541  17.542  0.00  0.00    +0.000 HD
BRANCH  16  19
ATOM     18  C   UNL     1       6.486   5.314  15.722  0.00  0.00    +0.000 C 
ATOM     19  C   UNL     1       5.207   5.744  15.736  0.00  0.00    +0.000 C 
BRANCH  18  20
ATOM     20  C   UNL     1       7.261   4.976  16.936  0.00  0.00    +0.000 C 
ATOM     21  O   UNL     1       8.172   4.158  16.948  0.00  0.00    +0.000 OA
BRANCH  20  22
ATOM     22  O   UNL     1       6.830   5.657  18.030  0.00  0.00    +0.000 OA
BRANCH  22  24
ATOM     23  C   UNL     1       7.892   7.805  17.753  0.00  0.00    +0.000 C 
ATOM     24  C   UNL     1       7.799   6.551  18.601  0.00  0.00    +0.000 C 
ENDBRANCH  22  24
ENDBRANCH  20  22
ENDBRANCH  18  20
BRANCH  18  25
ATOM     25  C   UNL     1       7.066   5.047  14.381  0.00  0.00    +0.000 C 
ATOM     26  O   UNL     1       8.084   5.572  13.953  0.00  0.00    +0.000 OA
BRANCH  25  27
ATOM     27  O   UNL     1       6.298   4.161  13.698  0.00  0.00    +0.000 OA
BRANCH  27  28
ATOM     28  C   UNL     1       6.742   3.838  12.372  0.00  0.00    +0.000 C 
ATOM     29  C   UNL     1       5.871   2.717  11.831  0.00  0.00    +0.000 C 
ENDBRANCH  27  28
ENDBRANCH  25  27
ENDBRANCH  18  25
ENDBRANCH  16  19
ENDBRANCH   1  16
TORSDOF 11
ENDMDL
MODEL 8
REMARK VINA RESULT:      -7.2      1.727      2.587
REMARK  Name = 
REMARK  13 active torsions:
REMARK  status: ('A' for Active; 'I' for Inactive)
REMARK    1  A    between atoms: C_1  and  C_2
REMARK    2  A    between atoms: C_2  and  O_3
REMARK    3  A    between atoms: O_3  and  C_4
REMARK    4  A    between atoms: C_4  and  C_6
REMARK    5  A    between atoms: C_6  and  C_22
REMARK    6  A    between atoms: C_7  and  N_8
REMARK    7  A    between atoms: N_8  and  N_9
REMARK    8  A    between atoms: C_10  and  C_12
REMARK    9  A    between atoms: C_18  and  C_19
REMARK   10  A    between atoms: C_19  and  O_21
REMARK   11  A    between atoms: C_22  and  O_24
REMARK   12  A    between atoms: O_24  and  C_25
REMARK   13  A    between atoms: C_25  and  C_26
REMARK                            x       y       z     vdW  Elec       q    Type
REMARK                         _______ _______ _______ _____ _____    ______ ____
ROOT
ATOM      1  N   UNL     1       4.547   3.881  17.115  0.00  0.00    +0.000 N 
ATOM      2  C   UNL     1       3.656   3.037  17.771  0.00  0.00    +0.000 C 
ATOM      3  O   UNL     1       3.738   1.811  17.692  0.00  0.00    +0.000 OA
ATOM      4  H   UNL     1       4.713   4.827  17.450  0.00  0.00    +0.000 HD
ENDROOT
BRANCH   2   5
ATOM      5  C   UNL     1       2.521   3.742  18.504  0.00  0.00    +0.000 C 
ATOM      6  C   UNL     1       1.819   2.743  19.460  0.00  0.00    +0.000 C 
ATOM      7  C   UNL     1       0.610   3.429  20.058  0.00  0.00    +0.000 C 
ATOM      8  C   UNL     1       1.060   4.351  20.924  0.00  0.00    +0.000 C 
ATOM      9  C   UNL     1       2.564   4.305  20.879  0.00  0.00    +0.000 C 
ATOM     10  C   UNL     1       2.740   2.796  20.689  0.00  0.00    +0.000 C 
ATOM     11  C   UNL     1       3.051   4.839  19.506  0.00  0.00    +0.000 C 
BRANCH  11  12
ATOM     12  C   UNL     1       2.538   6.229  19.196  0.00  0.00    +0.000 C 
ATOM     13  O   UNL     1       2.246   7.069  20.033  0.00  0.00    +0.000 OA
BRANCH  12  14
ATOM     14  O   UNL     1       2.368   6.455  17.871  0.00  0.00    +0.000 OA
ATOM     15  H   UNL     1       2.098   5.672  17.356  0.00  0.00    +0.000 HD
ENDBRANCH  12  14
ENDBRANCH  11  12
ENDBRANCH   2   5
BRANCH   1  16
ATOM     16  N   UNL     1       5.639   3.227  16.484  0.00  0.00    +0.000 N 
ATOM     17  H   UNL     1       5.611   2.248  16.814  0.00  0.00    +0.000 HD
BRANCH  16  19
ATOM     18  C   UNL     1       6.283   4.178  14.261  0.00  0.00    +0.000 C 
ATOM     19  C   UNL     1       5.759   3.264  15.104  0.00  0.00    +0.000 C 
BRANCH  18  20
ATOM     20  C   UNL     1       7.080   5.346  14.694  0.00  0.00    +0.000 C 
ATOM     21  O   UNL     1       8.149   5.658  14.185  0.00  0.00    +0.000 OA
BRANCH  20  22
ATOM     22  O   UNL     1       6.502   6.010  15.730  0.00  0.00    +0.000 OA
BRANCH  22  24
ATOM     23  C   UNL     1       7.402   7.540  17.363  0.00  0.00    +0.000 C 
ATOM     24  C   UNL     1       7.310   6.094  16.914  0.00  0.00    +0.000 C 
ENDBRANCH  22  24
ENDBRANCH  20  22
ENDBRANCH  18  20
BRANCH  18  25
ATOM     25  C   UNL     1       6.142   3.879  12.812  0.00  0.00    +0.000 C 
ATOM     26  O   UNL     1       7.080   3.796  12.032  0.00  0.00    +0.000 OA
BRANCH  25  27
ATOM     27  O   UNL     1       4.835   3.733  12.481  0.00  0.00    +0.000 OA
BRANCH  27  28
ATOM     28  C   UNL     1       4.564   2.886  11.355  0.00  0.00    +0.000 C 
ATOM     29  C   UNL     1       3.407   3.481  10.570  0.00  0.00    +0.000 C 
ENDBRANCH  27  28
ENDBRANCH  25  27
ENDBRANCH  18  25
ENDBRANCH  16  19
ENDBRANCH   1  16
TORSDOF 11
ENDMDL
MODEL 9
REMARK VINA RESULT:      -7.2      1.064      1.120
REMARK  Name = 
REMARK  13 active torsions:
REMARK  status: ('A' for Active; 'I' for Inactive)
REMARK    1  A    between atoms: C_1  and  C_2
REMARK    2  A    between atoms: C_2  and  O_3
REMARK    3  A    between atoms: O_3  and  C_4
REMARK    4  A    between atoms: C_4  and  C_6
REMARK    5  A    between atoms: C_6  and  C_22
REMARK    6  A    between atoms: C_7  and  N_8
REMARK    7  A    between atoms: N_8  and  N_9
REMARK    8  A    between atoms: C_10  and  C_12
REMARK    9  A    between atoms: C_18  and  C_19
REMARK   10  A    between atoms: C_19  and  O_21
REMARK   11  A    between atoms: C_22  and  O_24
REMARK   12  A    between atoms: O_24  and  C_25
REMARK   13  A    between atoms: C_25  and  C_26
REMARK                            x       y       z     vdW  Elec       q    Type
REMARK                         _______ _______ _______ _____ _____    ______ ____
ROOT
ATOM      1  N   UNL     1       4.178   5.932  18.128  0.00  0.00    +0.000 N 
ATOM      2  C   UNL     1       3.544   4.752  17.752  0.00  0.00    +0.000 C 
ATOM      3  O   UNL     1       3.334   4.469  16.572  0.00  0.00    +0.000 OA
ATOM      4  H   UNL     1       4.665   6.003  19.017  0.00  0.00    +0.000 HD
ENDROOT
BRANCH   2   5
ATOM      5  C   UNL     1       3.043   3.894  18.908  0.00  0.00    +0.000 C 
ATOM      6  C   UNL     1       3.144   4.694  20.232  0.00  0.00    +0.000 C 
ATOM      7  C   UNL     1       2.782   3.768  21.374  0.00  0.00    +0.000 C 
ATOM      8  C   UNL     1       1.459   3.542  21.301  0.00  0.00    +0.000 C 
ATOM      9  C   UNL     1       0.947   4.286  20.097  0.00  0.00    +0.000 C 
ATOM     10  C   UNL     1       1.849   5.520  20.191  0.00  0.00    +0.000 C 
ATOM     11  C   UNL     1       1.493   3.613  18.810  0.00  0.00    +0.000 C 
BRANCH  11  12
ATOM     12  C   UNL     1       1.158   2.139  18.725  0.00  0.00    +0.000 C 
ATOM     13  O   UNL     1       0.028   1.677  18.751  0.00  0.00    +0.000 OA
BRANCH  12  14
ATOM     14  O   UNL     1       2.252   1.342  18.675  0.00  0.00    +0.000 OA
ATOM     15  H   UNL     1       2.271   0.633  19.345  0.00  0.00    +0.000 HD
ENDBRANCH  12  14
ENDBRANCH  11  12
ENDBRANCH   2   5
BRANCH   1  16
ATOM     16  N   UNL     1       4.700   6.701  17.052  0.00  0.00    +0.000 N 
ATOM     17  H   UNL     1       5.262   7.451  17.487  0.00  0.00    +0.000 HD
BRANCH  16  19
ATOM     18  C   UNL     1       6.628   5.462  16.048  0.00  0.00    +0.000 C 
ATOM     19  C   UNL     1       5.427   6.078  16.051  0.00  0.00    +0.000 C 
BRANCH  18  20
ATOM     20  C   UNL     1       7.395   5.132  17.269  0.00  0.00    +0.000 C 
ATOM     21  O   UNL     1       8.185   4.199  17.338  0.00  0.00    +0.000 OA
BRANCH  20  22
ATOM     22  O   UNL     1       7.102   5.965  18.303  0.00  0.00    +0.000 OA
BRANCH  22  24
ATOM     23  C   UNL     1       7.936   8.177  17.828  0.00  0.00    +0.000 C 
ATOM     24  C   UNL     1       8.138   6.905  18.628  0.00  0.00    +0.000 C 
ENDBRANCH  22  24
ENDBRANCH  20  22
ENDBRANCH  18  20
BRANCH  18  25
ATOM     25  C   UNL     1       7.107   4.982  14.726  0.00  0.00    +0.000 C 
ATOM     26  O   UNL     1       7.922   5.574  14.033  0.00  0.00    +0.000 OA
BRANCH  25  27
ATOM     27  O   UNL     1       6.500   3.815  14.395  0.00  0.00    +0.000 OA
BRANCH  27  28
ATOM     28  C   UNL     1       5.632   3.862  13.253  0.00  0.00    +0.000 C 
ATOM     29  C   UNL     1       6.293   3.107  12.113  0.00  0.00    +0.000 C 
ENDBRANCH  27  28
ENDBRANCH  25  27
ENDBRANCH  18  25
ENDBRANCH  16  19
ENDBRANCH   1  16
TORSDOF 11
ENDMDL
