MODEL 1
REMARK VINA RESULT:      -7.1      0.000      0.000
REMARK  Name = 
REMARK  6 active torsions:
REMARK  status: ('A' for Active; 'I' for Inactive)
REMARK    1  A    between atoms: C_1  and  C_2
REMARK    2  A    between atoms: C_2  and  O_3
REMARK    3  A    between atoms: O_3  and  C_4
REMARK    4  A    between atoms: N_9  and  C_10
REMARK    5  A    between atoms: C_10  and  C_11
REMARK    6  A    between atoms: C_17  and  C_18
REMARK                            x       y       z     vdW  Elec       q    Type
REMARK                         _______ _______ _______ _____ _____    ______ ____
ROOT
ATOM      1  C   UNL     1       3.587   3.561  19.079  0.00  0.00    +0.000 C 
ENDROOT
BRANCH   1   2
ATOM      2  C   UNL     1       4.707   3.891  18.098  0.00  0.00    +0.000 A 
ATOM      3  C   UNL     1       5.816   4.505  18.527  0.00  0.00    +0.000 A 
ATOM      4  C   UNL     1       6.779   5.017  17.552  0.00  0.00    +0.000 A 
ATOM      5  O   UNL     1       7.704   5.723  17.957  0.00  0.00    +0.000 OA
ATOM      6  N   UNL     1       6.522   4.696  16.234  0.00  0.00    +0.000 N 
ATOM      7  C   UNL     1       7.388   5.158  15.261  0.00  0.00    +0.000 A 
ATOM      8  C   UNL     1       7.203   4.894  13.956  0.00  0.00    +0.000 A 
ATOM      9  C   UNL     1       8.150   5.379  12.908  0.00  0.00    +0.000 C 
ATOM     10  C   UNL     1       6.065   4.087  13.565  0.00  0.00    +0.000 A 
ATOM     11  C   UNL     1       5.213   3.615  14.472  0.00  0.00    +0.000 A 
ATOM     12  C   UNL     1       5.385   3.961  15.913  0.00  0.00    +0.000 A 
ATOM     13  N   UNL     1       4.488   3.583  16.773  0.00  0.00    +0.000 NA
ENDBRANCH   1   2
BRANCH   1  19
ATOM     14  C   UNL     1       1.511   7.877  20.468  0.00  0.00    +0.000 C 
ATOM     15  O   UNL     1       0.859   8.001  21.491  0.00  0.00    +0.000 OA
ATOM     16  N   UNL     1       2.077   6.695  20.053  0.00  0.00    +0.000 N 
ATOM     17  C   UNL     1       1.905   5.476  20.842  0.00  0.00    +0.000 C 
ATOM     18  C   UNL     1       1.441   4.294  19.956  0.00  0.00    +0.000 C 
ATOM     19  N   UNL     1       2.250   4.083  18.726  0.00  0.00    +0.000 NA
ATOM     20  C   UNL     1       2.273   5.371  17.990  0.00  0.00    +0.000 C 
ATOM     21  C   UNL     1       2.830   6.548  18.815  0.00  0.00    +0.000 C 
BRANCH  14  22
ATOM     22  O   UNL     1       1.682   8.870  19.551  0.00  0.00    +0.000 OA
BRANCH  22  24
ATOM     23  C   UNL     1       0.033  10.045  18.272  0.00  0.00    +0.000 C 
ATOM     24  C   UNL     1       0.712   9.918  19.624  0.00  0.00    +0.000 C 
ENDBRANCH  22  24
ENDBRANCH  14  22
ENDBRANCH   1  19
TORSDOF 4
ENDMDL
MODEL 2
REMARK VINA RESULT:      -6.7      2.361      8.502
REMARK  Name = 
REMARK  6 active torsions:
REMARK  status: ('A' for Active; 'I' for Inactive)
REMARK    1  A    between atoms: C_1  and  C_2
REMARK    2  A    between atoms: C_2  and  O_3
REMARK    3  A    between atoms: O_3  and  C_4
REMARK    4  A    between atoms: N_9  and  C_10
REMARK    5  A    between atoms: C_10  and  C_11
REMARK    6  A    between atoms: C_17  and  C_18
REMARK                            x       y       z     vdW  Elec       q    Type
REMARK                         _______ _______ _______ _____ _____    ______ ____
ROOT
ATOM      1  C   UNL     1       2.571   6.877  19.456  0.00  0.00    +0.000 C 
ENDROOT
BRANCH   1   2
ATOM      2  C   UNL     1       1.689   8.061  19.841  0.00  0.00    +0.000 A 
ATOM      3  C   UNL     1       1.515   9.074  18.985  0.00  0.00    +0.000 A 
ATOM      4  C   UNL     1       0.857  10.299  19.443  0.00  0.00    +0.000 A 
ATOM      5  O   UNL     1       0.856  11.277  18.694  0.00  0.00    +0.000 OA
ATOM      6  N   UNL     1       0.337  10.255  20.720  0.00  0.00    +0.000 N 
ATOM      7  C   UNL     1      -0.288  11.383  21.218  0.00  0.00    +0.000 A 
ATOM      8  C   UNL     1      -0.814  11.422  22.454  0.00  0.00    +0.000 A 
ATOM      9  C   UNL     1      -1.505  12.636  22.983  0.00  0.00    +0.000 C 
ATOM     10  C   UNL     1      -0.733  10.235  23.281  0.00  0.00    +0.000 A 
ATOM     11  C   UNL     1      -0.148   9.126  22.836  0.00  0.00    +0.000 A 
ATOM     12  C   UNL     1       0.490   9.105  21.487  0.00  0.00    +0.000 A 
ATOM     13  N   UNL     1       1.149   8.051  21.109  0.00  0.00    +0.000 NA
ENDBRANCH   1   2
BRANCH   1  19
ATOM     14  C   UNL     1       6.646   5.667  16.850  0.00  0.00    +0.000 C 
ATOM     15  O   UNL     1       7.383   6.498  16.346  0.00  0.00    +0.000 OA
ATOM     16  N   UNL     1       5.507   5.973  17.556  0.00  0.00    +0.000 N 
ATOM     17  C   UNL     1       5.099   7.366  17.731  0.00  0.00    +0.000 C 
ATOM     18  C   UNL     1       3.608   7.565  17.367  0.00  0.00    +0.000 C 
ATOM     19  N   UNL     1       2.676   6.599  18.008  0.00  0.00    +0.000 NA
ATOM     20  C   UNL     1       3.164   5.237  17.683  0.00  0.00    +0.000 C 
ATOM     21  C   UNL     1       4.617   4.974  18.129  0.00  0.00    +0.000 C 
BRANCH  14  22
ATOM     22  O   UNL     1       6.800   4.322  16.695  0.00  0.00    +0.000 OA
BRANCH  22  24
ATOM     23  C   UNL     1       5.555   4.075  14.665  0.00  0.00    +0.000 C 
ATOM     24  C   UNL     1       6.904   3.890  15.336  0.00  0.00    +0.000 C 
ENDBRANCH  22  24
ENDBRANCH  14  22
ENDBRANCH   1  19
TORSDOF 4
ENDMDL
MODEL 3
REMARK VINA RESULT:      -6.7      2.932      4.472
REMARK  Name = 
REMARK  6 active torsions:
REMARK  status: ('A' for Active; 'I' for Inactive)
REMARK    1  A    between atoms: C_1  and  C_2
REMARK    2  A    between atoms: C_2  and  O_3
REMARK    3  A    between atoms: O_3  and  C_4
REMARK    4  A    between atoms: N_9  and  C_10
REMARK    5  A    between atoms: C_10  and  C_11
REMARK    6  A    between atoms: C_17  and  C_18
REMARK                            x       y       z     vdW  Elec       q    Type
REMARK                         _______ _______ _______ _____ _____    ______ ____
ROOT
ATOM      1  C   UNL     1       1.770   7.935  20.672  0.00  0.00    +0.000 C 
ENDROOT
BRANCH   1   2
ATOM      2  C   UNL     1       2.353   6.906  19.708  0.00  0.00    +0.000 A 
ATOM      3  C   UNL     1       2.175   5.600  19.934  0.00  0.00    +0.000 A 
ATOM      4  C   UNL     1       2.920   4.623  19.139  0.00  0.00    +0.000 A 
ATOM      5  O   UNL     1       2.871   3.437  19.471  0.00  0.00    +0.000 OA
ATOM      6  N   UNL     1       3.667   5.143  18.101  0.00  0.00    +0.000 N 
ATOM      7  C   UNL     1       4.404   4.276  17.318  0.00  0.00    +0.000 A 
ATOM      8  C   UNL     1       5.161   4.705  16.293  0.00  0.00    +0.000 A 
ATOM      9  C   UNL     1       5.941   3.763  15.437  0.00  0.00    +0.000 C 
ATOM     10  C   UNL     1       5.190   6.123  15.997  0.00  0.00    +0.000 A 
ATOM     11  C   UNL     1       4.487   6.991  16.722  0.00  0.00    +0.000 A 
ATOM     12  C   UNL     1       3.697   6.519  17.897  0.00  0.00    +0.000 A 
ATOM     13  N   UNL     1       3.103   7.389  18.658  0.00  0.00    +0.000 NA
ENDBRANCH   1   2
BRANCH   1  19
ATOM     14  C   UNL     1      -0.632  11.952  22.394  0.00  0.00    +0.000 C 
ATOM     15  O   UNL     1      -1.243  11.958  23.449  0.00  0.00    +0.000 OA
ATOM     16  N   UNL     1       0.022  10.854  21.888  0.00  0.00    +0.000 N 
ATOM     17  C   UNL     1       0.002   9.583  22.612  0.00  0.00    +0.000 C 
ATOM     18  C   UNL     1      -0.390   8.411  21.681  0.00  0.00    +0.000 C 
ATOM     19  N   UNL     1       0.374   8.344  20.407  0.00  0.00    +0.000 NA
ATOM     20  C   UNL     1       0.242   9.666  19.746  0.00  0.00    +0.000 C 
ATOM     21  C   UNL     1       0.725  10.846  20.613  0.00  0.00    +0.000 C 
BRANCH  14  22
ATOM     22  O   UNL     1      -0.599  13.004  21.529  0.00  0.00    +0.000 OA
BRANCH  22  24
ATOM     23  C   UNL     1      -2.479  12.754  20.067  0.00  0.00    +0.000 C 
ATOM     24  C   UNL     1      -1.882  13.551  21.212  0.00  0.00    +0.000 C 
ENDBRANCH  22  24
ENDBRANCH  14  22
ENDBRANCH   1  19
TORSDOF 4
ENDMDL
MODEL 4
REMARK VINA RESULT:      -6.7      1.158      1.307
REMARK  Name = 
REMARK  6 active torsions:
REMARK  status: ('A' for Active; 'I' for Inactive)
REMARK    1  A    between atoms: C_1  and  C_2
REMARK    2  A    between atoms: C_2  and  O_3
REMARK    3  A    between atoms: O_3  and  C_4
REMARK    4  A    between atoms: N_9  and  C_10
REMARK    5  A    between atoms: C_10  and  C_11
REMARK    6  A    between atoms: C_17  and  C_18
REMARK                            x       y       z     vdW  Elec       q    Type
REMARK                         _______ _______ _______ _____ _____    ______ ____
ROOT
ATOM      1  C   UNL     1       4.125   5.362  19.402  0.00  0.00    +0.000 C 
ENDROOT
BRANCH   1   2
ATOM      2  C   UNL     1       5.071   5.325  18.206  0.00  0.00    +0.000 A 
ATOM      3  C   UNL     1       6.155   6.109  18.184  0.00  0.00    +0.000 A 
ATOM      4  C   UNL     1       6.928   6.233  16.947  0.00  0.00    +0.000 A 
ATOM      5  O   UNL     1       7.819   7.084  16.897  0.00  0.00    +0.000 OA
ATOM      6  N   UNL     1       6.541   5.403  15.915  0.00  0.00    +0.000 N 
ATOM      7  C   UNL     1       7.223   5.478  14.715  0.00  0.00    +0.000 A 
ATOM      8  C   UNL     1       6.903   4.708  13.661  0.00  0.00    +0.000 A 
ATOM      9  C   UNL     1       7.654   4.778  12.372  0.00  0.00    +0.000 C 
ATOM     10  C   UNL     1       5.816   3.761  13.798  0.00  0.00    +0.000 A 
ATOM     11  C   UNL     1       5.139   3.651  14.939  0.00  0.00    +0.000 A 
ATOM     12  C   UNL     1       5.456   4.550  16.087  0.00  0.00    +0.000 A 
ATOM     13  N   UNL     1       4.719   4.505  17.156  0.00  0.00    +0.000 NA
ENDBRANCH   1   2
BRANCH   1  19
ATOM     14  C   UNL     1       0.903   9.123  19.985  0.00  0.00    +0.000 C 
ATOM     15  O   UNL     1       0.276   9.307  21.015  0.00  0.00    +0.000 OA
ATOM     16  N   UNL     1       1.782   8.084  19.792  0.00  0.00    +0.000 N 
ATOM     17  C   UNL     1       2.005   7.099  20.850  0.00  0.00    +0.000 C 
ATOM     18  C   UNL     1       1.886   5.655  20.305  0.00  0.00    +0.000 C 
ATOM     19  N   UNL     1       2.683   5.383  19.079  0.00  0.00    +0.000 NA
ATOM     20  C   UNL     1       2.298   6.404  18.072  0.00  0.00    +0.000 C 
ATOM     21  C   UNL     1       2.505   7.856  18.549  0.00  0.00    +0.000 C 
BRANCH  14  22
ATOM     22  O   UNL     1       0.742   9.867  18.855  0.00  0.00    +0.000 OA
BRANCH  22  24
ATOM     23  C   UNL     1      -1.277   9.998  17.573  0.00  0.00    +0.000 C 
ATOM     24  C   UNL     1      -0.514  10.545  18.766  0.00  0.00    +0.000 C 
ENDBRANCH  22  24
ENDBRANCH  14  22
ENDBRANCH   1  19
TORSDOF 4
ENDMDL
MODEL 5
REMARK VINA RESULT:      -6.7      3.242      5.053
REMARK  Name = 
REMARK  6 active torsions:
REMARK  status: ('A' for Active; 'I' for Inactive)
REMARK    1  A    between atoms: C_1  and  C_2
REMARK    2  A    between atoms: C_2  and  O_3
REMARK    3  A    between atoms: O_3  and  C_4
REMARK    4  A    between atoms: N_9  and  C_10
REMARK    5  A    between atoms: C_10  and  C_11
REMARK    6  A    between atoms: C_17  and  C_18
REMARK                            x       y       z     vdW  Elec       q    Type
REMARK                         _______ _______ _______ _____ _____    ______ ____
ROOT
ATOM      1  C   UNL     1       1.009   7.437  21.093  0.00  0.00    +0.000 C 
ENDROOT
BRANCH   1   2
ATOM      2  C   UNL     1       1.868   6.543  20.204  0.00  0.00    +0.000 A 
ATOM      3  C   UNL     1       2.018   5.247  20.502  0.00  0.00    +0.000 A 
ATOM      4  C   UNL     1       3.015   4.454  19.782  0.00  0.00    +0.000 A 
ATOM      5  O   UNL     1       3.255   3.313  20.182  0.00  0.00    +0.000 OA
ATOM      6  N   UNL     1       3.643   5.094  18.733  0.00  0.00    +0.000 N 
ATOM      7  C   UNL     1       4.605   4.404  18.018  0.00  0.00    +0.000 A 
ATOM      8  C   UNL     1       5.265   4.959  16.988  0.00  0.00    +0.000 A 
ATOM      9  C   UNL     1       6.290   4.205  16.206  0.00  0.00    +0.000 C 
ATOM     10  C   UNL     1       4.945   6.321  16.611  0.00  0.00    +0.000 A 
ATOM     11  C   UNL     1       4.020   7.017  17.268  0.00  0.00    +0.000 A 
ATOM     12  C   UNL     1       3.332   6.420  18.450  0.00  0.00    +0.000 A 
ATOM     13  N   UNL     1       2.509   7.147  19.145  0.00  0.00    +0.000 NA
ENDBRANCH   1   2
BRANCH   1  19
ATOM     14  C   UNL     1      -1.509  11.674  21.851  0.00  0.00    +0.000 C 
ATOM     15  O   UNL     1      -1.841  12.421  20.945  0.00  0.00    +0.000 OA
ATOM     16  N   UNL     1      -0.799  10.511  21.671  0.00  0.00    +0.000 N 
ATOM     17  C   UNL     1      -0.375  10.104  20.332  0.00  0.00    +0.000 C 
ATOM     18  C   UNL     1       1.128   9.735  20.306  0.00  0.00    +0.000 C 
ATOM     19  N   UNL     1       1.554   8.784  21.367  0.00  0.00    +0.000 NA
ATOM     20  C   UNL     1       1.132   9.359  22.667  0.00  0.00    +0.000 C 
ATOM     21  C   UNL     1      -0.381   9.640  22.761  0.00  0.00    +0.000 C 
BRANCH  14  22
ATOM     22  O   UNL     1      -1.713  11.944  23.171  0.00  0.00    +0.000 OA
BRANCH  22  24
ATOM     23  C   UNL     1      -3.797  12.489  24.217  0.00  0.00    +0.000 C 
ATOM     24  C   UNL     1      -2.618  13.022  23.422  0.00  0.00    +0.000 C 
ENDBRANCH  22  24
ENDBRANCH  14  22
ENDBRANCH   1  19
TORSDOF 4
ENDMDL
MODEL 6
REMARK VINA RESULT:      -6.6      3.014      8.060
REMARK  Name = 
REMARK  6 active torsions:
REMARK  status: ('A' for Active; 'I' for Inactive)
REMARK    1  A    between atoms: C_1  and  C_2
REMARK    2  A    between atoms: C_2  and  O_3
REMARK    3  A    between atoms: O_3  and  C_4
REMARK    4  A    between atoms: N_9  and  C_10
REMARK    5  A    between atoms: C_10  and  C_11
REMARK    6  A    between atoms: C_17  and  C_18
REMARK                            x       y       z     vdW  Elec       q    Type
REMARK                         _______ _______ _______ _____ _____    ______ ____
ROOT
ATOM      1  C   UNL     1       3.204   7.893  18.185  0.00  0.00    +0.000 C 
ENDROOT
BRANCH   1   2
ATOM      2  C   UNL     1       2.036   8.602  18.864  0.00  0.00    +0.000 A 
ATOM      3  C   UNL     1       1.210   9.371  18.146  0.00  0.00    +0.000 A 
ATOM      4  C   UNL     1       0.236  10.220  18.835  0.00  0.00    +0.000 A 
ATOM      5  O   UNL     1      -0.398  11.041  18.171  0.00  0.00    +0.000 OA
ATOM      6  N   UNL     1       0.159  10.051  20.203  0.00  0.00    +0.000 N 
ATOM      7  C   UNL     1      -0.733  10.830  20.915  0.00  0.00    +0.000 A 
ATOM      8  C   UNL     1      -0.862  10.729  22.249  0.00  0.00    +0.000 A 
ATOM      9  C   UNL     1      -1.840  11.560  23.014  0.00  0.00    +0.000 C 
ATOM     10  C   UNL     1      -0.048   9.762  22.956  0.00  0.00    +0.000 A 
ATOM     11  C   UNL     1       0.817   8.986  22.305  0.00  0.00    +0.000 A 
ATOM     12  C   UNL     1       1.004   9.143  20.833  0.00  0.00    +0.000 A 
ATOM     13  N   UNL     1       1.925   8.454  20.229  0.00  0.00    +0.000 NA
ENDBRANCH   1   2
BRANCH   1  19
ATOM     14  C   UNL     1       3.850   3.202  19.749  0.00  0.00    +0.000 C 
ATOM     15  O   UNL     1       4.879   2.575  19.559  0.00  0.00    +0.000 OA
ATOM     16  N   UNL     1       3.640   4.488  19.312  0.00  0.00    +0.000 N 
ATOM     17  C   UNL     1       4.675   5.190  18.553  0.00  0.00    +0.000 C 
ATOM     18  C   UNL     1       4.095   5.825  17.266  0.00  0.00    +0.000 C 
ATOM     19  N   UNL     1       2.869   6.642  17.472  0.00  0.00    +0.000 NA
ATOM     20  C   UNL     1       1.884   5.784  18.177  0.00  0.00    +0.000 C 
ATOM     21  C   UNL     1       2.398   5.220  19.517  0.00  0.00    +0.000 C 
BRANCH  14  22
ATOM     22  O   UNL     1       2.737   2.677  20.333  0.00  0.00    +0.000 OA
BRANCH  22  24
ATOM     23  C   UNL     1       0.752   2.319  19.044  0.00  0.00    +0.000 C 
ATOM     24  C   UNL     1       2.051   1.708  19.537  0.00  0.00    +0.000 C 
ENDBRANCH  22  24
ENDBRANCH  14  22
ENDBRANCH   1  19
TORSDOF 4
ENDMDL
MODEL 7
REMARK VINA RESULT:      -6.6      3.630      6.058
REMARK  Name = 
REMARK  6 active torsions:
REMARK  status: ('A' for Active; 'I' for Inactive)
REMARK    1  A    between atoms: C_1  and  C_2
REMARK    2  A    between atoms: C_2  and  O_3
REMARK    3  A    between atoms: O_3  and  C_4
REMARK    4  A    between atoms: N_9  and  C_10
REMARK    5  A    between atoms: C_10  and  C_11
REMARK    6  A    between atoms: C_17  and  C_18
REMARK                            x       y       z     vdW  Elec       q    Type
REMARK                         _______ _______ _______ _____ _____    ______ ____
ROOT
ATOM      1  C   UNL     1       1.010   8.783  20.659  0.00  0.00    +0.000 C 
ENDROOT
BRANCH   1   2
ATOM      2  C   UNL     1       1.739   7.547  20.141  0.00  0.00    +0.000 A 
ATOM      3  C   UNL     1       2.550   7.642  19.081  0.00  0.00    +0.000 A 
ATOM      4  C   UNL     1       3.064   6.422  18.457  0.00  0.00    +0.000 A 
ATOM      5  O   UNL     1       3.670   6.522  17.388  0.00  0.00    +0.000 OA
ATOM      6  N   UNL     1       2.768   5.245  19.113  0.00  0.00    +0.000 N 
ATOM      7  C   UNL     1       3.214   4.055  18.569  0.00  0.00    +0.000 A 
ATOM      8  C   UNL     1       2.961   2.867  19.146  0.00  0.00    +0.000 A 
ATOM      9  C   UNL     1       3.461   1.584  18.566  0.00  0.00    +0.000 C 
ATOM     10  C   UNL     1       2.208   2.841  20.382  0.00  0.00    +0.000 A 
ATOM     11  C   UNL     1       1.768   3.965  20.943  0.00  0.00    +0.000 A 
ATOM     12  C   UNL     1       1.996   5.277  20.270  0.00  0.00    +0.000 A 
ATOM     13  N   UNL     1       1.470   6.353  20.774  0.00  0.00    +0.000 NA
ENDBRANCH   1   2
BRANCH   1  19
ATOM     14  C   UNL     1      -2.451  12.182  19.502  0.00  0.00    +0.000 C 
ATOM     15  O   UNL     1      -3.162  12.096  18.515  0.00  0.00    +0.000 OA
ATOM     16  N   UNL     1      -1.477  11.270  19.833  0.00  0.00    +0.000 N 
ATOM     17  C   UNL     1      -1.226  10.113  18.974  0.00  0.00    +0.000 C 
ATOM     18  C   UNL     1       0.283   9.963  18.661  0.00  0.00    +0.000 C 
ATOM     19  N   UNL     1       1.174  10.010  19.851  0.00  0.00    +0.000 NA
ATOM     20  C   UNL     1       0.866  11.265  20.580  0.00  0.00    +0.000 C 
ATOM     21  C   UNL     1      -0.613  11.395  20.998  0.00  0.00    +0.000 C 
BRANCH  14  22
ATOM     22  O   UNL     1      -2.460  13.244  20.355  0.00  0.00    +0.000 OA
BRANCH  22  24
ATOM     23  C   UNL     1      -4.051  12.748  22.074  0.00  0.00    +0.000 C 
ATOM     24  C   UNL     1      -3.755  13.595  20.850  0.00  0.00    +0.000 C 
ENDBRANCH  22  24
ENDBRANCH  14  22
ENDBRANCH   1  19
TORSDOF 4
ENDMDL
MODEL 8
REMARK VINA RESULT:      -6.6      3.758      8.767
REMARK  Name = 
REMARK  6 active torsions:
REMARK  status: ('A' for Active; 'I' for Inactive)
REMARK    1  A    between atoms: C_1  and  C_2
REMARK    2  A    between atoms: C_2  and  O_3
REMARK    3  A    between atoms: O_3  and  C_4
REMARK    4  A    between atoms: N_9  and  C_10
REMARK    5  A    between atoms: C_10  and  C_11
REMARK    6  A    between atoms: C_17  and  C_18
REMARK                            x       y       z     vdW  Elec       q    Type
REMARK                         _______ _______ _______ _____ _____    ______ ____
ROOT
ATOM      1  C   UNL     1       1.831   7.728  19.514  0.00  0.00    +0.000 C 
ENDROOT
BRANCH   1   2
ATOM      2  C   UNL     1       1.160   8.774  20.399  0.00  0.00    +0.000 A 
ATOM      3  C   UNL     1       1.352   8.754  21.723  0.00  0.00    +0.000 A 
ATOM      4  C   UNL     1       0.533   9.613  22.581  0.00  0.00    +0.000 A 
ATOM      5  O   UNL     1       0.606   9.460  23.802  0.00  0.00    +0.000 OA
ATOM      6  N   UNL     1      -0.300  10.494  21.923  0.00  0.00    +0.000 N 
ATOM      7  C   UNL     1      -1.108  11.326  22.675  0.00  0.00    +0.000 A 
ATOM      8  C   UNL     1      -1.950  12.207  22.109  0.00  0.00    +0.000 A 
ATOM      9  C   UNL     1      -2.809  13.117  22.925  0.00  0.00    +0.000 C 
ATOM     10  C   UNL     1      -1.999  12.292  20.664  0.00  0.00    +0.000 A 
ATOM     11  C   UNL     1      -1.230  11.515  19.903  0.00  0.00    +0.000 A 
ATOM     12  C   UNL     1      -0.341  10.495  20.533  0.00  0.00    +0.000 A 
ATOM     13  N   UNL     1       0.323   9.673  19.777  0.00  0.00    +0.000 NA
ENDBRANCH   1   2
BRANCH   1  19
ATOM     14  C   UNL     1       1.817   2.819  18.638  0.00  0.00    +0.000 C 
ATOM     15  O   UNL     1       1.022   2.054  19.158  0.00  0.00    +0.000 OA
ATOM     16  N   UNL     1       1.855   4.172  18.877  0.00  0.00    +0.000 N 
ATOM     17  C   UNL     1       0.915   4.782  19.816  0.00  0.00    +0.000 C 
ATOM     18  C   UNL     1       1.647   5.693  20.832  0.00  0.00    +0.000 C 
ATOM     19  N   UNL     1       2.586   6.674  20.225  0.00  0.00    +0.000 NA
ATOM     20  C   UNL     1       3.524   5.910  19.366  0.00  0.00    +0.000 C 
ATOM     21  C   UNL     1       2.826   5.074  18.274  0.00  0.00    +0.000 C 
BRANCH  14  22
ATOM     22  O   UNL     1       2.836   2.419  17.827  0.00  0.00    +0.000 OA
BRANCH  22  24
ATOM     23  C   UNL     1       4.402   2.017  19.594  0.00  0.00    +0.000 C 
ATOM     24  C   UNL     1       3.688   1.420  18.395  0.00  0.00    +0.000 C 
ENDBRANCH  22  24
ENDBRANCH  14  22
ENDBRANCH   1  19
TORSDOF 4
ENDMDL
MODEL 9
REMARK VINA RESULT:      -6.6      2.656      8.669
REMARK  Name = 
REMARK  6 active torsions:
REMARK  status: ('A' for Active; 'I' for Inactive)
REMARK    1  A    between atoms: C_1  and  C_2
REMARK    2  A    between atoms: C_2  and  O_3
REMARK    3  A    between atoms: O_3  and  C_4
REMARK    4  A    between atoms: N_9  and  C_10
REMARK    5  A    between atoms: C_10  and  C_11
REMARK    6  A    between atoms: C_17  and  C_18
REMARK                            x       y       z     vdW  Elec       q    Type
REMARK                         _______ _______ _______ _____ _____    ______ ____
ROOT
ATOM      1  C   UNL     1       2.154   8.100  18.020  0.00  0.00    +0.000 C 
ENDROOT
BRANCH   1   2
ATOM      2  C   UNL     1       1.173   8.984  18.784  0.00  0.00    +0.000 A 
ATOM      3  C   UNL     1       0.513   9.958  18.148  0.00  0.00    +0.000 A 
ATOM      4  C   UNL     1      -0.249  10.938  18.924  0.00  0.00    +0.000 A 
ATOM      5  O   UNL     1      -0.709  11.919  18.338  0.00  0.00    +0.000 OA
ATOM      6  N   UNL     1      -0.333  10.690  20.279  0.00  0.00    +0.000 N 
ATOM      7  C   UNL     1      -1.028  11.584  21.072  0.00  0.00    +0.000 A 
ATOM      8  C   UNL     1      -1.151  11.416  22.400  0.00  0.00    +0.000 A 
ATOM      9  C   UNL     1      -1.918  12.373  23.251  0.00  0.00    +0.000 C 
ATOM     10  C   UNL     1      -0.543  10.252  23.012  0.00  0.00    +0.000 A 
ATOM     11  C   UNL     1       0.128   9.363  22.283  0.00  0.00    +0.000 A 
ATOM     12  C   UNL     1       0.315   9.584  20.818  0.00  0.00    +0.000 A 
ATOM     13  N   UNL     1       1.060   8.764  20.139  0.00  0.00    +0.000 NA
ENDBRANCH   1   2
BRANCH   1  19
ATOM     14  C   UNL     1       4.621   3.921  16.873  0.00  0.00    +0.000 C 
ATOM     15  O   UNL     1       4.182   2.806  17.102  0.00  0.00    +0.000 OA
ATOM     16  N   UNL     1       3.971   5.088  17.196  0.00  0.00    +0.000 N 
ATOM     17  C   UNL     1       2.674   5.048  17.872  0.00  0.00    +0.000 C 
ATOM     18  C   UNL     1       2.655   5.983  19.105  0.00  0.00    +0.000 C 
ATOM     19  N   UNL     1       3.135   7.366  18.847  0.00  0.00    +0.000 NA
ATOM     20  C   UNL     1       4.484   7.255  18.239  0.00  0.00    +0.000 C 
ATOM     21  C   UNL     1       4.516   6.415  16.946  0.00  0.00    +0.000 C 
BRANCH  14  22
ATOM     22  O   UNL     1       5.860   4.158  16.357  0.00  0.00    +0.000 OA
BRANCH  22  24
ATOM     23  C   UNL     1       6.805   4.770  14.244  0.00  0.00    +0.000 C 
ATOM     24  C   UNL     1       6.036   3.710  15.010  0.00  0.00    +0.000 C 
ENDBRANCH  22  24
ENDBRANCH  14  22
ENDBRANCH   1  19
TORSDOF 4
ENDMDL
