MODEL 1
REMARK VINA RESULT:      -7.3      0.000      0.000
REMARK  Name = 
REMARK  12 active torsions:
REMARK  status: ('A' for Active; 'I' for Inactive)
REMARK    1  A    between atoms: C_1  and  C_2
REMARK    2  A    between atoms: C_2  and  C_3
REMARK    3  A    between atoms: C_2  and  C_4
REMARK    4  A    between atoms: C_2  and  O_5
REMARK    5  A    between atoms: O_5  and  C_6
REMARK    6  A    between atoms: C_6  and  C_8
REMARK    7  A    between atoms: C_8  and  N_9
REMARK    8  A    between atoms: N_9  and  C_10
REMARK    9  A    between atoms: N_9  and  C_18
REMARK   10  A    between atoms: C_10  and  C_11
REMARK   11  A    between atoms: C_18  and  C_19
REMARK   12  A    between atoms: C_22  and  N_23
REMARK                            x       y       z     vdW  Elec       q    Type
REMARK                         _______ _______ _______ _____ _____    ______ ____
ROOT
ATOM      1  N   UNL     1       5.014   4.172  16.508  0.00  0.00    +0.000 NA
ENDROOT
BRANCH   1   2
ATOM      2  C   UNL     1       5.196   4.593  15.090  0.00  0.00    +0.000 C 
BRANCH   2   3
ATOM      3  C   UNL     1       6.540   4.309  14.431  0.00  0.00    +0.000 C 
ATOM      4  O   UNL     1       7.471   5.100  14.566  0.00  0.00    +0.000 OA
BRANCH   3   5
ATOM      5  O   UNL     1       6.573   3.208  13.630  0.00  0.00    +0.000 OA
BRANCH   5   7
ATOM      6  C   UNL     1       7.168   4.571  11.642  0.00  0.00    +0.000 C 
ATOM      7  C   UNL     1       6.378   3.374  12.192  0.00  0.00    +0.000 C 
ATOM      8  C   UNL     1       4.882   3.483  11.864  0.00  0.00    +0.000 C 
ATOM      9  C   UNL     1       6.931   2.110  11.509  0.00  0.00    +0.000 C 
ENDBRANCH   5   7
ENDBRANCH   3   5
ENDBRANCH   2   3
ENDBRANCH   1   2
BRANCH   1  10
ATOM     10  C   UNL     1       4.749   5.359  17.364  0.00  0.00    +0.000 C 
BRANCH  10  11
ATOM     11  C   UNL     1       6.005   6.143  17.721  0.00  0.00    +0.000 A 
ATOM     12  C   UNL     1       6.941   5.612  18.625  0.00  0.00    +0.000 A 
ATOM     13  C   UNL     1       8.045   6.370  19.025  0.00  0.00    +0.000 A 
ATOM     14  C   UNL     1       8.222   7.648  18.514  0.00  0.00    +0.000 A 
ATOM     15  F   UNL     1       9.256   8.391  18.934  0.00  0.00    +0.000 F 
ATOM     16  C   UNL     1       7.339   8.174  17.581  0.00  0.00    +0.000 A 
ATOM     17  C   UNL     1       6.233   7.418  17.176  0.00  0.00    +0.000 A 
ENDBRANCH  10  11
ENDBRANCH   1  10
BRANCH   1  18
ATOM     18  C   UNL     1       3.841   3.256  16.583  0.00  0.00    +0.000 C 
BRANCH  18  19
ATOM     19  C   UNL     1       3.061   3.336  17.875  0.00  0.00    +0.000 A 
ATOM     20  C   UNL     1       1.818   3.889  18.118  0.00  0.00    +0.000 A 
ATOM     21  C   UNL     1       1.380   3.686  19.460  0.00  0.00    +0.000 A 
ATOM     22  C   UNL     1       2.314   2.978  20.197  0.00  0.00    +0.000 A 
ATOM     23  S   UNL     1       3.701   2.605  19.295  0.00  0.00    +0.000 S 
BRANCH  22  24
ATOM     24  N   UNL     1       2.191   2.553  21.566  0.00  0.00    +0.000 N 
ATOM     25  O   UNL     1       1.071   2.675  22.082  0.00  0.00    +0.000 OA
ATOM     26  O   UNL     1       3.192   2.094  22.131  0.00  0.00    +0.000 OA
ENDBRANCH  22  24
ENDBRANCH  18  19
ENDBRANCH   1  18
TORSDOF 9
ENDMDL
MODEL 2
REMARK VINA RESULT:      -7.2      4.419      5.992
REMARK  Name = 
REMARK  12 active torsions:
REMARK  status: ('A' for Active; 'I' for Inactive)
REMARK    1  A    between atoms: C_1  and  C_2
REMARK    2  A    between atoms: C_2  and  C_3
REMARK    3  A    between atoms: C_2  and  C_4
REMARK    4  A    between atoms: C_2  and  O_5
REMARK    5  A    between atoms: O_5  and  C_6
REMARK    6  A    between atoms: C_6  and  C_8
REMARK    7  A    between atoms: C_8  and  N_9
REMARK    8  A    between atoms: N_9  and  C_10
REMARK    9  A    between atoms: N_9  and  C_18
REMARK   10  A    between atoms: C_10  and  C_11
REMARK   11  A    between atoms: C_18  and  C_19
REMARK   12  A    between atoms: C_22  and  N_23
REMARK                            x       y       z     vdW  Elec       q    Type
REMARK                         _______ _______ _______ _____ _____    ______ ____
ROOT
ATOM      1  N   UNL     1       3.835   5.850  17.747  0.00  0.00    +0.000 NA
ENDROOT
BRANCH   1   2
ATOM      2  C   UNL     1       5.320   5.904  17.882  0.00  0.00    +0.000 C 
BRANCH   2   3
ATOM      3  C   UNL     1       6.104   6.632  16.797  0.00  0.00    +0.000 C 
ATOM      4  O   UNL     1       6.799   7.603  17.086  0.00  0.00    +0.000 OA
BRANCH   3   5
ATOM      5  O   UNL     1       5.882   6.192  15.527  0.00  0.00    +0.000 OA
BRANCH   5   7
ATOM      6  C   UNL     1       5.400   3.945  14.588  0.00  0.00    +0.000 C 
ATOM      7  C   UNL     1       6.466   4.921  15.107  0.00  0.00    +0.000 C 
ATOM      8  C   UNL     1       7.288   4.307  16.250  0.00  0.00    +0.000 C 
ATOM      9  C   UNL     1       7.418   5.222  13.936  0.00  0.00    +0.000 C 
ENDBRANCH   5   7
ENDBRANCH   3   5
ENDBRANCH   2   3
ENDBRANCH   1   2
BRANCH   1  10
ATOM     10  C   UNL     1       3.394   4.446  17.529  0.00  0.00    +0.000 C 
BRANCH  10  11
ATOM     11  C   UNL     1       2.742   3.817  18.753  0.00  0.00    +0.000 A 
ATOM     12  C   UNL     1       1.344   3.818  18.893  0.00  0.00    +0.000 A 
ATOM     13  C   UNL     1       0.751   3.326  20.059  0.00  0.00    +0.000 A 
ATOM     14  C   UNL     1       1.549   2.822  21.075  0.00  0.00    +0.000 A 
ATOM     15  F   UNL     1       0.981   2.393  22.212  0.00  0.00    +0.000 F 
ATOM     16  C   UNL     1       2.930   2.763  20.939  0.00  0.00    +0.000 A 
ATOM     17  C   UNL     1       3.528   3.254  19.772  0.00  0.00    +0.000 A 
ENDBRANCH  10  11
ENDBRANCH   1  10
BRANCH   1  18
ATOM     18  C   UNL     1       3.228   6.352  19.012  0.00  0.00    +0.000 C 
BRANCH  18  19
ATOM     19  C   UNL     1       2.453   7.641  18.870  0.00  0.00    +0.000 A 
ATOM     20  C   UNL     1       2.245   8.422  17.749  0.00  0.00    +0.000 A 
ATOM     21  C   UNL     1       1.378   9.526  18.001  0.00  0.00    +0.000 A 
ATOM     22  C   UNL     1       0.952   9.545  19.318  0.00  0.00    +0.000 A 
ATOM     23  S   UNL     1       1.619   8.281  20.232  0.00  0.00    +0.000 S 
BRANCH  22  24
ATOM     24  N   UNL     1       0.038  10.481  19.916  0.00  0.00    +0.000 N 
ATOM     25  O   UNL     1       0.509  11.234  20.781  0.00  0.00    +0.000 OA
ATOM     26  O   UNL     1      -1.139  10.481  19.533  0.00  0.00    +0.000 OA
ENDBRANCH  22  24
ENDBRANCH  18  19
ENDBRANCH   1  18
TORSDOF 9
ENDMDL
MODEL 3
REMARK VINA RESULT:      -7.1      3.976      5.527
REMARK  Name = 
REMARK  12 active torsions:
REMARK  status: ('A' for Active; 'I' for Inactive)
REMARK    1  A    between atoms: C_1  and  C_2
REMARK    2  A    between atoms: C_2  and  C_3
REMARK    3  A    between atoms: C_2  and  C_4
REMARK    4  A    between atoms: C_2  and  O_5
REMARK    5  A    between atoms: O_5  and  C_6
REMARK    6  A    between atoms: C_6  and  C_8
REMARK    7  A    between atoms: C_8  and  N_9
REMARK    8  A    between atoms: N_9  and  C_10
REMARK    9  A    between atoms: N_9  and  C_18
REMARK   10  A    between atoms: C_10  and  C_11
REMARK   11  A    between atoms: C_18  and  C_19
REMARK   12  A    between atoms: C_22  and  N_23
REMARK                            x       y       z     vdW  Elec       q    Type
REMARK                         _______ _______ _______ _____ _____    ______ ____
ROOT
ATOM      1  N   UNL     1       3.067   6.913  18.054  0.00  0.00    +0.000 NA
ENDROOT
BRANCH   1   2
ATOM      2  C   UNL     1       4.154   6.447  17.145  0.00  0.00    +0.000 C 
BRANCH   2   3
ATOM      3  C   UNL     1       4.963   5.229  17.573  0.00  0.00    +0.000 C 
ATOM      4  O   UNL     1       4.790   4.148  17.016  0.00  0.00    +0.000 OA
BRANCH   3   5
ATOM      5  O   UNL     1       5.773   5.421  18.652  0.00  0.00    +0.000 OA
BRANCH   5   7
ATOM      6  C   UNL     1       7.994   5.618  19.744  0.00  0.00    +0.000 C 
ATOM      7  C   UNL     1       7.196   5.663  18.432  0.00  0.00    +0.000 C 
ATOM      8  C   UNL     1       7.404   6.991  17.688  0.00  0.00    +0.000 C 
ATOM      9  C   UNL     1       7.720   4.523  17.541  0.00  0.00    +0.000 C 
ENDBRANCH   5   7
ENDBRANCH   3   5
ENDBRANCH   2   3
ENDBRANCH   1   2
BRANCH   1  10
ATOM     10  C   UNL     1       2.753   8.342  17.784  0.00  0.00    +0.000 C 
BRANCH  10  11
ATOM     11  C   UNL     1       1.662   8.904  18.684  0.00  0.00    +0.000 A 
ATOM     12  C   UNL     1       0.683   9.766  18.161  0.00  0.00    +0.000 A 
ATOM     13  C   UNL     1      -0.262  10.357  19.004  0.00  0.00    +0.000 A 
ATOM     14  C   UNL     1      -0.239  10.077  20.363  0.00  0.00    +0.000 A 
ATOM     15  F   UNL     1      -1.117  10.680  21.178  0.00  0.00    +0.000 F 
ATOM     16  C   UNL     1       0.686   9.189  20.896  0.00  0.00    +0.000 A 
ATOM     17  C   UNL     1       1.634   8.595  20.054  0.00  0.00    +0.000 A 
ENDBRANCH  10  11
ENDBRANCH   1  10
BRANCH   1  18
ATOM     18  C   UNL     1       1.848   6.097  17.790  0.00  0.00    +0.000 C 
BRANCH  18  19
ATOM     19  C   UNL     1       1.762   4.818  18.591  0.00  0.00    +0.000 A 
ATOM     20  C   UNL     1       1.554   3.522  18.157  0.00  0.00    +0.000 A 
ATOM     21  C   UNL     1       1.626   2.571  19.217  0.00  0.00    +0.000 A 
ATOM     22  C   UNL     1       1.890   3.182  20.431  0.00  0.00    +0.000 A 
ATOM     23  S   UNL     1       2.006   4.868  20.293  0.00  0.00    +0.000 S 
BRANCH  22  24
ATOM     24  N   UNL     1       2.076   2.534  21.701  0.00  0.00    +0.000 N 
ATOM     25  O   UNL     1       3.225   2.153  21.962  0.00  0.00    +0.000 OA
ATOM     26  O   UNL     1       1.095   2.406  22.445  0.00  0.00    +0.000 OA
ENDBRANCH  22  24
ENDBRANCH  18  19
ENDBRANCH   1  18
TORSDOF 9
ENDMDL
MODEL 4
REMARK VINA RESULT:      -7.1      3.978      5.699
REMARK  Name = 
REMARK  12 active torsions:
REMARK  status: ('A' for Active; 'I' for Inactive)
REMARK    1  A    between atoms: C_1  and  C_2
REMARK    2  A    between atoms: C_2  and  C_3
REMARK    3  A    between atoms: C_2  and  C_4
REMARK    4  A    between atoms: C_2  and  O_5
REMARK    5  A    between atoms: O_5  and  C_6
REMARK    6  A    between atoms: C_6  and  C_8
REMARK    7  A    between atoms: C_8  and  N_9
REMARK    8  A    between atoms: N_9  and  C_10
REMARK    9  A    between atoms: N_9  and  C_18
REMARK   10  A    between atoms: C_10  and  C_11
REMARK   11  A    between atoms: C_18  and  C_19
REMARK   12  A    between atoms: C_22  and  N_23
REMARK                            x       y       z     vdW  Elec       q    Type
REMARK                         _______ _______ _______ _____ _____    ______ ____
ROOT
ATOM      1  N   UNL     1       4.583   4.730  17.952  0.00  0.00    +0.000 NA
ENDROOT
BRANCH   1   2
ATOM      2  C   UNL     1       6.037   4.461  18.149  0.00  0.00    +0.000 C 
BRANCH   2   3
ATOM      3  C   UNL     1       7.028   5.306  17.358  0.00  0.00    +0.000 C 
ATOM      4  O   UNL     1       7.321   6.434  17.743  0.00  0.00    +0.000 OA
BRANCH   3   5
ATOM      5  O   UNL     1       7.448   4.758  16.183  0.00  0.00    +0.000 OA
BRANCH   5   7
ATOM      6  C   UNL     1       5.569   6.005  15.145  0.00  0.00    +0.000 C 
ATOM      7  C   UNL     1       6.592   4.869  15.005  0.00  0.00    +0.000 C 
ATOM      8  C   UNL     1       5.910   3.524  14.711  0.00  0.00    +0.000 C 
ATOM      9  C   UNL     1       7.501   5.219  13.813  0.00  0.00    +0.000 C 
ENDBRANCH   5   7
ENDBRANCH   3   5
ENDBRANCH   2   3
ENDBRANCH   1   2
BRANCH   1  10
ATOM     10  C   UNL     1       3.837   3.447  17.845  0.00  0.00    +0.000 C 
BRANCH  10  11
ATOM     11  C   UNL     1       2.993   3.132  19.073  0.00  0.00    +0.000 A 
ATOM     12  C   UNL     1       1.615   3.408  19.078  0.00  0.00    +0.000 A 
ATOM     13  C   UNL     1       0.859   3.207  20.236  0.00  0.00    +0.000 A 
ATOM     14  C   UNL     1       1.473   2.719  21.381  0.00  0.00    +0.000 A 
ATOM     15  F   UNL     1       0.756   2.571  22.504  0.00  0.00    +0.000 F 
ATOM     16  C   UNL     1       2.822   2.391  21.385  0.00  0.00    +0.000 A 
ATOM     17  C   UNL     1       3.583   2.590  20.227  0.00  0.00    +0.000 A 
ENDBRANCH  10  11
ENDBRANCH   1  10
BRANCH   1  18
ATOM     18  C   UNL     1       4.077   5.482  19.135  0.00  0.00    +0.000 C 
BRANCH  18  19
ATOM     19  C   UNL     1       3.314   6.743  18.800  0.00  0.00    +0.000 A 
ATOM     20  C   UNL     1       3.370   7.528  17.664  0.00  0.00    +0.000 A 
ATOM     21  C   UNL     1       2.425   8.595  17.687  0.00  0.00    +0.000 A 
ATOM     22  C   UNL     1       1.675   8.584  18.851  0.00  0.00    +0.000 A 
ATOM     23  S   UNL     1       2.134   7.336  19.904  0.00  0.00    +0.000 S 
BRANCH  22  24
ATOM     24  N   UNL     1       0.603   9.478  19.196  0.00  0.00    +0.000 N 
ATOM     25  O   UNL     1       0.269   9.503  20.389  0.00  0.00    +0.000 OA
ATOM     26  O   UNL     1       0.094  10.160  18.297  0.00  0.00    +0.000 OA
ENDBRANCH  22  24
ENDBRANCH  18  19
ENDBRANCH   1  18
TORSDOF 9
ENDMDL
MODEL 5
REMARK VINA RESULT:      -7.0      4.554      6.036
REMARK  Name = 
REMARK  12 active torsions:
REMARK  status: ('A' for Active; 'I' for Inactive)
REMARK    1  A    between atoms: C_1  and  C_2
REMARK    2  A    between atoms: C_2  and  C_3
REMARK    3  A    between atoms: C_2  and  C_4
REMARK    4  A    between atoms: C_2  and  O_5
REMARK    5  A    between atoms: O_5  and  C_6
REMARK    6  A    between atoms: C_6  and  C_8
REMARK    7  A    between atoms: C_8  and  N_9
REMARK    8  A    between atoms: N_9  and  C_10
REMARK    9  A    between atoms: N_9  and  C_18
REMARK   10  A    between atoms: C_10  and  C_11
REMARK   11  A    between atoms: C_18  and  C_19
REMARK   12  A    between atoms: C_22  and  N_23
REMARK                            x       y       z     vdW  Elec       q    Type
REMARK                         _______ _______ _______ _____ _____    ______ ____
ROOT
ATOM      1  N   UNL     1       3.703   6.120  17.841  0.00  0.00    +0.000 NA
ENDROOT
BRANCH   1   2
ATOM      2  C   UNL     1       5.187   6.085  17.984  0.00  0.00    +0.000 C 
BRANCH   2   3
ATOM      3  C   UNL     1       6.022   6.701  16.868  0.00  0.00    +0.000 C 
ATOM      4  O   UNL     1       6.775   7.641  17.109  0.00  0.00    +0.000 OA
BRANCH   3   5
ATOM      5  O   UNL     1       5.781   6.205  15.622  0.00  0.00    +0.000 OA
BRANCH   5   7
ATOM      6  C   UNL     1       5.337   3.923  14.752  0.00  0.00    +0.000 C 
ATOM      7  C   UNL     1       6.387   4.934  15.237  0.00  0.00    +0.000 C 
ATOM      8  C   UNL     1       7.226   4.369  16.393  0.00  0.00    +0.000 C 
ATOM      9  C   UNL     1       7.327   5.218  14.052  0.00  0.00    +0.000 C 
ENDBRANCH   5   7
ENDBRANCH   3   5
ENDBRANCH   2   3
ENDBRANCH   1   2
BRANCH   1  10
ATOM     10  C   UNL     1       3.179   4.745  17.626  0.00  0.00    +0.000 C 
BRANCH  10  11
ATOM     11  C   UNL     1       2.673   4.082  18.900  0.00  0.00    +0.000 A 
ATOM     12  C   UNL     1       3.566   3.417  19.758  0.00  0.00    +0.000 A 
ATOM     13  C   UNL     1       3.090   2.728  20.877  0.00  0.00    +0.000 A 
ATOM     14  C   UNL     1       1.728   2.715  21.147  0.00  0.00    +0.000 A 
ATOM     15  F   UNL     1       1.268   2.016  22.194  0.00  0.00    +0.000 F 
ATOM     16  C   UNL     1       0.832   3.407  20.343  0.00  0.00    +0.000 A 
ATOM     17  C   UNL     1       1.305   4.099  19.222  0.00  0.00    +0.000 A 
ENDBRANCH  10  11
ENDBRANCH   1  10
BRANCH   1  18
ATOM     18  C   UNL     1       3.120   6.664  19.101  0.00  0.00    +0.000 C 
BRANCH  18  19
ATOM     19  C   UNL     1       2.261   7.893  18.917  0.00  0.00    +0.000 A 
ATOM     20  C   UNL     1       1.968   8.595  17.763  0.00  0.00    +0.000 A 
ATOM     21  C   UNL     1       1.040   9.656  17.987  0.00  0.00    +0.000 A 
ATOM     22  C   UNL     1       0.656   9.722  19.315  0.00  0.00    +0.000 A 
ATOM     23  S   UNL     1       1.431   8.554  20.271  0.00  0.00    +0.000 S 
BRANCH  22  24
ATOM     24  N   UNL     1      -0.296  10.631  19.894  0.00  0.00    +0.000 N 
ATOM     25  O   UNL     1      -0.597  10.432  21.080  0.00  0.00    +0.000 OA
ATOM     26  O   UNL     1      -0.743  11.544  19.188  0.00  0.00    +0.000 OA
ENDBRANCH  22  24
ENDBRANCH  18  19
ENDBRANCH   1  18
TORSDOF 9
ENDMDL
MODEL 6
REMARK VINA RESULT:      -7.0      4.008      7.156
REMARK  Name = 
REMARK  12 active torsions:
REMARK  status: ('A' for Active; 'I' for Inactive)
REMARK    1  A    between atoms: C_1  and  C_2
REMARK    2  A    between atoms: C_2  and  C_3
REMARK    3  A    between atoms: C_2  and  C_4
REMARK    4  A    between atoms: C_2  and  O_5
REMARK    5  A    between atoms: O_5  and  C_6
REMARK    6  A    between atoms: C_6  and  C_8
REMARK    7  A    between atoms: C_8  and  N_9
REMARK    8  A    between atoms: N_9  and  C_10
REMARK    9  A    between atoms: N_9  and  C_18
REMARK   10  A    between atoms: C_10  and  C_11
REMARK   11  A    between atoms: C_18  and  C_19
REMARK   12  A    between atoms: C_22  and  N_23
REMARK                            x       y       z     vdW  Elec       q    Type
REMARK                         _______ _______ _______ _____ _____    ______ ____
ROOT
ATOM      1  N   UNL     1       2.227   6.226  19.815  0.00  0.00    +0.000 NA
ENDROOT
BRANCH   1   2
ATOM      2  C   UNL     1       1.460   5.028  20.261  0.00  0.00    +0.000 C 
BRANCH   2   3
ATOM      3  C   UNL     1       2.251   3.822  20.753  0.00  0.00    +0.000 C 
ATOM      4  O   UNL     1       2.177   3.475  21.929  0.00  0.00    +0.000 OA
BRANCH   3   5
ATOM      5  O   UNL     1       3.088   3.264  19.834  0.00  0.00    +0.000 OA
BRANCH   5   7
ATOM      6  C   UNL     1       1.132   1.894  19.157  0.00  0.00    +0.000 C 
ATOM      7  C   UNL     1       2.525   2.422  18.783  0.00  0.00    +0.000 C 
ATOM      8  C   UNL     1       3.491   1.278  18.439  0.00  0.00    +0.000 C 
ATOM      9  C   UNL     1       2.357   3.304  17.533  0.00  0.00    +0.000 C 
ENDBRANCH   5   7
ENDBRANCH   3   5
ENDBRANCH   2   3
ENDBRANCH   1   2
BRANCH   1  10
ATOM     10  C   UNL     1       1.951   7.375  20.719  0.00  0.00    +0.000 C 
BRANCH  10  11
ATOM     11  C   UNL     1       1.266   8.543  20.024  0.00  0.00    +0.000 A 
ATOM     12  C   UNL     1       0.289   9.297  20.696  0.00  0.00    +0.000 A 
ATOM     13  C   UNL     1      -0.407  10.309  20.028  0.00  0.00    +0.000 A 
ATOM     14  C   UNL     1      -0.119  10.577  18.698  0.00  0.00    +0.000 A 
ATOM     15  F   UNL     1      -0.819  11.515  18.045  0.00  0.00    +0.000 F 
ATOM     16  C   UNL     1       0.878   9.880  18.026  0.00  0.00    +0.000 A 
ATOM     17  C   UNL     1       1.578   8.867  18.693  0.00  0.00    +0.000 A 
ENDBRANCH  10  11
ENDBRANCH   1  10
BRANCH   1  18
ATOM     18  C   UNL     1       3.682   5.906  19.878  0.00  0.00    +0.000 C 
BRANCH  18  19
ATOM     19  C   UNL     1       4.390   5.931  18.543  0.00  0.00    +0.000 A 
ATOM     20  C   UNL     1       4.128   6.700  17.424  0.00  0.00    +0.000 A 
ATOM     21  C   UNL     1       5.082   6.496  16.384  0.00  0.00    +0.000 A 
ATOM     22  C   UNL     1       6.045   5.572  16.751  0.00  0.00    +0.000 A 
ATOM     23  S   UNL     1       5.775   4.939  18.301  0.00  0.00    +0.000 S 
BRANCH  22  24
ATOM     24  N   UNL     1       7.182   5.154  15.975  0.00  0.00    +0.000 N 
ATOM     25  O   UNL     1       7.273   5.627  14.834  0.00  0.00    +0.000 OA
ATOM     26  O   UNL     1       7.988   4.369  16.490  0.00  0.00    +0.000 OA
ENDBRANCH  22  24
ENDBRANCH  18  19
ENDBRANCH   1  18
TORSDOF 9
ENDMDL
MODEL 7
REMARK VINA RESULT:      -7.0      3.529      5.655
REMARK  Name = 
REMARK  12 active torsions:
REMARK  status: ('A' for Active; 'I' for Inactive)
REMARK    1  A    between atoms: C_1  and  C_2
REMARK    2  A    between atoms: C_2  and  C_3
REMARK    3  A    between atoms: C_2  and  C_4
REMARK    4  A    between atoms: C_2  and  O_5
REMARK    5  A    between atoms: O_5  and  C_6
REMARK    6  A    between atoms: C_6  and  C_8
REMARK    7  A    between atoms: C_8  and  N_9
REMARK    8  A    between atoms: N_9  and  C_10
REMARK    9  A    between atoms: N_9  and  C_18
REMARK   10  A    between atoms: C_10  and  C_11
REMARK   11  A    between atoms: C_18  and  C_19
REMARK   12  A    between atoms: C_22  and  N_23
REMARK                            x       y       z     vdW  Elec       q    Type
REMARK                         _______ _______ _______ _____ _____    ______ ____
ROOT
ATOM      1  N   UNL     1       4.701   4.775  18.160  0.00  0.00    +0.000 NA
ENDROOT
BRANCH   1   2
ATOM      2  C   UNL     1       4.616   3.313  18.442  0.00  0.00    +0.000 C 
BRANCH   2   3
ATOM      3  C   UNL     1       4.284   2.884  19.866  0.00  0.00    +0.000 C 
ATOM      4  O   UNL     1       4.883   1.943  20.381  0.00  0.00    +0.000 OA
BRANCH   3   5
ATOM      5  O   UNL     1       3.238   3.541  20.441  0.00  0.00    +0.000 OA
BRANCH   5   7
ATOM      6  C   UNL     1       1.812   1.844  19.324  0.00  0.00    +0.000 C 
ATOM      7  C   UNL     1       1.914   2.926  20.409  0.00  0.00    +0.000 C 
ATOM      8  C   UNL     1       0.829   4.001  20.241  0.00  0.00    +0.000 C 
ATOM      9  C   UNL     1       1.700   2.233  21.766  0.00  0.00    +0.000 C 
ENDBRANCH   5   7
ENDBRANCH   3   5
ENDBRANCH   2   3
ENDBRANCH   1   2
BRANCH   1  10
ATOM     10  C   UNL     1       5.792   5.043  17.184  0.00  0.00    +0.000 C 
BRANCH  10  11
ATOM     11  C   UNL     1       6.762   6.124  17.640  0.00  0.00    +0.000 A 
ATOM     12  C   UNL     1       7.642   5.884  18.710  0.00  0.00    +0.000 A 
ATOM     13  C   UNL     1       8.465   6.906  19.189  0.00  0.00    +0.000 A 
ATOM     14  C   UNL     1       8.422   8.159  18.594  0.00  0.00    +0.000 A 
ATOM     15  F   UNL     1       9.179   9.151  19.085  0.00  0.00    +0.000 F 
ATOM     16  C   UNL     1       7.599   8.406  17.503  0.00  0.00    +0.000 A 
ATOM     17  C   UNL     1       6.773   7.384  17.019  0.00  0.00    +0.000 A 
ENDBRANCH  10  11
ENDBRANCH   1  10
BRANCH   1  18
ATOM     18  C   UNL     1       3.408   5.218  17.566  0.00  0.00    +0.000 C 
BRANCH  18  19
ATOM     19  C   UNL     1       2.931   6.573  18.035  0.00  0.00    +0.000 A 
ATOM     20  C   UNL     1       2.888   7.774  17.352  0.00  0.00    +0.000 A 
ATOM     21  C   UNL     1       2.285   8.817  18.114  0.00  0.00    +0.000 A 
ATOM     22  C   UNL     1       1.885   8.369  19.362  0.00  0.00    +0.000 A 
ATOM     23  S   UNL     1       2.269   6.736  19.615  0.00  0.00    +0.000 S 
BRANCH  22  24
ATOM     24  N   UNL     1       1.203   9.128  20.375  0.00  0.00    +0.000 N 
ATOM     25  O   UNL     1       0.373   9.957  19.976  0.00  0.00    +0.000 OA
ATOM     26  O   UNL     1       1.477   8.906  21.561  0.00  0.00    +0.000 OA
ENDBRANCH  22  24
ENDBRANCH  18  19
ENDBRANCH   1  18
TORSDOF 9
ENDMDL
MODEL 8
REMARK VINA RESULT:      -7.0      3.875      7.312
REMARK  Name = 
REMARK  12 active torsions:
REMARK  status: ('A' for Active; 'I' for Inactive)
REMARK    1  A    between atoms: C_1  and  C_2
REMARK    2  A    between atoms: C_2  and  C_3
REMARK    3  A    between atoms: C_2  and  C_4
REMARK    4  A    between atoms: C_2  and  O_5
REMARK    5  A    between atoms: O_5  and  C_6
REMARK    6  A    between atoms: C_6  and  C_8
REMARK    7  A    between atoms: C_8  and  N_9
REMARK    8  A    between atoms: N_9  and  C_10
REMARK    9  A    between atoms: N_9  and  C_18
REMARK   10  A    between atoms: C_10  and  C_11
REMARK   11  A    between atoms: C_18  and  C_19
REMARK   12  A    between atoms: C_22  and  N_23
REMARK                            x       y       z     vdW  Elec       q    Type
REMARK                         _______ _______ _______ _____ _____    ______ ____
ROOT
ATOM      1  N   UNL     1       3.489   6.288  18.239  0.00  0.00    +0.000 NA
ENDROOT
BRANCH   1   2
ATOM      2  C   UNL     1       3.136   4.945  17.696  0.00  0.00    +0.000 C 
BRANCH   2   3
ATOM      3  C   UNL     1       1.802   4.339  18.113  0.00  0.00    +0.000 C 
ATOM      4  O   UNL     1       0.916   4.167  17.280  0.00  0.00    +0.000 OA
BRANCH   3   5
ATOM      5  O   UNL     1       1.657   4.122  19.451  0.00  0.00    +0.000 OA
BRANCH   5   7
ATOM      6  C   UNL     1       3.566   2.772  20.285  0.00  0.00    +0.000 C 
ATOM      7  C   UNL     1       2.057   2.832  20.005  0.00  0.00    +0.000 C 
ATOM      8  C   UNL     1       1.605   1.690  19.083  0.00  0.00    +0.000 C 
ATOM      9  C   UNL     1       1.336   2.674  21.357  0.00  0.00    +0.000 C 
ENDBRANCH   5   7
ENDBRANCH   3   5
ENDBRANCH   2   3
ENDBRANCH   1   2
BRANCH   1  10
ATOM     10  C   UNL     1       2.688   6.571  19.460  0.00  0.00    +0.000 C 
BRANCH  10  11
ATOM     11  C   UNL     1       1.971   7.913  19.418  0.00  0.00    +0.000 A 
ATOM     12  C   UNL     1       1.341   8.420  20.567  0.00  0.00    +0.000 A 
ATOM     13  C   UNL     1       0.603   9.605  20.505  0.00  0.00    +0.000 A 
ATOM     14  C   UNL     1       0.506  10.290  19.302  0.00  0.00    +0.000 A 
ATOM     15  F   UNL     1      -0.240  11.402  19.232  0.00  0.00    +0.000 F 
ATOM     16  C   UNL     1       1.162   9.838  18.165  0.00  0.00    +0.000 A 
ATOM     17  C   UNL     1       1.903   8.651  18.224  0.00  0.00    +0.000 A 
ENDBRANCH  10  11
ENDBRANCH   1  10
BRANCH   1  18
ATOM     18  C   UNL     1       4.934   6.284  18.605  0.00  0.00    +0.000 C 
BRANCH  18  19
ATOM     19  C   UNL     1       5.846   5.682  17.561  0.00  0.00    +0.000 A 
ATOM     20  C   UNL     1       6.831   4.723  17.702  0.00  0.00    +0.000 A 
ATOM     21  C   UNL     1       7.417   4.350  16.457  0.00  0.00    +0.000 A 
ATOM     22  C   UNL     1       6.851   5.045  15.401  0.00  0.00    +0.000 A 
ATOM     23  S   UNL     1       5.668   6.148  15.914  0.00  0.00    +0.000 S 
BRANCH  22  24
ATOM     24  N   UNL     1       7.159   4.895  14.004  0.00  0.00    +0.000 N 
ATOM     25  O   UNL     1       8.037   5.641  13.551  0.00  0.00    +0.000 OA
ATOM     26  O   UNL     1       6.543   4.040  13.355  0.00  0.00    +0.000 OA
ENDBRANCH  22  24
ENDBRANCH  18  19
ENDBRANCH   1  18
TORSDOF 9
ENDMDL
MODEL 9
REMARK VINA RESULT:      -6.9      4.427      6.344
REMARK  Name = 
REMARK  12 active torsions:
REMARK  status: ('A' for Active; 'I' for Inactive)
REMARK    1  A    between atoms: C_1  and  C_2
REMARK    2  A    between atoms: C_2  and  C_3
REMARK    3  A    between atoms: C_2  and  C_4
REMARK    4  A    between atoms: C_2  and  O_5
REMARK    5  A    between atoms: O_5  and  C_6
REMARK    6  A    between atoms: C_6  and  C_8
REMARK    7  A    between atoms: C_8  and  N_9
REMARK    8  A    between atoms: N_9  and  C_10
REMARK    9  A    between atoms: N_9  and  C_18
REMARK   10  A    between atoms: C_10  and  C_11
REMARK   11  A    between atoms: C_18  and  C_19
REMARK   12  A    between atoms: C_22  and  N_23
REMARK                            x       y       z     vdW  Elec       q    Type
REMARK                         _______ _______ _______ _____ _____    ______ ____
ROOT
ATOM      1  N   UNL     1       2.994   6.867  18.075  0.00  0.00    +0.000 NA
ENDROOT
BRANCH   1   2
ATOM      2  C   UNL     1       1.996   5.781  17.855  0.00  0.00    +0.000 C 
BRANCH   2   3
ATOM      3  C   UNL     1       2.495   4.342  17.888  0.00  0.00    +0.000 C 
ATOM      4  O   UNL     1       2.378   3.626  16.896  0.00  0.00    +0.000 OA
BRANCH   3   5
ATOM      5  O   UNL     1       2.958   3.915  19.096  0.00  0.00    +0.000 OA
BRANCH   5   7
ATOM      6  C   UNL     1       1.406   1.994  19.344  0.00  0.00    +0.000 C 
ATOM      7  C   UNL     1       2.041   3.227  20.001  0.00  0.00    +0.000 C 
ATOM      8  C   UNL     1       0.976   4.201  20.526  0.00  0.00    +0.000 C 
ATOM      9  C   UNL     1       2.872   2.730  21.198  0.00  0.00    +0.000 C 
ENDBRANCH   5   7
ENDBRANCH   3   5
ENDBRANCH   2   3
ENDBRANCH   1   2
BRANCH   1  10
ATOM     10  C   UNL     1       3.985   6.882  16.966  0.00  0.00    +0.000 C 
BRANCH  10  11
ATOM     11  C   UNL     1       5.223   6.040  17.246  0.00  0.00    +0.000 A 
ATOM     12  C   UNL     1       5.777   5.999  18.536  0.00  0.00    +0.000 A 
ATOM     13  C   UNL     1       6.966   5.303  18.772  0.00  0.00    +0.000 A 
ATOM     14  C   UNL     1       7.592   4.638  17.727  0.00  0.00    +0.000 A 
ATOM     15  F   UNL     1       8.756   4.010  17.944  0.00  0.00    +0.000 F 
ATOM     16  C   UNL     1       7.036   4.622  16.454  0.00  0.00    +0.000 A 
ATOM     17  C   UNL     1       5.845   5.317  16.214  0.00  0.00    +0.000 A 
ENDBRANCH  10  11
ENDBRANCH   1  10
BRANCH   1  18
ATOM     18  C   UNL     1       2.275   8.172  18.094  0.00  0.00    +0.000 C 
BRANCH  18  19
ATOM     19  C   UNL     1       1.640   8.523  19.420  0.00  0.00    +0.000 A 
ATOM     20  C   UNL     1       1.749   7.885  20.641  0.00  0.00    +0.000 A 
ATOM     21  C   UNL     1       1.064   8.577  21.684  0.00  0.00    +0.000 A 
ATOM     22  C   UNL     1       0.455   9.728  21.214  0.00  0.00    +0.000 A 
ATOM     23  S   UNL     1       0.674   9.941  19.546  0.00  0.00    +0.000 S 
BRANCH  22  24
ATOM     24  N   UNL     1      -0.281  10.692  21.987  0.00  0.00    +0.000 N 
ATOM     25  O   UNL     1      -0.194  10.592  23.219  0.00  0.00    +0.000 OA
ATOM     26  O   UNL     1      -0.937  11.551  21.385  0.00  0.00    +0.000 OA
ENDBRANCH  22  24
ENDBRANCH  18  19
ENDBRANCH   1  18
TORSDOF 9
ENDMDL
