MODEL 1
REMARK VINA RESULT:      -8.9      0.000      0.000
REMARK  Name = 
REMARK  6 active torsions:
REMARK  status: ('A' for Active; 'I' for Inactive)
REMARK    1  A    between atoms: C_2  and  C_3
REMARK    2  A    between atoms: C_2  and  C_25
REMARK    3  A    between atoms: C_5  and  C_6
REMARK    4  A    between atoms: N_8  and  C_9
REMARK    5  A    between atoms: N_17  and  C_18
REMARK    6  A    between atoms: C_31  and  O_32
REMARK                            x       y       z     vdW  Elec       q    Type
REMARK                         _______ _______ _______ _____ _____    ______ ____
ROOT
ATOM      1  C   UNL     1       0.166   9.798  21.278  0.00  0.00    +0.000 A 
ATOM      2  C   UNL     1       1.017   8.668  21.007  0.00  0.00    +0.000 A 
ATOM      3  C   UNL     1       1.374   8.352  19.752  0.00  0.00    +0.000 A 
ATOM      4  C   UNL     1       0.780   9.106  18.602  0.00  0.00    +0.000 A 
ATOM      5  O   UNL     1       1.128   8.835  17.452  0.00  0.00    +0.000 OA
ATOM      6  N   UNL     1      -0.173  10.096  18.920  0.00  0.00    +0.000 N 
ATOM      7  C   UNL     1      -0.396  10.447  20.246  0.00  0.00    +0.000 A 
ENDROOT
BRANCH   6   8
ATOM      8  C   UNL     1      -0.823  10.838  17.805  0.00  0.00    +0.000 C 
ATOM      9  C   UNL     1      -1.829   9.972  17.013  0.00  0.00    +0.000 C 
ATOM     10  C   UNL     1      -3.134   9.737  17.765  0.00  0.00    +0.000 C 
ATOM     11  C   UNL     1      -3.808  11.037  18.188  0.00  0.00    +0.000 C 
ATOM     12  C   UNL     1      -2.864  12.006  18.885  0.00  0.00    +0.000 C 
ATOM     13  C   UNL     1      -1.522  12.172  18.161  0.00  0.00    +0.000 C 
ENDBRANCH   6   8
BRANCH   3  14
ATOM     14  C   UNL     1       2.364   7.248  19.617  0.00  0.00    +0.000 C 
ATOM     15  O   UNL     1       3.393   7.385  18.956  0.00  0.00    +0.000 OA
ATOM     16  N   UNL     1       2.050   6.094  20.283  0.00  0.00    +0.000 N 
ATOM     17  H   UNL     1       1.093   6.006  20.624  0.00  0.00    +0.000 HD
BRANCH  16  18
ATOM     18  C   UNL     1       2.859   4.888  20.180  0.00  0.00    +0.000 C 
ATOM     19  C   UNL     1       2.380   3.836  21.184  0.00  0.00    +0.000 C 
ATOM     20  C   UNL     1       1.011   3.261  20.824  0.00  0.00    +0.000 C 
ATOM     21  C   UNL     1       0.961   2.756  19.383  0.00  0.00    +0.000 C 
ATOM     22  C   UNL     1       1.448   3.797  18.379  0.00  0.00    +0.000 C 
ATOM     23  C   UNL     1       2.829   4.337  18.750  0.00  0.00    +0.000 C 
ENDBRANCH  16  18
ENDBRANCH   3  14
BRANCH   1  25
ATOM     24  O   UNL     1       0.288   9.769  23.651  0.00  0.00    +0.000 OA
ATOM     25  C   UNL     1      -0.158  10.320  22.641  0.00  0.00    +0.000 C 
BRANCH  25  26
ATOM     26  C   UNL     1      -0.970  11.548  22.811  0.00  0.00    +0.000 A 
ATOM     27  C   UNL     1      -2.274  11.379  23.296  0.00  0.00    +0.000 A 
ATOM     28  C   UNL     1      -3.078  12.491  23.503  0.00  0.00    +0.000 A 
ATOM     29  F   UNL     1      -4.327  12.326  23.956  0.00  0.00    +0.000 F 
ATOM     30  C   UNL     1      -2.608  13.774  23.249  0.00  0.00    +0.000 A 
ATOM     31  C   UNL     1      -1.322  13.951  22.739  0.00  0.00    +0.000 A 
ATOM     32  C   UNL     1      -0.519  12.837  22.489  0.00  0.00    +0.000 A 
BRANCH  32  33
ATOM     33  O   UNL     1       0.697  13.021  21.895  0.00  0.00    +0.000 OA
ATOM     34  H   UNL     1       1.332  12.365  22.231  0.00  0.00    +0.000 HD
ENDBRANCH  32  33
ENDBRANCH  25  26
ENDBRANCH   1  25
TORSDOF 6
ENDMDL
MODEL 2
REMARK VINA RESULT:      -8.4      3.820      9.212
REMARK  Name = 
REMARK  6 active torsions:
REMARK  status: ('A' for Active; 'I' for Inactive)
REMARK    1  A    between atoms: C_2  and  C_3
REMARK    2  A    between atoms: C_2  and  C_25
REMARK    3  A    between atoms: C_5  and  C_6
REMARK    4  A    between atoms: N_8  and  C_9
REMARK    5  A    between atoms: N_17  and  C_18
REMARK    6  A    between atoms: C_31  and  O_32
REMARK                            x       y       z     vdW  Elec       q    Type
REMARK                         _______ _______ _______ _____ _____    ______ ____
ROOT
ATOM      1  C   UNL     1       3.267   6.604  18.149  0.00  0.00    +0.000 A 
ATOM      2  C   UNL     1       2.662   7.689  18.879  0.00  0.00    +0.000 A 
ATOM      3  C   UNL     1       1.869   7.456  19.937  0.00  0.00    +0.000 A 
ATOM      4  C   UNL     1       1.503   6.047  20.293  0.00  0.00    +0.000 A 
ATOM      5  O   UNL     1       0.799   5.832  21.279  0.00  0.00    +0.000 OA
ATOM      6  N   UNL     1       1.994   5.034  19.443  0.00  0.00    +0.000 N 
ATOM      7  C   UNL     1       2.908   5.345  18.444  0.00  0.00    +0.000 A 
ENDROOT
BRANCH   6   8
ATOM      8  C   UNL     1       1.616   3.623  19.732  0.00  0.00    +0.000 C 
ATOM      9  C   UNL     1       1.248   2.826  18.461  0.00  0.00    +0.000 C 
ATOM     10  C   UNL     1       2.466   2.446  17.624  0.00  0.00    +0.000 C 
ATOM     11  C   UNL     1       3.507   1.671  18.424  0.00  0.00    +0.000 C 
ATOM     12  C   UNL     1       3.856   2.326  19.752  0.00  0.00    +0.000 C 
ATOM     13  C   UNL     1       2.625   2.778  20.548  0.00  0.00    +0.000 C 
ENDBRANCH   6   8
BRANCH   3  14
ATOM     14  C   UNL     1       1.417   8.661  20.687  0.00  0.00    +0.000 C 
ATOM     15  O   UNL     1       1.602   8.771  21.898  0.00  0.00    +0.000 OA
ATOM     16  N   UNL     1       0.800   9.622  19.934  0.00  0.00    +0.000 N 
ATOM     17  H   UNL     1       0.510   9.354  18.993  0.00  0.00    +0.000 HD
BRANCH  16  18
ATOM     18  C   UNL     1       0.213  10.818  20.522  0.00  0.00    +0.000 C 
ATOM     19  C   UNL     1       1.173  12.004  20.393  0.00  0.00    +0.000 C 
ATOM     20  C   UNL     1       1.331  12.476  18.949  0.00  0.00    +0.000 C 
ATOM     21  C   UNL     1      -0.017  12.744  18.281  0.00  0.00    +0.000 C 
ATOM     22  C   UNL     1      -0.981  11.569  18.417  0.00  0.00    +0.000 C 
ATOM     23  C   UNL     1      -1.139  11.132  19.873  0.00  0.00    +0.000 C 
ENDBRANCH  16  18
ENDBRANCH   3  14
BRANCH   1  25
ATOM     24  O   UNL     1       4.121   7.596  16.165  0.00  0.00    +0.000 OA
ATOM     25  C   UNL     1       4.282   6.764  17.062  0.00  0.00    +0.000 C 
BRANCH  25  26
ATOM     26  C   UNL     1       5.533   5.971  17.070  0.00  0.00    +0.000 A 
ATOM     27  C   UNL     1       6.337   6.073  18.214  0.00  0.00    +0.000 A 
ATOM     28  C   UNL     1       7.509   5.335  18.296  0.00  0.00    +0.000 A 
ATOM     29  F   UNL     1       8.281   5.443  19.385  0.00  0.00    +0.000 F 
ATOM     30  C   UNL     1       7.896   4.485  17.267  0.00  0.00    +0.000 A 
ATOM     31  C   UNL     1       7.118   4.398  16.113  0.00  0.00    +0.000 A 
ATOM     32  C   UNL     1       5.958   5.165  16.003  0.00  0.00    +0.000 A 
BRANCH  32  33
ATOM     33  O   UNL     1       5.264   5.146  14.826  0.00  0.00    +0.000 OA
ATOM     34  H   UNL     1       5.882   5.044  14.080  0.00  0.00    +0.000 HD
ENDBRANCH  32  33
ENDBRANCH  25  26
ENDBRANCH   1  25
TORSDOF 6
ENDMDL
MODEL 3
REMARK VINA RESULT:      -8.2      4.052      9.216
REMARK  Name = 
REMARK  6 active torsions:
REMARK  status: ('A' for Active; 'I' for Inactive)
REMARK    1  A    between atoms: C_2  and  C_3
REMARK    2  A    between atoms: C_2  and  C_25
REMARK    3  A    between atoms: C_5  and  C_6
REMARK    4  A    between atoms: N_8  and  C_9
REMARK    5  A    between atoms: N_17  and  C_18
REMARK    6  A    between atoms: C_31  and  O_32
REMARK                            x       y       z     vdW  Elec       q    Type
REMARK                         _______ _______ _______ _____ _____    ______ ____
ROOT
ATOM      1  C   UNL     1       3.388   7.206  17.734  0.00  0.00    +0.000 A 
ATOM      2  C   UNL     1       2.526   8.355  17.839  0.00  0.00    +0.000 A 
ATOM      3  C   UNL     1       1.728   8.530  18.905  0.00  0.00    +0.000 A 
ATOM      4  C   UNL     1       1.637   7.455  19.945  0.00  0.00    +0.000 A 
ATOM      5  O   UNL     1       0.927   7.626  20.936  0.00  0.00    +0.000 OA
ATOM      6  N   UNL     1       2.381   6.280  19.706  0.00  0.00    +0.000 N 
ATOM      7  C   UNL     1       3.276   6.227  18.645  0.00  0.00    +0.000 A 
ENDROOT
BRANCH   6   8
ATOM      8  C   UNL     1       2.282   5.168  20.691  0.00  0.00    +0.000 C 
ATOM      9  C   UNL     1       0.971   4.360  20.555  0.00  0.00    +0.000 C 
ATOM     10  C   UNL     1       0.964   3.436  19.342  0.00  0.00    +0.000 C 
ATOM     11  C   UNL     1       2.152   2.481  19.327  0.00  0.00    +0.000 C 
ATOM     12  C   UNL     1       3.486   3.174  19.562  0.00  0.00    +0.000 C 
ATOM     13  C   UNL     1       3.458   4.162  20.735  0.00  0.00    +0.000 C 
ENDBRANCH   6   8
BRANCH   3  14
ATOM     14  C   UNL     1       0.990   9.822  18.959  0.00  0.00    +0.000 C 
ATOM     15  O   UNL     1      -0.229   9.859  19.117  0.00  0.00    +0.000 OA
ATOM     16  N   UNL     1       1.763  10.944  18.831  0.00  0.00    +0.000 N 
ATOM     17  H   UNL     1       2.719  10.809  18.500  0.00  0.00    +0.000 HD
BRANCH  16  18
ATOM     18  C   UNL     1       1.193  12.282  18.766  0.00  0.00    +0.000 C 
ATOM     19  C   UNL     1       1.058  12.875  20.171  0.00  0.00    +0.000 C 
ATOM     20  C   UNL     1       2.410  13.201  20.803  0.00  0.00    +0.000 C 
ATOM     21  C   UNL     1       3.279  14.062  19.888  0.00  0.00    +0.000 C 
ATOM     22  C   UNL     1       3.407  13.482  18.483  0.00  0.00    +0.000 C 
ATOM     23  C   UNL     1       2.040  13.187  17.866  0.00  0.00    +0.000 C 
ENDBRANCH  16  18
ENDBRANCH   3  14
BRANCH   1  25
ATOM     24  O   UNL     1       4.337   7.593  15.590  0.00  0.00    +0.000 OA
ATOM     25  C   UNL     1       4.420   7.002  16.670  0.00  0.00    +0.000 C 
BRANCH  25  26
ATOM     26  C   UNL     1       5.596   6.135  16.910  0.00  0.00    +0.000 A 
ATOM     27  C   UNL     1       6.409   6.463  18.004  0.00  0.00    +0.000 A 
ATOM     28  C   UNL     1       7.512   5.675  18.299  0.00  0.00    +0.000 A 
ATOM     29  F   UNL     1       8.293   5.997  19.339  0.00  0.00    +0.000 F 
ATOM     30  C   UNL     1       7.820   4.556  17.535  0.00  0.00    +0.000 A 
ATOM     31  C   UNL     1       7.034   4.237  16.428  0.00  0.00    +0.000 A 
ATOM     32  C   UNL     1       5.946   5.045  16.098  0.00  0.00    +0.000 A 
BRANCH  32  33
ATOM     33  O   UNL     1       5.250   4.778  14.953  0.00  0.00    +0.000 OA
ATOM     34  H   UNL     1       5.856   4.777  14.191  0.00  0.00    +0.000 HD
ENDBRANCH  32  33
ENDBRANCH  25  26
ENDBRANCH   1  25
TORSDOF 6
ENDMDL
MODEL 4
REMARK VINA RESULT:      -8.2      4.220      9.512
REMARK  Name = 
REMARK  6 active torsions:
REMARK  status: ('A' for Active; 'I' for Inactive)
REMARK    1  A    between atoms: C_2  and  C_3
REMARK    2  A    between atoms: C_2  and  C_25
REMARK    3  A    between atoms: C_5  and  C_6
REMARK    4  A    between atoms: N_8  and  C_9
REMARK    5  A    between atoms: N_17  and  C_18
REMARK    6  A    between atoms: C_31  and  O_32
REMARK                            x       y       z     vdW  Elec       q    Type
REMARK                         _______ _______ _______ _____ _____    ______ ____
ROOT
ATOM      1  C   UNL     1       4.558   6.038  18.306  0.00  0.00    +0.000 A 
ATOM      2  C   UNL     1       3.865   7.250  17.949  0.00  0.00    +0.000 A 
ATOM      3  C   UNL     1       2.759   7.636  18.606  0.00  0.00    +0.000 A 
ATOM      4  C   UNL     1       2.161   6.735  19.643  0.00  0.00    +0.000 A 
ATOM      5  O   UNL     1       1.163   7.100  20.265  0.00  0.00    +0.000 OA
ATOM      6  N   UNL     1       2.792   5.487  19.835  0.00  0.00    +0.000 N 
ATOM      7  C   UNL     1       4.000   5.214  19.206  0.00  0.00    +0.000 A 
ENDROOT
BRANCH   6   8
ATOM      8  C   UNL     1       2.203   4.541  20.822  0.00  0.00    +0.000 C 
ATOM      9  C   UNL     1       0.792   4.055  20.421  0.00  0.00    +0.000 C 
ATOM     10  C   UNL     1       0.815   3.033  19.289  0.00  0.00    +0.000 C 
ATOM     11  C   UNL     1       1.696   1.829  19.604  0.00  0.00    +0.000 C 
ATOM     12  C   UNL     1       3.078   2.211  20.113  0.00  0.00    +0.000 C 
ATOM     13  C   UNL     1       3.047   3.298  21.195  0.00  0.00    +0.000 C 
ENDBRANCH   6   8
BRANCH   3  14
ATOM     14  C   UNL     1       2.216   8.971  18.233  0.00  0.00    +0.000 C 
ATOM     15  O   UNL     1       2.301   9.402  17.084  0.00  0.00    +0.000 OA
ATOM     16  N   UNL     1       1.616   9.664  19.250  0.00  0.00    +0.000 N 
ATOM     17  H   UNL     1       1.778   9.323  20.197  0.00  0.00    +0.000 HD
BRANCH  16  18
ATOM     18  C   UNL     1       1.119  11.022  19.082  0.00  0.00    +0.000 C 
ATOM     19  C   UNL     1      -0.322  11.004  18.564  0.00  0.00    +0.000 C 
ATOM     20  C   UNL     1      -1.314  10.492  19.607  0.00  0.00    +0.000 C 
ATOM     21  C   UNL     1      -1.183  11.232  20.937  0.00  0.00    +0.000 C 
ATOM     22  C   UNL     1       0.253  11.263  21.452  0.00  0.00    +0.000 C 
ATOM     23  C   UNL     1       1.221  11.801  20.398  0.00  0.00    +0.000 C 
ENDBRANCH  16  18
ENDBRANCH   3  14
BRANCH   1  25
ATOM     24  O   UNL     1       6.900   5.657  18.427  0.00  0.00    +0.000 OA
ATOM     25  C   UNL     1       5.875   5.607  17.743  0.00  0.00    +0.000 C 
BRANCH  25  26
ATOM     26  C   UNL     1       5.969   5.051  16.373  0.00  0.00    +0.000 A 
ATOM     27  C   UNL     1       6.998   5.548  15.560  0.00  0.00    +0.000 A 
ATOM     28  C   UNL     1       7.157   5.050  14.275  0.00  0.00    +0.000 A 
ATOM     29  F   UNL     1       8.134   5.534  13.497  0.00  0.00    +0.000 F 
ATOM     30  C   UNL     1       6.321   4.056  13.782  0.00  0.00    +0.000 A 
ATOM     31  C   UNL     1       5.277   3.575  14.571  0.00  0.00    +0.000 A 
ATOM     32  C   UNL     1       5.083   4.097  15.851  0.00  0.00    +0.000 A 
BRANCH  32  33
ATOM     33  O   UNL     1       3.996   3.689  16.570  0.00  0.00    +0.000 OA
ATOM     34  H   UNL     1       3.190   3.778  16.031  0.00  0.00    +0.000 HD
ENDBRANCH  32  33
ENDBRANCH  25  26
ENDBRANCH   1  25
TORSDOF 6
ENDMDL
MODEL 5
REMARK VINA RESULT:      -8.1      3.988      9.335
REMARK  Name = 
REMARK  6 active torsions:
REMARK  status: ('A' for Active; 'I' for Inactive)
REMARK    1  A    between atoms: C_2  and  C_3
REMARK    2  A    between atoms: C_2  and  C_25
REMARK    3  A    between atoms: C_5  and  C_6
REMARK    4  A    between atoms: N_8  and  C_9
REMARK    5  A    between atoms: N_17  and  C_18
REMARK    6  A    between atoms: C_31  and  O_32
REMARK                            x       y       z     vdW  Elec       q    Type
REMARK                         _______ _______ _______ _____ _____    ______ ____
ROOT
ATOM      1  C   UNL     1       3.240   6.597  18.037  0.00  0.00    +0.000 A 
ATOM      2  C   UNL     1       2.645   7.646  18.825  0.00  0.00    +0.000 A 
ATOM      3  C   UNL     1       1.930   7.366  19.927  0.00  0.00    +0.000 A 
ATOM      4  C   UNL     1       1.638   5.939  20.277  0.00  0.00    +0.000 A 
ATOM      5  O   UNL     1       1.006   5.682  21.302  0.00  0.00    +0.000 OA
ATOM      6  N   UNL     1       2.109   4.959  19.378  0.00  0.00    +0.000 N 
ATOM      7  C   UNL     1       2.945   5.321  18.329  0.00  0.00    +0.000 A 
ENDROOT
BRANCH   6   8
ATOM      8  C   UNL     1       1.800   3.531  19.664  0.00  0.00    +0.000 C 
ATOM      9  C   UNL     1       1.395   2.740  18.400  0.00  0.00    +0.000 C 
ATOM     10  C   UNL     1       2.580   2.418  17.494  0.00  0.00    +0.000 C 
ATOM     11  C   UNL     1       3.690   1.673  18.225  0.00  0.00    +0.000 C 
ATOM     12  C   UNL     1       4.085   2.321  19.544  0.00  0.00    +0.000 C 
ATOM     13  C   UNL     1       2.882   2.714  20.411  0.00  0.00    +0.000 C 
ENDBRANCH   6   8
BRANCH   3  14
ATOM     14  C   UNL     1       1.485   8.541  20.728  0.00  0.00    +0.000 C 
ATOM     15  O   UNL     1       1.505   8.525  21.957  0.00  0.00    +0.000 OA
ATOM     16  N   UNL     1       1.071   9.623  19.999  0.00  0.00    +0.000 N 
ATOM     17  H   UNL     1       0.895   9.470  19.006  0.00  0.00    +0.000 HD
BRANCH  16  18
ATOM     18  C   UNL     1       0.515  10.816  20.621  0.00  0.00    +0.000 C 
ATOM     19  C   UNL     1       1.264  12.065  20.146  0.00  0.00    +0.000 C 
ATOM     20  C   UNL     1       0.993  12.388  18.678  0.00  0.00    +0.000 C 
ATOM     21  C   UNL     1      -0.502  12.454  18.371  0.00  0.00    +0.000 C 
ATOM     22  C   UNL     1      -1.255  11.217  18.852  0.00  0.00    +0.000 C 
ATOM     23  C   UNL     1      -0.985  10.930  20.329  0.00  0.00    +0.000 C 
ENDBRANCH  16  18
ENDBRANCH   3  14
BRANCH   1  25
ATOM     24  O   UNL     1       4.120   7.842  16.214  0.00  0.00    +0.000 OA
ATOM     25  C   UNL     1       4.176   6.812  16.891  0.00  0.00    +0.000 C 
BRANCH  25  26
ATOM     26  C   UNL     1       5.234   5.823  16.579  0.00  0.00    +0.000 A 
ATOM     27  C   UNL     1       5.117   5.137  15.362  0.00  0.00    +0.000 A 
ATOM     28  C   UNL     1       6.089   4.216  14.999  0.00  0.00    +0.000 A 
ATOM     29  F   UNL     1       5.969   3.554  13.841  0.00  0.00    +0.000 F 
ATOM     30  C   UNL     1       7.186   3.970  15.815  0.00  0.00    +0.000 A 
ATOM     31  C   UNL     1       7.298   4.626  17.040  0.00  0.00    +0.000 A 
ATOM     32  C   UNL     1       6.306   5.525  17.434  0.00  0.00    +0.000 A 
BRANCH  32  33
ATOM     33  O   UNL     1       6.378   6.080  18.681  0.00  0.00    +0.000 OA
ATOM     34  H   UNL     1       6.783   5.449  19.300  0.00  0.00    +0.000 HD
ENDBRANCH  32  33
ENDBRANCH  25  26
ENDBRANCH   1  25
TORSDOF 6
ENDMDL
MODEL 6
REMARK VINA RESULT:      -8.1      1.259      1.601
REMARK  Name = 
REMARK  6 active torsions:
REMARK  status: ('A' for Active; 'I' for Inactive)
REMARK    1  A    between atoms: C_2  and  C_3
REMARK    2  A    between atoms: C_2  and  C_25
REMARK    3  A    between atoms: C_5  and  C_6
REMARK    4  A    between atoms: N_8  and  C_9
REMARK    5  A    between atoms: N_17  and  C_18
REMARK    6  A    between atoms: C_31  and  O_32
REMARK                            x       y       z     vdW  Elec       q    Type
REMARK                         _______ _______ _______ _____ _____    ______ ____
ROOT
ATOM      1  C   UNL     1       0.003  10.030  21.190  0.00  0.00    +0.000 A 
ATOM      2  C   UNL     1       0.886   8.915  20.964  0.00  0.00    +0.000 A 
ATOM      3  C   UNL     1       1.235   8.546  19.720  0.00  0.00    +0.000 A 
ATOM      4  C   UNL     1       0.602   9.222  18.543  0.00  0.00    +0.000 A 
ATOM      5  O   UNL     1       0.942   8.904  17.403  0.00  0.00    +0.000 OA
ATOM      6  N   UNL     1      -0.377  10.197  18.826  0.00  0.00    +0.000 N 
ATOM      7  C   UNL     1      -0.593  10.608  20.135  0.00  0.00    +0.000 A 
ENDROOT
BRANCH   6   8
ATOM      8  C   UNL     1      -1.066  10.860  17.684  0.00  0.00    +0.000 C 
ATOM      9  C   UNL     1      -1.989   9.901  16.900  0.00  0.00    +0.000 C 
ATOM     10  C   UNL     1      -3.284   9.583  17.640  0.00  0.00    +0.000 C 
ATOM     11  C   UNL     1      -4.063  10.836  18.023  0.00  0.00    +0.000 C 
ATOM     12  C   UNL     1      -3.208  11.891  18.709  0.00  0.00    +0.000 C 
ATOM     13  C   UNL     1      -1.871  12.144  17.999  0.00  0.00    +0.000 C 
ENDBRANCH   6   8
BRANCH   3  14
ATOM     14  C   UNL     1       2.258   7.468  19.626  0.00  0.00    +0.000 C 
ATOM     15  O   UNL     1       3.291   7.618  18.976  0.00  0.00    +0.000 OA
ATOM     16  N   UNL     1       1.968   6.323  20.317  0.00  0.00    +0.000 N 
ATOM     17  H   UNL     1       1.009   6.216  20.649  0.00  0.00    +0.000 HD
BRANCH  16  18
ATOM     18  C   UNL     1       2.811   5.138  20.255  0.00  0.00    +0.000 C 
ATOM     19  C   UNL     1       2.268   4.045  21.180  0.00  0.00    +0.000 C 
ATOM     20  C   UNL     1       0.952   3.453  20.678  0.00  0.00    +0.000 C 
ATOM     21  C   UNL     1       1.048   2.991  19.225  0.00  0.00    +0.000 C 
ATOM     22  C   UNL     1       1.600   4.072  18.301  0.00  0.00    +0.000 C 
ATOM     23  C   UNL     1       2.927   4.631  18.814  0.00  0.00    +0.000 C 
ENDBRANCH  16  18
ENDBRANCH   3  14
BRANCH   1  25
ATOM     24  O   UNL     1      -0.045   9.999  23.565  0.00  0.00    +0.000 OA
ATOM     25  C   UNL     1      -0.319  10.611  22.530  0.00  0.00    +0.000 C 
BRANCH  25  26
ATOM     26  C   UNL     1      -0.917  11.962  22.648  0.00  0.00    +0.000 A 
ATOM     27  C   UNL     1      -0.133  13.039  22.209  0.00  0.00    +0.000 A 
ATOM     28  C   UNL     1      -0.645  14.327  22.267  0.00  0.00    +0.000 A 
ATOM     29  F   UNL     1       0.109  15.355  21.857  0.00  0.00    +0.000 F 
ATOM     30  C   UNL     1      -1.928  14.569  22.743  0.00  0.00    +0.000 A 
ATOM     31  C   UNL     1      -2.705  13.508  23.208  0.00  0.00    +0.000 A 
ATOM     32  C   UNL     1      -2.185  12.213  23.191  0.00  0.00    +0.000 A 
BRANCH  32  33
ATOM     33  O   UNL     1      -2.918  11.202  23.745  0.00  0.00    +0.000 OA
ATOM     34  H   UNL     1      -2.485  10.886  24.557  0.00  0.00    +0.000 HD
ENDBRANCH  32  33
ENDBRANCH  25  26
ENDBRANCH   1  25
TORSDOF 6
ENDMDL
MODEL 7
REMARK VINA RESULT:      -7.9      3.725      9.007
REMARK  Name = 
REMARK  6 active torsions:
REMARK  status: ('A' for Active; 'I' for Inactive)
REMARK    1  A    between atoms: C_2  and  C_3
REMARK    2  A    between atoms: C_2  and  C_25
REMARK    3  A    between atoms: C_5  and  C_6
REMARK    4  A    between atoms: N_8  and  C_9
REMARK    5  A    between atoms: N_17  and  C_18
REMARK    6  A    between atoms: C_31  and  O_32
REMARK                            x       y       z     vdW  Elec       q    Type
REMARK                         _______ _______ _______ _____ _____    ______ ____
ROOT
ATOM      1  C   UNL     1       3.388   7.162  17.737  0.00  0.00    +0.000 A 
ATOM      2  C   UNL     1       2.540   8.319  17.871  0.00  0.00    +0.000 A 
ATOM      3  C   UNL     1       1.740   8.474  18.938  0.00  0.00    +0.000 A 
ATOM      4  C   UNL     1       1.631   7.373  19.948  0.00  0.00    +0.000 A 
ATOM      5  O   UNL     1       0.920   7.526  20.941  0.00  0.00    +0.000 OA
ATOM      6  N   UNL     1       2.361   6.196  19.680  0.00  0.00    +0.000 N 
ATOM      7  C   UNL     1       3.260   6.160  18.620  0.00  0.00    +0.000 A 
ENDROOT
BRANCH   6   8
ATOM      8  C   UNL     1       2.244   5.058  20.633  0.00  0.00    +0.000 C 
ATOM      9  C   UNL     1       0.933   4.259  20.458  0.00  0.00    +0.000 C 
ATOM     10  C   UNL     1       0.941   3.367  19.220  0.00  0.00    +0.000 C 
ATOM     11  C   UNL     1       2.126   2.408  19.198  0.00  0.00    +0.000 C 
ATOM     12  C   UNL     1       3.459   3.090  19.470  0.00  0.00    +0.000 C 
ATOM     13  C   UNL     1       3.416   4.047  20.668  0.00  0.00    +0.000 C 
ENDBRANCH   6   8
BRANCH   3  14
ATOM     14  C   UNL     1       1.018   9.774  19.025  0.00  0.00    +0.000 C 
ATOM     15  O   UNL     1       1.327  10.626  19.855  0.00  0.00    +0.000 OA
ATOM     16  N   UNL     1       0.009   9.945  18.115  0.00  0.00    +0.000 N 
ATOM     17  H   UNL     1      -0.304   9.113  17.614  0.00  0.00    +0.000 HD
BRANCH  16  18
ATOM     18  C   UNL     1      -0.859  11.113  18.123  0.00  0.00    +0.000 C 
ATOM     19  C   UNL     1      -1.437  11.359  16.726  0.00  0.00    +0.000 C 
ATOM     20  C   UNL     1      -2.447  10.289  16.314  0.00  0.00    +0.000 C 
ATOM     21  C   UNL     1      -3.535  10.089  17.367  0.00  0.00    +0.000 C 
ATOM     22  C   UNL     1      -2.963   9.856  18.763  0.00  0.00    +0.000 C 
ATOM     23  C   UNL     1      -1.975  10.952  19.160  0.00  0.00    +0.000 C 
ENDBRANCH  16  18
ENDBRANCH   3  14
BRANCH   1  25
ATOM     24  O   UNL     1       4.332   7.571  15.595  0.00  0.00    +0.000 OA
ATOM     25  C   UNL     1       4.420   6.974  16.671  0.00  0.00    +0.000 C 
BRANCH  25  26
ATOM     26  C   UNL     1       5.605   6.116  16.905  0.00  0.00    +0.000 A 
ATOM     27  C   UNL     1       6.405   6.434  18.012  0.00  0.00    +0.000 A 
ATOM     28  C   UNL     1       7.515   5.654  18.302  0.00  0.00    +0.000 A 
ATOM     29  F   UNL     1       8.284   5.967  19.353  0.00  0.00    +0.000 F 
ATOM     30  C   UNL     1       7.842   4.552  17.521  0.00  0.00    +0.000 A 
ATOM     31  C   UNL     1       7.069   4.244  16.402  0.00  0.00    +0.000 A 
ATOM     32  C   UNL     1       5.974   5.045  16.077  0.00  0.00    +0.000 A 
BRANCH  32  33
ATOM     33  O   UNL     1       5.290   4.791  14.922  0.00  0.00    +0.000 OA
ATOM     34  H   UNL     1       4.586   5.452  14.803  0.00  0.00    +0.000 HD
ENDBRANCH  32  33
ENDBRANCH  25  26
ENDBRANCH   1  25
TORSDOF 6
ENDMDL
MODEL 8
REMARK VINA RESULT:      -7.9      1.337      1.858
REMARK  Name = 
REMARK  6 active torsions:
REMARK  status: ('A' for Active; 'I' for Inactive)
REMARK    1  A    between atoms: C_2  and  C_3
REMARK    2  A    between atoms: C_2  and  C_25
REMARK    3  A    between atoms: C_5  and  C_6
REMARK    4  A    between atoms: N_8  and  C_9
REMARK    5  A    between atoms: N_17  and  C_18
REMARK    6  A    between atoms: C_31  and  O_32
REMARK                            x       y       z     vdW  Elec       q    Type
REMARK                         _______ _______ _______ _____ _____    ______ ____
ROOT
ATOM      1  C   UNL     1       0.349   9.488  21.536  0.00  0.00    +0.000 A 
ATOM      2  C   UNL     1       1.019   8.217  21.427  0.00  0.00    +0.000 A 
ATOM      3  C   UNL     1       1.448   7.759  20.240  0.00  0.00    +0.000 A 
ATOM      4  C   UNL     1       1.119   8.517  18.990  0.00  0.00    +0.000 A 
ATOM      5  O   UNL     1       1.536   8.112  17.905  0.00  0.00    +0.000 OA
ATOM      6  N   UNL     1       0.320   9.670  19.143  0.00  0.00    +0.000 N 
ATOM      7  C   UNL     1       0.020  10.146  20.414  0.00  0.00    +0.000 A 
ENDROOT
BRANCH   6   8
ATOM      8  C   UNL     1      -0.071  10.427  17.922  0.00  0.00    +0.000 C 
ATOM      9  C   UNL     1      -1.281   9.804  17.191  0.00  0.00    +0.000 C 
ATOM     10  C   UNL     1      -2.604  10.058  17.906  0.00  0.00    +0.000 C 
ATOM     11  C   UNL     1      -2.865  11.540  18.147  0.00  0.00    +0.000 C 
ATOM     12  C   UNL     1      -1.682  12.267  18.770  0.00  0.00    +0.000 C 
ATOM     13  C   UNL     1      -0.345  11.941  18.092  0.00  0.00    +0.000 C 
ENDBRANCH   6   8
BRANCH   3  14
ATOM     14  C   UNL     1       2.245   6.501  20.279  0.00  0.00    +0.000 C 
ATOM     15  O   UNL     1       1.920   5.558  20.998  0.00  0.00    +0.000 OA
ATOM     16  N   UNL     1       3.339   6.475  19.458  0.00  0.00    +0.000 N 
ATOM     17  H   UNL     1       3.641   7.366  19.064  0.00  0.00    +0.000 HD
BRANCH  16  18
ATOM     18  C   UNL     1       4.279   5.363  19.444  0.00  0.00    +0.000 C 
ATOM     19  C   UNL     1       3.650   4.140  18.771  0.00  0.00    +0.000 C 
ATOM     20  C   UNL     1       3.456   4.333  17.268  0.00  0.00    +0.000 C 
ATOM     21  C   UNL     1       4.741   4.782  16.576  0.00  0.00    +0.000 C 
ATOM     22  C   UNL     1       5.378   5.994  17.250  0.00  0.00    +0.000 C 
ATOM     23  C   UNL     1       5.583   5.765  18.748  0.00  0.00    +0.000 C 
ENDBRANCH  16  18
ENDBRANCH   3  14
BRANCH   1  25
ATOM     24  O   UNL     1       0.388   9.716  23.901  0.00  0.00    +0.000 OA
ATOM     25  C   UNL     1      -0.025  10.152  22.824  0.00  0.00    +0.000 C 
BRANCH  25  26
ATOM     26  C   UNL     1      -0.848  11.383  22.831  0.00  0.00    +0.000 A 
ATOM     27  C   UNL     1      -2.162  11.260  23.304  0.00  0.00    +0.000 A 
ATOM     28  C   UNL     1      -2.977  12.381  23.362  0.00  0.00    +0.000 A 
ATOM     29  F   UNL     1      -4.236  12.259  23.803  0.00  0.00    +0.000 F 
ATOM     30  C   UNL     1      -2.509  13.630  22.972  0.00  0.00    +0.000 A 
ATOM     31  C   UNL     1      -1.213  13.759  22.475  0.00  0.00    +0.000 A 
ATOM     32  C   UNL     1      -0.397  12.631  22.374  0.00  0.00    +0.000 A 
BRANCH  32  33
ATOM     33  O   UNL     1       0.831  12.756  21.789  0.00  0.00    +0.000 OA
ATOM     34  H   UNL     1       0.965  12.038  21.146  0.00  0.00    +0.000 HD
ENDBRANCH  32  33
ENDBRANCH  25  26
ENDBRANCH   1  25
TORSDOF 6
ENDMDL
MODEL 9
REMARK VINA RESULT:      -7.7      3.861      9.007
REMARK  Name = 
REMARK  6 active torsions:
REMARK  status: ('A' for Active; 'I' for Inactive)
REMARK    1  A    between atoms: C_2  and  C_3
REMARK    2  A    between atoms: C_2  and  C_25
REMARK    3  A    between atoms: C_5  and  C_6
REMARK    4  A    between atoms: N_8  and  C_9
REMARK    5  A    between atoms: N_17  and  C_18
REMARK    6  A    between atoms: C_31  and  O_32
REMARK                            x       y       z     vdW  Elec       q    Type
REMARK                         _______ _______ _______ _____ _____    ______ ____
ROOT
ATOM      1  C   UNL     1       3.669   6.930  17.669  0.00  0.00    +0.000 A 
ATOM      2  C   UNL     1       2.982   8.190  17.544  0.00  0.00    +0.000 A 
ATOM      3  C   UNL     1       2.094   8.591  18.468  0.00  0.00    +0.000 A 
ATOM      4  C   UNL     1       1.714   7.664  19.582  0.00  0.00    +0.000 A 
ATOM      5  O   UNL     1       0.921   8.042  20.444  0.00  0.00    +0.000 OA
ATOM      6  N   UNL     1       2.298   6.380  19.561  0.00  0.00    +0.000 N 
ATOM      7  C   UNL     1       3.300   6.085  18.644  0.00  0.00    +0.000 A 
ENDROOT
BRANCH   6   8
ATOM      8  C   UNL     1       1.912   5.410  20.623  0.00  0.00    +0.000 C 
ATOM      9  C   UNL     1       0.656   4.588  20.258  0.00  0.00    +0.000 C 
ATOM     10  C   UNL     1       0.933   3.508  19.217  0.00  0.00    +0.000 C 
ATOM     11  C   UNL     1       2.053   2.563  19.637  0.00  0.00    +0.000 C 
ATOM     12  C   UNL     1       3.303   3.286  20.118  0.00  0.00    +0.000 C 
ATOM     13  C   UNL     1       3.004   4.423  21.104  0.00  0.00    +0.000 C 
ENDBRANCH   6   8
BRANCH   3  14
ATOM     14  C   UNL     1       1.556   9.970  18.296  0.00  0.00    +0.000 C 
ATOM     15  O   UNL     1       2.157  10.816  17.637  0.00  0.00    +0.000 OA
ATOM     16  N   UNL     1       0.356  10.211  18.908  0.00  0.00    +0.000 N 
ATOM     17  H   UNL     1       0.043   9.523  19.594  0.00  0.00    +0.000 HD
BRANCH  16  18
ATOM     18  C   UNL     1      -0.263  11.528  18.922  0.00  0.00    +0.000 C 
ATOM     19  C   UNL     1      -1.529  11.516  19.783  0.00  0.00    +0.000 C 
ATOM     20  C   UNL     1      -1.223  11.358  21.272  0.00  0.00    +0.000 C 
ATOM     21  C   UNL     1      -0.198  12.380  21.759  0.00  0.00    +0.000 C 
ATOM     22  C   UNL     1       1.061  12.405  20.897  0.00  0.00    +0.000 C 
ATOM     23  C   UNL     1       0.728  12.587  19.416  0.00  0.00    +0.000 C 
ENDBRANCH  16  18
ENDBRANCH   3  14
BRANCH   1  25
ATOM     24  O   UNL     1       4.668   6.507  15.555  0.00  0.00    +0.000 OA
ATOM     25  C   UNL     1       4.782   6.469  16.782  0.00  0.00    +0.000 C 
BRANCH  25  26
ATOM     26  C   UNL     1       6.070   6.013  17.356  0.00  0.00    +0.000 A 
ATOM     27  C   UNL     1       6.872   6.992  17.961  0.00  0.00    +0.000 A 
ATOM     28  C   UNL     1       8.078   6.627  18.540  0.00  0.00    +0.000 A 
ATOM     29  F   UNL     1       8.847   7.565  19.108  0.00  0.00    +0.000 F 
ATOM     30  C   UNL     1       8.501   5.303  18.544  0.00  0.00    +0.000 A 
ATOM     31  C   UNL     1       7.725   4.327  17.920  0.00  0.00    +0.000 A 
ATOM     32  C   UNL     1       6.529   4.689  17.299  0.00  0.00    +0.000 A 
BRANCH  32  33
ATOM     33  O   UNL     1       5.833   3.740  16.605  0.00  0.00    +0.000 OA
ATOM     34  H   UNL     1       5.962   3.869  15.649  0.00  0.00    +0.000 HD
ENDBRANCH  32  33
ENDBRANCH  25  26
ENDBRANCH   1  25
TORSDOF 6
ENDMDL
