MODEL 1
REMARK VINA RESULT:      -5.2      0.000      0.000
REMARK  Name = 
REMARK  0 active torsions:
REMARK  status: ('A' for Active; 'I' for Inactive)
REMARK                            x       y       z     vdW  Elec       q    Type
REMARK                         _______ _______ _______ _____ _____    ______ ____
ROOT
ATOM      1  O   UNL     1       3.703   1.663  18.706  0.00  0.00    +0.000 OA
ATOM      2  S   UNL     1       2.551   2.044  17.722  0.00  0.00    +0.000 S 
ATOM      3  C   UNL     1       0.982   2.085  18.646  0.00  0.00    +0.000 C 
ATOM      4  C   UNL     1       0.827   3.125  19.746  0.00  0.00    +0.000 C 
ATOM      5  S   UNL     1       2.078   2.987  21.049  0.00  0.00    +0.000 S 
ATOM      6  O   UNL     1       1.321   2.585  22.366  0.00  0.00    +0.000 OA
ATOM      7  C   UNL     1       2.525   4.748  21.215  0.00  0.00    +0.000 C 
ATOM      8  C   UNL     1       3.095   5.418  19.974  0.00  0.00    +0.000 C 
ATOM      9  S   UNL     1       4.529   4.541  19.298  0.00  0.00    +0.000 S 
ATOM     10  O   UNL     1       5.745   5.533  19.366  0.00  0.00    +0.000 OA
ATOM     11  C   UNL     1       4.034   4.435  17.546  0.00  0.00    +0.000 C 
ATOM     12  C   UNL     1       2.697   3.778  17.233  0.00  0.00    +0.000 C 
ENDROOT
TORSDOF 0
ENDMDL
MODEL 2
REMARK VINA RESULT:      -5.1      2.602      3.833
REMARK  Name = 
REMARK  0 active torsions:
REMARK  status: ('A' for Active; 'I' for Inactive)
REMARK                            x       y       z     vdW  Elec       q    Type
REMARK                         _______ _______ _______ _____ _____    ______ ____
ROOT
ATOM      1  O   UNL     1       1.077   3.880  17.592  0.00  0.00    +0.000 OA
ATOM      2  S   UNL     1       1.358   2.708  18.587  0.00  0.00    +0.000 S 
ATOM      3  C   UNL     1       2.885   1.859  18.072  0.00  0.00    +0.000 C 
ATOM      4  C   UNL     1       4.189   2.642  18.116  0.00  0.00    +0.000 C 
ATOM      5  S   UNL     1       4.170   4.131  17.084  0.00  0.00    +0.000 S 
ATOM      6  O   UNL     1       5.223   3.906  15.940  0.00  0.00    +0.000 OA
ATOM      7  C   UNL     1       4.912   5.313  18.260  0.00  0.00    +0.000 C 
ATOM      8  C   UNL     1       4.154   5.535  19.560  0.00  0.00    +0.000 C 
ATOM      9  S   UNL     1       2.430   6.022  19.294  0.00  0.00    +0.000 S 
ATOM     10  O   UNL     1       2.255   7.449  19.929  0.00  0.00    +0.000 OA
ATOM     11  C   UNL     1       1.595   4.845  20.409  0.00  0.00    +0.000 C 
ATOM     12  C   UNL     1       1.865   3.362  20.194  0.00  0.00    +0.000 C 
ENDROOT
TORSDOF 0
ENDMDL
MODEL 3
REMARK VINA RESULT:      -5.1      2.484      3.491
REMARK  Name = 
REMARK  0 active torsions:
REMARK  status: ('A' for Active; 'I' for Inactive)
REMARK                            x       y       z     vdW  Elec       q    Type
REMARK                         _______ _______ _______ _____ _____    ______ ____
ROOT
ATOM      1  O   UNL     1       2.208   6.148  17.996  0.00  0.00    +0.000 OA
ATOM      2  S   UNL     1       2.769   6.186  19.454  0.00  0.00    +0.000 S 
ATOM      3  C   UNL     1       1.846   4.985  20.466  0.00  0.00    +0.000 C 
ATOM      4  C   UNL     1       1.964   3.510  20.110  0.00  0.00    +0.000 C 
ATOM      5  S   UNL     1       1.432   3.131  18.421  0.00  0.00    +0.000 S 
ATOM      6  O   UNL     1       0.155   2.222  18.538  0.00  0.00    +0.000 OA
ATOM      7  C   UNL     1       2.808   2.045  17.915  0.00  0.00    +0.000 C 
ATOM      8  C   UNL     1       4.196   2.666  17.928  0.00  0.00    +0.000 C 
ATOM      9  S   UNL     1       4.295   4.184  16.945  0.00  0.00    +0.000 S 
ATOM     10  O   UNL     1       5.341   3.922  15.802  0.00  0.00    +0.000 OA
ATOM     11  C   UNL     1       5.102   5.288  18.152  0.00  0.00    +0.000 C 
ATOM     12  C   UNL     1       4.425   5.463  19.505  0.00  0.00    +0.000 C 
ENDROOT
TORSDOF 0
ENDMDL
MODEL 4
REMARK VINA RESULT:      -5.1      2.420      4.173
REMARK  Name = 
REMARK  0 active torsions:
REMARK  status: ('A' for Active; 'I' for Inactive)
REMARK                            x       y       z     vdW  Elec       q    Type
REMARK                         _______ _______ _______ _____ _____    ______ ____
ROOT
ATOM      1  O   UNL     1       2.465   4.942  20.598  0.00  0.00    +0.000 OA
ATOM      2  S   UNL     1       3.257   5.731  19.507  0.00  0.00    +0.000 S 
ATOM      3  C   UNL     1       4.966   5.102  19.456  0.00  0.00    +0.000 C 
ATOM      4  C   UNL     1       5.183   3.656  19.033  0.00  0.00    +0.000 C 
ATOM      5  S   UNL     1       4.327   2.460  20.090  0.00  0.00    +0.000 S 
ATOM      6  O   UNL     1       5.437   1.619  20.818  0.00  0.00    +0.000 OA
ATOM      7  C   UNL     1       3.614   1.385  18.800  0.00  0.00    +0.000 C 
ATOM      8  C   UNL     1       2.650   2.049  17.828  0.00  0.00    +0.000 C 
ATOM      9  S   UNL     1       1.285   2.898  18.662  0.00  0.00    +0.000 S 
ATOM     10  O   UNL     1      -0.043   2.202  18.192  0.00  0.00    +0.000 OA
ATOM     11  C   UNL     1       1.358   4.513  17.818  0.00  0.00    +0.000 C 
ATOM     12  C   UNL     1       2.680   5.267  17.858  0.00  0.00    +0.000 C 
ENDROOT
TORSDOF 0
ENDMDL
MODEL 5
REMARK VINA RESULT:      -5.0      2.292      3.136
REMARK  Name = 
REMARK  0 active torsions:
REMARK  status: ('A' for Active; 'I' for Inactive)
REMARK                            x       y       z     vdW  Elec       q    Type
REMARK                         _______ _______ _______ _____ _____    ______ ____
ROOT
ATOM      1  O   UNL     1       1.169   2.873  19.973  0.00  0.00    +0.000 OA
ATOM      2  S   UNL     1       1.135   2.700  18.420  0.00  0.00    +0.000 S 
ATOM      3  C   UNL     1       1.191   4.348  17.647  0.00  0.00    +0.000 C 
ATOM      4  C   UNL     1       2.441   5.191  17.851  0.00  0.00    +0.000 C 
ATOM      5  S   UNL     1       2.802   5.533  19.593  0.00  0.00    +0.000 S 
ATOM      6  O   UNL     1       2.641   7.083  19.796  0.00  0.00    +0.000 OA
ATOM      7  C   UNL     1       4.593   5.184  19.597  0.00  0.00    +0.000 C 
ATOM      8  C   UNL     1       5.004   3.770  19.217  0.00  0.00    +0.000 C 
ATOM      9  S   UNL     1       4.189   2.507  20.227  0.00  0.00    +0.000 S 
ATOM     10  O   UNL     1       5.322   1.730  20.991  0.00  0.00    +0.000 OA
ATOM     11  C   UNL     1       3.584   1.396  18.913  0.00  0.00    +0.000 C 
ATOM     12  C   UNL     1       2.696   2.002  17.835  0.00  0.00    +0.000 C 
ENDROOT
TORSDOF 0
ENDMDL
MODEL 6
REMARK VINA RESULT:      -4.7      2.616      3.267
REMARK  Name = 
REMARK  0 active torsions:
REMARK  status: ('A' for Active; 'I' for Inactive)
REMARK                            x       y       z     vdW  Elec       q    Type
REMARK                         _______ _______ _______ _____ _____    ______ ____
ROOT
ATOM      1  O   UNL     1       5.132   3.806  19.342  0.00  0.00    +0.000 OA
ATOM      2  S   UNL     1       4.265   3.024  18.304  0.00  0.00    +0.000 S 
ATOM      3  C   UNL     1       2.540   3.592  18.438  0.00  0.00    +0.000 C 
ATOM      4  C   UNL     1       2.235   5.041  18.088  0.00  0.00    +0.000 C 
ATOM      5  S   UNL     1       3.148   6.234  19.101  0.00  0.00    +0.000 S 
ATOM      6  O   UNL     1       2.086   7.009  19.961  0.00  0.00    +0.000 OA
ATOM      7  C   UNL     1       3.698   7.375  17.788  0.00  0.00    +0.000 C 
ATOM      8  C   UNL     1       4.586   6.778  16.706  0.00  0.00    +0.000 C 
ATOM      9  S   UNL     1       6.052   5.953  17.376  0.00  0.00    +0.000 S 
ATOM     10  O   UNL     1       7.304   6.712  16.807  0.00  0.00    +0.000 OA
ATOM     11  C   UNL     1       5.952   4.364  16.486  0.00  0.00    +0.000 C 
ATOM     12  C   UNL     1       4.665   3.562  16.625  0.00  0.00    +0.000 C 
ENDROOT
TORSDOF 0
ENDMDL
MODEL 7
REMARK VINA RESULT:      -4.7      2.051      4.271
REMARK  Name = 
REMARK  0 active torsions:
REMARK  status: ('A' for Active; 'I' for Inactive)
REMARK                            x       y       z     vdW  Elec       q    Type
REMARK                         _______ _______ _______ _____ _____    ______ ____
ROOT
ATOM      1  O   UNL     1       2.805   6.314  19.727  0.00  0.00    +0.000 OA
ATOM      2  S   UNL     1       2.299   5.972  18.289  0.00  0.00    +0.000 S 
ATOM      3  C   UNL     1       3.739   5.610  17.234  0.00  0.00    +0.000 C 
ATOM      4  C   UNL     1       4.588   4.395  17.575  0.00  0.00    +0.000 C 
ATOM      5  S   UNL     1       5.296   4.457  19.242  0.00  0.00    +0.000 S 
ATOM      6  O   UNL     1       6.855   4.555  19.072  0.00  0.00    +0.000 OA
ATOM      7  C   UNL     1       4.930   2.752  19.780  0.00  0.00    +0.000 C 
ATOM      8  C   UNL     1       3.461   2.359  19.820  0.00  0.00    +0.000 C 
ATOM      9  S   UNL     1       2.460   3.486  20.823  0.00  0.00    +0.000 S 
ATOM     10  O   UNL     1       1.852   2.636  21.997  0.00  0.00    +0.000 OA
ATOM     11  C   UNL     1       1.099   3.819  19.656  0.00  0.00    +0.000 C 
ATOM     12  C   UNL     1       1.468   4.366  18.285  0.00  0.00    +0.000 C 
ENDROOT
TORSDOF 0
ENDMDL
MODEL 8
REMARK VINA RESULT:      -4.7      2.266      3.982
REMARK  Name = 
REMARK  0 active torsions:
REMARK  status: ('A' for Active; 'I' for Inactive)
REMARK                            x       y       z     vdW  Elec       q    Type
REMARK                         _______ _______ _______ _____ _____    ______ ____
ROOT
ATOM      1  O   UNL     1       2.310   3.476  17.022  0.00  0.00    +0.000 OA
ATOM      2  S   UNL     1       3.862   3.402  17.183  0.00  0.00    +0.000 S 
ATOM      3  C   UNL     1       4.541   5.089  17.074  0.00  0.00    +0.000 C 
ATOM      4  C   UNL     1       4.149   6.089  18.153  0.00  0.00    +0.000 C 
ATOM      5  S   UNL     1       2.362   6.363  18.266  0.00  0.00    +0.000 S 
ATOM      6  O   UNL     1       2.103   7.856  17.852  0.00  0.00    +0.000 OA
ATOM      7  C   UNL     1       2.165   6.276  20.078  0.00  0.00    +0.000 C 
ATOM      8  C   UNL     1       2.563   4.964  20.737  0.00  0.00    +0.000 C 
ATOM      9  S   UNL     1       1.720   3.532  20.016  0.00  0.00    +0.000 S 
ATOM     10  O   UNL     1       0.868   2.878  21.163  0.00  0.00    +0.000 OA
ATOM     11  C   UNL     1       3.150   2.436  19.733  0.00  0.00    +0.000 C 
ATOM     12  C   UNL     1       4.293   2.978  18.887  0.00  0.00    +0.000 C 
ENDROOT
TORSDOF 0
ENDMDL
MODEL 9
REMARK VINA RESULT:      -4.7      2.195      3.287
REMARK  Name = 
REMARK  0 active torsions:
REMARK  status: ('A' for Active; 'I' for Inactive)
REMARK                            x       y       z     vdW  Elec       q    Type
REMARK                         _______ _______ _______ _____ _____    ______ ____
ROOT
ATOM      1  O   UNL     1       0.924   3.968  18.699  0.00  0.00    +0.000 OA
ATOM      2  S   UNL     1       0.937   4.112  20.255  0.00  0.00    +0.000 S 
ATOM      3  C   UNL     1       1.830   2.692  20.965  0.00  0.00    +0.000 C 
ATOM      4  C   UNL     1       3.309   2.542  20.641  0.00  0.00    +0.000 C 
ATOM      5  S   UNL     1       3.646   2.403  18.867  0.00  0.00    +0.000 S 
ATOM      6  O   UNL     1       4.222   0.961  18.623  0.00  0.00    +0.000 OA
ATOM      7  C   UNL     1       5.052   3.560  18.743  0.00  0.00    +0.000 C 
ATOM      8  C   UNL     1       4.773   5.002  19.139  0.00  0.00    +0.000 C 
ATOM      9  S   UNL     1       3.379   5.722  18.235  0.00  0.00    +0.000 S 
ATOM     10  O   UNL     1       3.943   6.939  17.417  0.00  0.00    +0.000 OA
ATOM     11  C   UNL     1       2.429   6.420  19.627  0.00  0.00    +0.000 C 
ATOM     12  C   UNL     1       2.024   5.470  20.746  0.00  0.00    +0.000 C 
ENDROOT
TORSDOF 0
ENDMDL
