MODEL 1
REMARK VINA RESULT:      -7.8      0.000      0.000
REMARK  Name = 
REMARK  7 active torsions:
REMARK  status: ('A' for Active; 'I' for Inactive)
REMARK    1  A    between atoms: C_1  and  C_2
REMARK    2  A    between atoms: C_5  and  N_6
REMARK    3  A    between atoms: C_7  and  S_8
REMARK    4  A    between atoms: N_9  and  N_10
REMARK    5  A    between atoms: C_11  and  C_13
REMARK    6  A    between atoms: C_16  and  N_17
REMARK    7  A    between atoms: C_23  and  N_24
REMARK                            x       y       z     vdW  Elec       q    Type
REMARK                         _______ _______ _______ _____ _____    ______ ____
ROOT
ATOM      1  N   UNL     1       1.232   9.127  19.464  0.00  0.00    +0.000 N 
ATOM      2  C   UNL     1       1.658   7.973  20.104  0.00  0.00    +0.000 C 
ATOM      3  O   UNL     1       1.332   7.618  21.230  0.00  0.00    +0.000 OA
ATOM      4  H   UNL     1       1.469   9.308  18.494  0.00  0.00    +0.000 HD
ENDROOT
BRANCH   2   5
ATOM      5  C   UNL     1       2.574   7.104  19.293  0.00  0.00    +0.000 A 
ATOM      6  C   UNL     1       3.133   7.611  18.122  0.00  0.00    +0.000 A 
ATOM      7  C   UNL     1       3.996   6.828  17.342  0.00  0.00    +0.000 A 
ATOM      8  C   UNL     1       4.353   5.492  17.657  0.00  0.00    +0.000 A 
ATOM      9  C   UNL     1       3.747   5.013  18.843  0.00  0.00    +0.000 A 
ATOM     10  C   UNL     1       2.877   5.784  19.646  0.00  0.00    +0.000 A 
BRANCH   8  11
ATOM     11  N   UNL     1       5.256   4.836  16.841  0.00  0.00    +0.000 N 
ATOM     12  C   UNL     1       6.723   4.848  16.977  0.00  0.00    +0.000 C 
ATOM     13  C   UNL     1       7.371   5.168  15.613  0.00  0.00    +0.000 C 
ATOM     14  O   UNL     1       6.937   4.259  14.587  0.00  0.00    +0.000 OA
ATOM     15  C   UNL     1       5.507   4.313  14.450  0.00  0.00    +0.000 C 
ATOM     16  C   UNL     1       4.815   3.914  15.764  0.00  0.00    +0.000 C 
ENDBRANCH   8  11
BRANCH   9  17
ATOM     17  N   UNL     1       3.956   3.645  19.318  0.00  0.00    +0.000 N 
ATOM     18  O   UNL     1       5.072   3.332  19.745  0.00  0.00    +0.000 OA
ATOM     19  O   UNL     1       2.986   2.876  19.210  0.00  0.00    +0.000 OA
ENDBRANCH   9  17
ENDBRANCH   2   5
BRANCH   1  22
ATOM     20  N   UNL     1      -0.249  12.361  20.157  0.00  0.00    +0.000 N 
ATOM     21  C   UNL     1       0.497  11.287  19.703  0.00  0.00    +0.000 C 
ATOM     22  N   UNL     1       0.384  10.033  20.056  0.00  0.00    +0.000 NA
ATOM     23  H   UNL     1       0.066  13.271  19.858  0.00  0.00    +0.000 HD
BRANCH  20  28
ATOM     24  C   UNL     1      -4.404  12.551  24.221  0.00  0.00    +0.000 C 
ATOM     25  C   UNL     1      -3.364  12.509  23.131  0.00  0.00    +0.000 A 
ATOM     26  C   UNL     1      -2.038  12.263  23.485  0.00  0.00    +0.000 A 
ATOM     27  C   UNL     1      -1.010  12.190  22.522  0.00  0.00    +0.000 A 
ATOM     28  C   UNL     1      -1.262  12.405  21.161  0.00  0.00    +0.000 A 
ATOM     29  C   UNL     1      -2.610  12.637  20.798  0.00  0.00    +0.000 A 
ATOM     30  C   UNL     1      -3.645  12.677  21.770  0.00  0.00    +0.000 A 
ATOM     31 CL   UNL     1      -5.267  12.919  21.223  0.00  0.00    +0.000 Cl
ENDBRANCH  20  28
BRANCH  21  32
ATOM     32  S   UNL     1       1.795  11.722  18.527  0.00  0.00    +0.000 S 
ATOM     33  H   UNL     1       2.825  12.026  19.325  0.00  0.00    +0.000 HD
ENDBRANCH  21  32
ENDBRANCH   1  22
TORSDOF 6
ENDMDL
MODEL 2
REMARK VINA RESULT:      -7.8      2.364      2.963
REMARK  Name = 
REMARK  7 active torsions:
REMARK  status: ('A' for Active; 'I' for Inactive)
REMARK    1  A    between atoms: C_1  and  C_2
REMARK    2  A    between atoms: C_5  and  N_6
REMARK    3  A    between atoms: C_7  and  S_8
REMARK    4  A    between atoms: N_9  and  N_10
REMARK    5  A    between atoms: C_11  and  C_13
REMARK    6  A    between atoms: C_16  and  N_17
REMARK    7  A    between atoms: C_23  and  N_24
REMARK                            x       y       z     vdW  Elec       q    Type
REMARK                         _______ _______ _______ _____ _____    ______ ____
ROOT
ATOM      1  N   UNL     1      -0.041   9.343  20.664  0.00  0.00    +0.000 N 
ATOM      2  C   UNL     1       1.111   8.826  21.235  0.00  0.00    +0.000 C 
ATOM      3  O   UNL     1       1.705   9.295  22.198  0.00  0.00    +0.000 OA
ATOM      4  H   UNL     1      -0.531   8.848  19.927  0.00  0.00    +0.000 HD
ENDROOT
BRANCH   2   5
ATOM      5  C   UNL     1       1.618   7.564  20.600  0.00  0.00    +0.000 A 
ATOM      6  C   UNL     1       2.316   7.642  19.396  0.00  0.00    +0.000 A 
ATOM      7  C   UNL     1       2.808   6.484  18.777  0.00  0.00    +0.000 A 
ATOM      8  C   UNL     1       2.631   5.175  19.294  0.00  0.00    +0.000 A 
ATOM      9  C   UNL     1       1.901   5.143  20.506  0.00  0.00    +0.000 A 
ATOM     10  C   UNL     1       1.400   6.297  21.150  0.00  0.00    +0.000 A 
BRANCH   8  11
ATOM     11  N   UNL     1       3.208   4.113  18.623  0.00  0.00    +0.000 N 
ATOM     12  C   UNL     1       2.776   3.560  17.328  0.00  0.00    +0.000 C 
ATOM     13  C   UNL     1       2.649   2.025  17.431  0.00  0.00    +0.000 C 
ATOM     14  O   UNL     1       3.869   1.417  17.890  0.00  0.00    +0.000 OA
ATOM     15  C   UNL     1       4.231   1.945  19.178  0.00  0.00    +0.000 C 
ATOM     16  C   UNL     1       4.455   3.464  19.104  0.00  0.00    +0.000 C 
ENDBRANCH   8  11
BRANCH   9  17
ATOM     17  N   UNL     1       1.578   3.886  21.180  0.00  0.00    +0.000 N 
ATOM     18  O   UNL     1       2.239   3.560  22.172  0.00  0.00    +0.000 OA
ATOM     19  O   UNL     1       0.676   3.205  20.663  0.00  0.00    +0.000 OA
ENDBRANCH   9  17
ENDBRANCH   2   5
BRANCH   1  22
ATOM     20  N   UNL     1      -1.729  12.545  20.465  0.00  0.00    +0.000 N 
ATOM     21  C   UNL     1      -1.085  11.340  20.234  0.00  0.00    +0.000 C 
ATOM     22  N   UNL     1      -0.647  10.489  21.124  0.00  0.00    +0.000 NA
ATOM     23  H   UNL     1      -1.883  13.121  19.654  0.00  0.00    +0.000 HD
BRANCH  20  28
ATOM     24  C   UNL     1      -2.913  15.198  25.503  0.00  0.00    +0.000 C 
ATOM     25  C   UNL     1      -2.639  14.472  24.211  0.00  0.00    +0.000 A 
ATOM     26  C   UNL     1      -1.695  15.005  23.335  0.00  0.00    +0.000 A 
ATOM     27  C   UNL     1      -1.370  14.375  22.115  0.00  0.00    +0.000 A 
ATOM     28  C   UNL     1      -2.012  13.202  21.700  0.00  0.00    +0.000 A 
ATOM     29  C   UNL     1      -2.958  12.649  22.596  0.00  0.00    +0.000 A 
ATOM     30  C   UNL     1      -3.257  13.272  23.837  0.00  0.00    +0.000 A 
ATOM     31 CL   UNL     1      -4.392  12.495  24.885  0.00  0.00    +0.000 Cl
ENDBRANCH  20  28
BRANCH  21  32
ATOM     32  S   UNL     1      -0.795  10.970  18.492  0.00  0.00    +0.000 S 
ATOM     33  H   UNL     1       0.541  10.962  18.411  0.00  0.00    +0.000 HD
ENDBRANCH  21  32
ENDBRANCH   1  22
TORSDOF 6
ENDMDL
MODEL 3
REMARK VINA RESULT:      -7.6      0.773      1.183
REMARK  Name = 
REMARK  7 active torsions:
REMARK  status: ('A' for Active; 'I' for Inactive)
REMARK    1  A    between atoms: C_1  and  C_2
REMARK    2  A    between atoms: C_5  and  N_6
REMARK    3  A    between atoms: C_7  and  S_8
REMARK    4  A    between atoms: N_9  and  N_10
REMARK    5  A    between atoms: C_11  and  C_13
REMARK    6  A    between atoms: C_16  and  N_17
REMARK    7  A    between atoms: C_23  and  N_24
REMARK                            x       y       z     vdW  Elec       q    Type
REMARK                         _______ _______ _______ _____ _____    ______ ____
ROOT
ATOM      1  N   UNL     1       0.959   9.648  19.610  0.00  0.00    +0.000 N 
ATOM      2  C   UNL     1       1.315   8.407  20.114  0.00  0.00    +0.000 C 
ATOM      3  O   UNL     1       0.873   7.896  21.136  0.00  0.00    +0.000 OA
ATOM      4  H   UNL     1       1.295   9.965  18.707  0.00  0.00    +0.000 HD
ENDROOT
BRANCH   2   5
ATOM      5  C   UNL     1       2.310   7.650  19.284  0.00  0.00    +0.000 A 
ATOM      6  C   UNL     1       2.783   8.220  18.104  0.00  0.00    +0.000 A 
ATOM      7  C   UNL     1       3.717   7.543  17.305  0.00  0.00    +0.000 A 
ATOM      8  C   UNL     1       4.233   6.258  17.609  0.00  0.00    +0.000 A 
ATOM      9  C   UNL     1       3.710   5.711  18.805  0.00  0.00    +0.000 A 
ATOM     10  C   UNL     1       2.772   6.375  19.627  0.00  0.00    +0.000 A 
BRANCH   8  11
ATOM     11  N   UNL     1       5.190   5.713  16.775  0.00  0.00    +0.000 N 
ATOM     12  C   UNL     1       4.942   4.850  15.606  0.00  0.00    +0.000 C 
ATOM     13  C   UNL     1       5.846   3.601  15.677  0.00  0.00    +0.000 C 
ATOM     14  O   UNL     1       7.235   3.952  15.795  0.00  0.00    +0.000 OA
ATOM     15  C   UNL     1       7.446   4.751  16.972  0.00  0.00    +0.000 C 
ATOM     16  C   UNL     1       6.631   6.052  16.905  0.00  0.00    +0.000 C 
ENDBRANCH   8  11
BRANCH   9  17
ATOM     17  N   UNL     1       4.086   4.377  19.273  0.00  0.00    +0.000 N 
ATOM     18  O   UNL     1       5.271   4.159  19.550  0.00  0.00    +0.000 OA
ATOM     19  O   UNL     1       3.173   3.534  19.311  0.00  0.00    +0.000 OA
ENDBRANCH   9  17
ENDBRANCH   2   5
BRANCH   1  22
ATOM     20  N   UNL     1      -0.717  12.750  20.448  0.00  0.00    +0.000 N 
ATOM     21  C   UNL     1       0.095  11.746  19.949  0.00  0.00    +0.000 C 
ATOM     22  N   UNL     1       0.054  10.471  20.237  0.00  0.00    +0.000 NA
ATOM     23  H   UNL     1      -0.454  13.691  20.199  0.00  0.00    +0.000 HD
BRANCH  20  28
ATOM     24  C   UNL     1      -4.907  12.486  24.472  0.00  0.00    +0.000 C 
ATOM     25  C   UNL     1      -3.858  12.558  23.392  0.00  0.00    +0.000 A 
ATOM     26  C   UNL     1      -2.518  12.453  23.759  0.00  0.00    +0.000 A 
ATOM     27  C   UNL     1      -1.478  12.493  22.805  0.00  0.00    +0.000 A 
ATOM     28  C   UNL     1      -1.739  12.684  21.443  0.00  0.00    +0.000 A 
ATOM     29  C   UNL     1      -3.100  12.771  21.067  0.00  0.00    +0.000 A 
ATOM     30  C   UNL     1      -4.143  12.699  22.029  0.00  0.00    +0.000 A 
ATOM     31 CL   UNL     1      -5.776  12.769  21.466  0.00  0.00    +0.000 Cl
ENDBRANCH  20  28
BRANCH  21  32
ATOM     32  S   UNL     1       1.374  12.315  18.810  0.00  0.00    +0.000 S 
ATOM     33  H   UNL     1       0.809  12.122  17.612  0.00  0.00    +0.000 HD
ENDBRANCH  21  32
ENDBRANCH   1  22
TORSDOF 6
ENDMDL
MODEL 4
REMARK VINA RESULT:      -7.5      1.235      1.405
REMARK  Name = 
REMARK  7 active torsions:
REMARK  status: ('A' for Active; 'I' for Inactive)
REMARK    1  A    between atoms: C_1  and  C_2
REMARK    2  A    between atoms: C_5  and  N_6
REMARK    3  A    between atoms: C_7  and  S_8
REMARK    4  A    between atoms: N_9  and  N_10
REMARK    5  A    between atoms: C_11  and  C_13
REMARK    6  A    between atoms: C_16  and  N_17
REMARK    7  A    between atoms: C_23  and  N_24
REMARK                            x       y       z     vdW  Elec       q    Type
REMARK                         _______ _______ _______ _____ _____    ______ ____
ROOT
ATOM      1  N   UNL     1       1.378   9.311  19.619  0.00  0.00    +0.000 N 
ATOM      2  C   UNL     1       1.600   8.058  20.168  0.00  0.00    +0.000 C 
ATOM      3  O   UNL     1       1.111   7.635  21.208  0.00  0.00    +0.000 OA
ATOM      4  H   UNL     1       1.742   9.557  18.705  0.00  0.00    +0.000 HD
ENDROOT
BRANCH   2   5
ATOM      5  C   UNL     1       2.503   7.168  19.364  0.00  0.00    +0.000 A 
ATOM      6  C   UNL     1       3.081   7.663  18.197  0.00  0.00    +0.000 A 
ATOM      7  C   UNL     1       3.933   6.861  17.423  0.00  0.00    +0.000 A 
ATOM      8  C   UNL     1       4.258   5.517  17.741  0.00  0.00    +0.000 A 
ATOM      9  C   UNL     1       3.632   5.052  18.922  0.00  0.00    +0.000 A 
ATOM     10  C   UNL     1       2.774   5.843  19.719  0.00  0.00    +0.000 A 
BRANCH   8  11
ATOM     11  N   UNL     1       5.152   4.842  16.932  0.00  0.00    +0.000 N 
ATOM     12  C   UNL     1       6.616   4.797  17.096  0.00  0.00    +0.000 C 
ATOM     13  C   UNL     1       7.302   5.114  15.750  0.00  0.00    +0.000 C 
ATOM     14  O   UNL     1       6.855   4.239  14.701  0.00  0.00    +0.000 OA
ATOM     15  C   UNL     1       5.431   4.348  14.537  0.00  0.00    +0.000 C 
ATOM     16  C   UNL     1       4.699   3.954  15.830  0.00  0.00    +0.000 C 
ENDBRANCH   8  11
BRANCH   9  17
ATOM     17  N   UNL     1       3.808   3.680  19.399  0.00  0.00    +0.000 N 
ATOM     18  O   UNL     1       4.924   3.330  19.796  0.00  0.00    +0.000 OA
ATOM     19  O   UNL     1       2.810   2.944  19.323  0.00  0.00    +0.000 OA
ENDBRANCH   9  17
ENDBRANCH   2   5
BRANCH   1  22
ATOM     20  N   UNL     1      -1.444  11.557  19.973  0.00  0.00    +0.000 N 
ATOM     21  C   UNL     1      -0.493  10.637  19.565  0.00  0.00    +0.000 C 
ATOM     22  N   UNL     1       0.572  10.250  20.218  0.00  0.00    +0.000 NA
ATOM     23  H   UNL     1      -2.130  11.814  19.280  0.00  0.00    +0.000 HD
BRANCH  20  28
ATOM     24  C   UNL     1      -1.628  14.846  24.765  0.00  0.00    +0.000 C 
ATOM     25  C   UNL     1      -1.623  13.968  23.540  0.00  0.00    +0.000 A 
ATOM     26  C   UNL     1      -0.590  14.120  22.617  0.00  0.00    +0.000 A 
ATOM     27  C   UNL     1      -0.505  13.324  21.454  0.00  0.00    +0.000 A 
ATOM     28  C   UNL     1      -1.481  12.368  21.146  0.00  0.00    +0.000 A 
ATOM     29  C   UNL     1      -2.520  12.199  22.093  0.00  0.00    +0.000 A 
ATOM     30  C   UNL     1      -2.581  12.982  23.276  0.00  0.00    +0.000 A 
ATOM     31 CL   UNL     1      -3.863  12.670  24.393  0.00  0.00    +0.000 Cl
ENDBRANCH  20  28
BRANCH  21  32
ATOM     32  S   UNL     1      -0.770   9.956  17.917  0.00  0.00    +0.000 S 
ATOM     33  H   UNL     1      -1.989   9.415  18.023  0.00  0.00    +0.000 HD
ENDBRANCH  21  32
ENDBRANCH   1  22
TORSDOF 6
ENDMDL
MODEL 5
REMARK VINA RESULT:      -7.5      4.112     10.991
REMARK  Name = 
REMARK  7 active torsions:
REMARK  status: ('A' for Active; 'I' for Inactive)
REMARK    1  A    between atoms: C_1  and  C_2
REMARK    2  A    between atoms: C_5  and  N_6
REMARK    3  A    between atoms: C_7  and  S_8
REMARK    4  A    between atoms: N_9  and  N_10
REMARK    5  A    between atoms: C_11  and  C_13
REMARK    6  A    between atoms: C_16  and  N_17
REMARK    7  A    between atoms: C_23  and  N_24
REMARK                            x       y       z     vdW  Elec       q    Type
REMARK                         _______ _______ _______ _____ _____    ______ ____
ROOT
ATOM      1  N   UNL     1       1.831   8.116  19.792  0.00  0.00    +0.000 N 
ATOM      2  C   UNL     1       1.205   9.194  19.186  0.00  0.00    +0.000 C 
ATOM      3  O   UNL     1       1.250   9.471  17.994  0.00  0.00    +0.000 OA
ATOM      4  H   UNL     1       1.671   7.895  20.769  0.00  0.00    +0.000 HD
ENDROOT
BRANCH   2   5
ATOM      5  C   UNL     1       0.389  10.049  20.111  0.00  0.00    +0.000 A 
ATOM      6  C   UNL     1       0.365   9.749  21.471  0.00  0.00    +0.000 A 
ATOM      7  C   UNL     1      -0.383  10.530  22.365  0.00  0.00    +0.000 A 
ATOM      8  C   UNL     1      -1.166  11.646  21.974  0.00  0.00    +0.000 A 
ATOM      9  C   UNL     1      -1.128  11.901  20.583  0.00  0.00    +0.000 A 
ATOM     10  C   UNL     1      -0.379  11.131  19.665  0.00  0.00    +0.000 A 
BRANCH   8  11
ATOM     11  N   UNL     1      -1.819  12.373  22.952  0.00  0.00    +0.000 N 
ATOM     12  C   UNL     1      -3.037  11.967  23.676  0.00  0.00    +0.000 C 
ATOM     13  C   UNL     1      -4.065  13.118  23.656  0.00  0.00    +0.000 C 
ATOM     14  O   UNL     1      -3.513  14.338  24.181  0.00  0.00    +0.000 OA
ATOM     15  C   UNL     1      -2.358  14.728  23.419  0.00  0.00    +0.000 C 
ATOM     16  C   UNL     1      -1.268  13.646  23.483  0.00  0.00    +0.000 C 
ENDBRANCH   8  11
BRANCH   9  17
ATOM     17  N   UNL     1      -1.900  12.984  19.975  0.00  0.00    +0.000 N 
ATOM     18  O   UNL     1      -1.326  14.049  19.719  0.00  0.00    +0.000 OA
ATOM     19  O   UNL     1      -3.110  12.762  19.802  0.00  0.00    +0.000 OA
ENDBRANCH   9  17
ENDBRANCH   2   5
BRANCH   1  22
ATOM     20  N   UNL     1       3.242   4.902  18.887  0.00  0.00    +0.000 N 
ATOM     21  C   UNL     1       2.556   5.967  19.448  0.00  0.00    +0.000 C 
ATOM     22  N   UNL     1       2.611   7.224  19.094  0.00  0.00    +0.000 NA
ATOM     23  H   UNL     1       3.162   4.024  19.375  0.00  0.00    +0.000 HD
BRANCH  20  28
ATOM     24  C   UNL     1       7.260   4.912  14.684  0.00  0.00    +0.000 C 
ATOM     25  C   UNL     1       6.246   4.948  15.798  0.00  0.00    +0.000 A 
ATOM     26  C   UNL     1       5.194   4.033  15.769  0.00  0.00    +0.000 A 
ATOM     27  C   UNL     1       4.214   3.991  16.784  0.00  0.00    +0.000 A 
ATOM     28  C   UNL     1       4.224   4.897  17.852  0.00  0.00    +0.000 A 
ATOM     29  C   UNL     1       5.301   5.814  17.892  0.00  0.00    +0.000 A 
ATOM     30  C   UNL     1       6.301   5.829  16.883  0.00  0.00    +0.000 A 
ATOM     31 CL   UNL     1       7.603   6.956  17.045  0.00  0.00    +0.000 Cl
ENDBRANCH  20  28
BRANCH  21  32
ATOM     32  S   UNL     1       1.519   5.528  20.858  0.00  0.00    +0.000 S 
ATOM     33  H   UNL     1       1.929   4.288  21.151  0.00  0.00    +0.000 HD
ENDBRANCH  21  32
ENDBRANCH   1  22
TORSDOF 6
ENDMDL
MODEL 6
REMARK VINA RESULT:      -7.4      1.849      2.371
REMARK  Name = 
REMARK  7 active torsions:
REMARK  status: ('A' for Active; 'I' for Inactive)
REMARK    1  A    between atoms: C_1  and  C_2
REMARK    2  A    between atoms: C_5  and  N_6
REMARK    3  A    between atoms: C_7  and  S_8
REMARK    4  A    between atoms: N_9  and  N_10
REMARK    5  A    between atoms: C_11  and  C_13
REMARK    6  A    between atoms: C_16  and  N_17
REMARK    7  A    between atoms: C_23  and  N_24
REMARK                            x       y       z     vdW  Elec       q    Type
REMARK                         _______ _______ _______ _____ _____    ______ ____
ROOT
ATOM      1  N   UNL     1      -0.060   9.794  18.679  0.00  0.00    +0.000 N 
ATOM      2  C   UNL     1       0.702   9.061  19.576  0.00  0.00    +0.000 C 
ATOM      3  O   UNL     1       0.502   8.974  20.781  0.00  0.00    +0.000 OA
ATOM      4  H   UNL     1       0.109   9.743  17.680  0.00  0.00    +0.000 HD
ENDROOT
BRANCH   2   5
ATOM      5  C   UNL     1       1.843   8.304  18.962  0.00  0.00    +0.000 A 
ATOM      6  C   UNL     1       2.450   8.803  17.812  0.00  0.00    +0.000 A 
ATOM      7  C   UNL     1       3.521   8.123  17.214  0.00  0.00    +0.000 A 
ATOM      8  C   UNL     1       4.052   6.902  17.700  0.00  0.00    +0.000 A 
ATOM      9  C   UNL     1       3.393   6.423  18.857  0.00  0.00    +0.000 A 
ATOM     10  C   UNL     1       2.315   7.093  19.479  0.00  0.00    +0.000 A 
BRANCH   8  11
ATOM     11  N   UNL     1       5.146   6.351  17.058  0.00  0.00    +0.000 N 
ATOM     12  C   UNL     1       5.112   5.323  16.003  0.00  0.00    +0.000 C 
ATOM     13  C   UNL     1       6.104   4.191  16.345  0.00  0.00    +0.000 C 
ATOM     14  O   UNL     1       7.435   4.692  16.561  0.00  0.00    +0.000 OA
ATOM     15  C   UNL     1       7.435   5.654  17.629  0.00  0.00    +0.000 C 
ATOM     16  C   UNL     1       6.526   6.847  17.293  0.00  0.00    +0.000 C 
ENDBRANCH   8  11
BRANCH   9  17
ATOM     17  N   UNL     1       3.765   5.158  19.490  0.00  0.00    +0.000 N 
ATOM     18  O   UNL     1       4.903   5.044  19.960  0.00  0.00    +0.000 OA
ATOM     19  O   UNL     1       2.906   4.261  19.464  0.00  0.00    +0.000 OA
ENDBRANCH   9  17
ENDBRANCH   2   5
BRANCH   1  22
ATOM     20  N   UNL     1      -1.961  12.782  19.451  0.00  0.00    +0.000 N 
ATOM     21  C   UNL     1      -1.007  11.841  19.102  0.00  0.00    +0.000 C 
ATOM     22  N   UNL     1      -1.148  10.541  19.068  0.00  0.00    +0.000 NA
ATOM     23  H   UNL     1      -1.630  13.731  19.533  0.00  0.00    +0.000 HD
BRANCH  20  28
ATOM     24  C   UNL     1      -7.397  12.008  21.364  0.00  0.00    +0.000 C 
ATOM     25  C   UNL     1      -6.003  12.188  20.822  0.00  0.00    +0.000 A 
ATOM     26  C   UNL     1      -5.018  12.687  21.672  0.00  0.00    +0.000 A 
ATOM     27  C   UNL     1      -3.685  12.868  21.246  0.00  0.00    +0.000 A 
ATOM     28  C   UNL     1      -3.292  12.595  19.929  0.00  0.00    +0.000 A 
ATOM     29  C   UNL     1      -4.287  12.070  19.070  0.00  0.00    +0.000 A 
ATOM     30  C   UNL     1      -5.619  11.862  19.516  0.00  0.00    +0.000 A 
ATOM     31 CL   UNL     1      -6.751  11.173  18.405  0.00  0.00    +0.000 Cl
ENDBRANCH  20  28
BRANCH  21  32
ATOM     32  S   UNL     1       0.612  12.528  18.703  0.00  0.00    +0.000 S 
ATOM     33  H   UNL     1       0.319  13.461  17.789  0.00  0.00    +0.000 HD
ENDBRANCH  21  32
ENDBRANCH   1  22
TORSDOF 6
ENDMDL
MODEL 7
REMARK VINA RESULT:      -7.4      1.465      2.130
REMARK  Name = 
REMARK  7 active torsions:
REMARK  status: ('A' for Active; 'I' for Inactive)
REMARK    1  A    between atoms: C_1  and  C_2
REMARK    2  A    between atoms: C_5  and  N_6
REMARK    3  A    between atoms: C_7  and  S_8
REMARK    4  A    between atoms: N_9  and  N_10
REMARK    5  A    between atoms: C_11  and  C_13
REMARK    6  A    between atoms: C_16  and  N_17
REMARK    7  A    between atoms: C_23  and  N_24
REMARK                            x       y       z     vdW  Elec       q    Type
REMARK                         _______ _______ _______ _____ _____    ______ ____
ROOT
ATOM      1  N   UNL     1       0.381  10.028  19.482  0.00  0.00    +0.000 N 
ATOM      2  C   UNL     1       0.856   8.890  20.116  0.00  0.00    +0.000 C 
ATOM      3  O   UNL     1       0.472   8.459  21.196  0.00  0.00    +0.000 OA
ATOM      4  H   UNL     1       0.679  10.271  18.543  0.00  0.00    +0.000 HD
ENDROOT
BRANCH   2   5
ATOM      5  C   UNL     1       1.911   8.139  19.357  0.00  0.00    +0.000 A 
ATOM      6  C   UNL     1       2.393   8.667  18.161  0.00  0.00    +0.000 A 
ATOM      7  C   UNL     1       3.382   7.995  17.427  0.00  0.00    +0.000 A 
ATOM      8  C   UNL     1       3.949   6.755  17.817  0.00  0.00    +0.000 A 
ATOM      9  C   UNL     1       3.416   6.248  19.026  0.00  0.00    +0.000 A 
ATOM     10  C   UNL     1       2.422   6.909  19.783  0.00  0.00    +0.000 A 
BRANCH   8  11
ATOM     11  N   UNL     1       4.957   6.213  17.041  0.00  0.00    +0.000 N 
ATOM     12  C   UNL     1       4.823   5.094  16.092  0.00  0.00    +0.000 C 
ATOM     13  C   UNL     1       5.937   4.057  16.347  0.00  0.00    +0.000 C 
ATOM     14  O   UNL     1       7.245   4.652  16.289  0.00  0.00    +0.000 OA
ATOM     15  C   UNL     1       7.354   5.705  17.262  0.00  0.00    +0.000 C 
ATOM     16  C   UNL     1       6.317   6.808  16.995  0.00  0.00    +0.000 C 
ENDBRANCH   8  11
BRANCH   9  17
ATOM     17  N   UNL     1       3.840   4.962  19.577  0.00  0.00    +0.000 N 
ATOM     18  O   UNL     1       2.991   4.078  19.740  0.00  0.00    +0.000 OA
ATOM     19  O   UNL     1       5.039   4.871  19.890  0.00  0.00    +0.000 OA
ENDBRANCH   9  17
ENDBRANCH   2   5
BRANCH   1  22
ATOM     20  N   UNL     1      -1.062  13.023  20.925  0.00  0.00    +0.000 N 
ATOM     21  C   UNL     1      -0.253  12.046  20.369  0.00  0.00    +0.000 C 
ATOM     22  N   UNL     1      -0.592  10.830  20.030  0.00  0.00    +0.000 NA
ATOM     23  H   UNL     1      -0.591  13.860  21.229  0.00  0.00    +0.000 HD
BRANCH  20  28
ATOM     24  C   UNL     1      -6.606  12.704  22.652  0.00  0.00    +0.000 C 
ATOM     25  C   UNL     1      -5.154  12.780  22.255  0.00  0.00    +0.000 A 
ATOM     26  C   UNL     1      -4.842  13.029  20.919  0.00  0.00    +0.000 A 
ATOM     27  C   UNL     1      -3.508  13.132  20.471  0.00  0.00    +0.000 A 
ATOM     28  C   UNL     1      -2.425  12.947  21.340  0.00  0.00    +0.000 A 
ATOM     29  C   UNL     1      -2.740  12.714  22.700  0.00  0.00    +0.000 A 
ATOM     30  C   UNL     1      -4.086  12.642  23.149  0.00  0.00    +0.000 A 
ATOM     31 CL   UNL     1      -4.369  12.400  24.837  0.00  0.00    +0.000 Cl
ENDBRANCH  20  28
BRANCH  21  32
ATOM     32  S   UNL     1       1.469  12.537  20.150  0.00  0.00    +0.000 S 
ATOM     33  H   UNL     1       1.433  13.236  19.009  0.00  0.00    +0.000 HD
ENDBRANCH  21  32
ENDBRANCH   1  22
TORSDOF 6
ENDMDL
MODEL 8
REMARK VINA RESULT:      -7.4      4.747     11.459
REMARK  Name = 
REMARK  7 active torsions:
REMARK  status: ('A' for Active; 'I' for Inactive)
REMARK    1  A    between atoms: C_1  and  C_2
REMARK    2  A    between atoms: C_5  and  N_6
REMARK    3  A    between atoms: C_7  and  S_8
REMARK    4  A    between atoms: N_9  and  N_10
REMARK    5  A    between atoms: C_11  and  C_13
REMARK    6  A    between atoms: C_16  and  N_17
REMARK    7  A    between atoms: C_23  and  N_24
REMARK                            x       y       z     vdW  Elec       q    Type
REMARK                         _______ _______ _______ _____ _____    ______ ____
ROOT
ATOM      1  N   UNL     1      -0.337  10.108  21.079  0.00  0.00    +0.000 N 
ATOM      2  C   UNL     1      -0.321  10.525  22.401  0.00  0.00    +0.000 C 
ATOM      3  O   UNL     1       0.331  10.016  23.304  0.00  0.00    +0.000 OA
ATOM      4  H   UNL     1      -0.828  10.638  20.366  0.00  0.00    +0.000 HD
ENDROOT
BRANCH   2   5
ATOM      5  C   UNL     1      -1.171  11.727  22.694  0.00  0.00    +0.000 A 
ATOM      6  C   UNL     1      -0.695  12.993  22.362  0.00  0.00    +0.000 A 
ATOM      7  C   UNL     1      -1.464  14.138  22.617  0.00  0.00    +0.000 A 
ATOM      8  C   UNL     1      -2.743  14.110  23.228  0.00  0.00    +0.000 A 
ATOM      9  C   UNL     1      -3.177  12.806  23.565  0.00  0.00    +0.000 A 
ATOM     10  C   UNL     1      -2.421  11.639  23.314  0.00  0.00    +0.000 A 
BRANCH   8  11
ATOM     11  N   UNL     1      -3.432  15.299  23.380  0.00  0.00    +0.000 N 
ATOM     12  C   UNL     1      -3.161  16.343  24.384  0.00  0.00    +0.000 C 
ATOM     13  C   UNL     1      -4.475  16.744  25.089  0.00  0.00    +0.000 C 
ATOM     14  O   UNL     1      -5.482  17.155  24.149  0.00  0.00    +0.000 OA
ATOM     15  C   UNL     1      -5.755  16.094  23.218  0.00  0.00    +0.000 C 
ATOM     16  C   UNL     1      -4.491  15.721  22.427  0.00  0.00    +0.000 C 
ENDBRANCH   8  11
BRANCH   9  17
ATOM     17  N   UNL     1      -4.453  12.567  24.240  0.00  0.00    +0.000 N 
ATOM     18  O   UNL     1      -5.481  12.506  23.557  0.00  0.00    +0.000 OA
ATOM     19  O   UNL     1      -4.409  12.490  25.479  0.00  0.00    +0.000 OA
ENDBRANCH   9  17
ENDBRANCH   2   5
BRANCH   1  22
ATOM     20  N   UNL     1       2.019   8.289  19.012  0.00  0.00    +0.000 N 
ATOM     21  C   UNL     1       1.192   9.220  19.618  0.00  0.00    +0.000 C 
ATOM     22  N   UNL     1       0.389   9.030  20.632  0.00  0.00    +0.000 NA
ATOM     23  H   UNL     1       2.474   8.593  18.166  0.00  0.00    +0.000 HD
BRANCH  20  28
ATOM     24  C   UNL     1       2.595   2.591  20.022  0.00  0.00    +0.000 C 
ATOM     25  C   UNL     1       2.460   4.059  19.711  0.00  0.00    +0.000 A 
ATOM     26  C   UNL     1       2.124   4.931  20.745  0.00  0.00    +0.000 A 
ATOM     27  C   UNL     1       1.996   6.321  20.538  0.00  0.00    +0.000 A 
ATOM     28  C   UNL     1       2.159   6.892  19.269  0.00  0.00    +0.000 A 
ATOM     29  C   UNL     1       2.518   6.011  18.222  0.00  0.00    +0.000 A 
ATOM     30  C   UNL     1       2.676   4.617  18.445  0.00  0.00    +0.000 A 
ATOM     31 CL   UNL     1       3.163   3.629  17.112  0.00  0.00    +0.000 Cl
ENDBRANCH  20  28
BRANCH  21  32
ATOM     32  S   UNL     1       1.223  10.855  18.857  0.00  0.00    +0.000 S 
ATOM     33  H   UNL     1       1.299  10.571  17.552  0.00  0.00    +0.000 HD
ENDBRANCH  21  32
ENDBRANCH   1  22
TORSDOF 6
ENDMDL
MODEL 9
REMARK VINA RESULT:      -7.4      1.660      2.015
REMARK  Name = 
REMARK  7 active torsions:
REMARK  status: ('A' for Active; 'I' for Inactive)
REMARK    1  A    between atoms: C_1  and  C_2
REMARK    2  A    between atoms: C_5  and  N_6
REMARK    3  A    between atoms: C_7  and  S_8
REMARK    4  A    between atoms: N_9  and  N_10
REMARK    5  A    between atoms: C_11  and  C_13
REMARK    6  A    between atoms: C_16  and  N_17
REMARK    7  A    between atoms: C_23  and  N_24
REMARK                            x       y       z     vdW  Elec       q    Type
REMARK                         _______ _______ _______ _____ _____    ______ ____
ROOT
ATOM      1  N   UNL     1       0.688  10.090  19.972  0.00  0.00    +0.000 N 
ATOM      2  C   UNL     1       0.901   8.787  20.394  0.00  0.00    +0.000 C 
ATOM      3  O   UNL     1       0.350   8.242  21.343  0.00  0.00    +0.000 OA
ATOM      4  H   UNL     1       1.109  10.443  19.120  0.00  0.00    +0.000 HD
ENDROOT
BRANCH   2   5
ATOM      5  C   UNL     1       1.880   8.008  19.565  0.00  0.00    +0.000 A 
ATOM      6  C   UNL     1       2.252   8.497  18.315  0.00  0.00    +0.000 A 
ATOM      7  C   UNL     1       3.167   7.798  17.515  0.00  0.00    +0.000 A 
ATOM      8  C   UNL     1       3.764   6.566  17.888  0.00  0.00    +0.000 A 
ATOM      9  C   UNL     1       3.342   6.099  19.156  0.00  0.00    +0.000 A 
ATOM     10  C   UNL     1       2.424   6.788  19.980  0.00  0.00    +0.000 A 
BRANCH   8  11
ATOM     11  N   UNL     1       4.694   5.996  17.040  0.00  0.00    +0.000 N 
ATOM     12  C   UNL     1       4.527   4.750  16.271  0.00  0.00    +0.000 C 
ATOM     13  C   UNL     1       5.756   3.839  16.478  0.00  0.00    +0.000 C 
ATOM     14  O   UNL     1       6.983   4.511  16.145  0.00  0.00    +0.000 OA
ATOM     15  C   UNL     1       7.135   5.693  16.950  0.00  0.00    +0.000 C 
ATOM     16  C   UNL     1       5.975   6.673  16.710  0.00  0.00    +0.000 C 
ENDBRANCH   8  11
BRANCH   9  17
ATOM     17  N   UNL     1       3.811   4.827  19.704  0.00  0.00    +0.000 N 
ATOM     18  O   UNL     1       5.016   4.697  19.950  0.00  0.00    +0.000 OA
ATOM     19  O   UNL     1       2.951   3.940  19.840  0.00  0.00    +0.000 OA
ENDBRANCH   9  17
ENDBRANCH   2   5
BRANCH   1  22
ATOM     20  N   UNL     1      -2.209  12.232  20.365  0.00  0.00    +0.000 N 
ATOM     21  C   UNL     1      -1.209  11.380  19.929  0.00  0.00    +0.000 C 
ATOM     22  N   UNL     1      -0.182  10.942  20.611  0.00  0.00    +0.000 NA
ATOM     23  H   UNL     1      -2.852  12.552  19.658  0.00  0.00    +0.000 HD
BRANCH  20  28
ATOM     24  C   UNL     1      -2.804  14.959  25.467  0.00  0.00    +0.000 C 
ATOM     25  C   UNL     1      -2.684  14.216  24.162  0.00  0.00    +0.000 A 
ATOM     26  C   UNL     1      -1.783  14.686  23.209  0.00  0.00    +0.000 A 
ATOM     27  C   UNL     1      -1.599  14.036  21.969  0.00  0.00    +0.000 A 
ATOM     28  C   UNL     1      -2.348  12.907  21.615  0.00  0.00    +0.000 A 
ATOM     29  C   UNL     1      -3.251  12.417  22.589  0.00  0.00    +0.000 A 
ATOM     30  C   UNL     1      -3.406  13.059  23.847  0.00  0.00    +0.000 A 
ATOM     31 CL   UNL     1      -4.500  12.357  24.988  0.00  0.00    +0.000 Cl
ENDBRANCH  20  28
BRANCH  21  32
ATOM     32  S   UNL     1      -1.353  10.881  18.201  0.00  0.00    +0.000 S 
ATOM     33  H   UNL     1      -1.711   9.595  18.295  0.00  0.00    +0.000 HD
ENDBRANCH  21  32
ENDBRANCH   1  22
TORSDOF 6
ENDMDL
