MODEL 1
REMARK VINA RESULT:      -8.1      0.000      0.000
REMARK  Name = 
REMARK  9 active torsions:
REMARK  status: ('A' for Active; 'I' for Inactive)
REMARK    1  A    between atoms: C_1  and  N_2
REMARK    2  A    between atoms: N_2  and  C_3
REMARK    3  A    between atoms: N_2  and  C_4
REMARK    4  A    between atoms: C_4  and  C_5
REMARK    5  A    between atoms: C_5  and  C_6
REMARK    6  A    between atoms: C_6  and  N_7
REMARK    7  A    between atoms: C_10  and  C_11
REMARK    8  A    between atoms: C_14  and  C_15
REMARK    9  A    between atoms: C_31  and  O_32
REMARK                            x       y       z     vdW  Elec       q    Type
REMARK                         _______ _______ _______ _____ _____    ______ ____
ROOT
ATOM      1  N   UNL     1       2.142   6.057  21.149  0.00  0.00    +0.000 NA
ATOM      2  C   UNL     1       2.199   6.609  20.000  0.00  0.00    +0.000 C 
ATOM      3  C   UNL     1       2.687   5.919  18.759  0.00  0.00    +0.000 C 
ATOM      4  C   UNL     1       3.684   6.822  18.033  0.00  0.00    +0.000 C 
ATOM      5  C   UNL     1       2.972   8.114  17.600  0.00  0.00    +0.000 C 
ATOM      6  C   UNL     1       2.138   8.733  18.701  0.00  0.00    +0.000 A 
ATOM      7  N   UNL     1       1.737  10.014  18.495  0.00  0.00    +0.000 NA
ATOM      8  C   UNL     1       0.941  10.617  19.403  0.00  0.00    +0.000 A 
ATOM      9  C   UNL     1       0.560  11.928  19.151  0.00  0.00    +0.000 A 
ATOM     10  C   UNL     1      -0.268  12.646  20.015  0.00  0.00    +0.000 A 
ATOM     11  C   UNL     1      -0.723  12.048  21.176  0.00  0.00    +0.000 A 
ATOM     12  C   UNL     1      -0.360  10.731  21.457  0.00  0.00    +0.000 A 
ATOM     13 CL   UNL     1      -0.963  10.098  22.957  0.00  0.00    +0.000 Cl
ATOM     14  C   UNL     1       0.473   9.981  20.574  0.00  0.00    +0.000 A 
ATOM     15  C   UNL     1       0.879   8.634  20.736  0.00  0.00    +0.000 A 
ATOM     16  C   UNL     1       1.738   8.013  19.819  0.00  0.00    +0.000 A 
ENDROOT
BRANCH   4  17
ATOM     17  C   UNL     1       4.327   6.100  16.860  0.00  0.00    +0.000 A 
ATOM     18  C   UNL     1       4.382   4.697  16.809  0.00  0.00    +0.000 A 
ATOM     19  C   UNL     1       4.972   4.035  15.739  0.00  0.00    +0.000 A 
ATOM     20  C   UNL     1       5.530   4.758  14.684  0.00  0.00    +0.000 A 
ATOM     21  C   UNL     1       5.489   6.160  14.726  0.00  0.00    +0.000 A 
ATOM     22  C   UNL     1       4.892   6.826  15.803  0.00  0.00    +0.000 A 
BRANCH  20  23
ATOM     23  C   UNL     1       6.157   4.032  13.523  0.00  0.00    +0.000 C 
ATOM     24  F   UNL     1       5.318   3.886  12.459  0.00  0.00    +0.000 F 
ATOM     25  F   UNL     1       7.256   4.674  13.040  0.00  0.00    +0.000 F 
ATOM     26  F   UNL     1       6.565   2.775  13.849  0.00  0.00    +0.000 F 
ENDBRANCH  20  23
ENDBRANCH   4  17
BRANCH  15  27
ATOM     27  O   UNL     1       0.375   7.868  21.757  0.00  0.00    +0.000 OA
ATOM     28  H   UNL     1       0.898   7.057  21.866  0.00  0.00    +0.000 HD
ENDBRANCH  15  27
BRANCH   1  29
ATOM     29  C   UNL     1       2.424   4.651  21.361  0.00  0.00    +0.000 C 
BRANCH  29  30
ATOM     30  C   UNL     1       1.207   3.893  20.841  0.00  0.00    +0.000 C 
BRANCH  30  31
ATOM     31  C   UNL     1       1.474   2.393  20.701  0.00  0.00    +0.000 C 
BRANCH  31  33
ATOM     32  C   UNL     1       1.138   2.844  18.342  0.00  0.00    +0.000 C 
ATOM     33  N   UNL     1       1.797   1.982  19.324  0.00  0.00    +0.000 NA
ATOM     34  C   UNL     1       3.244   1.997  19.111  0.00  0.00    +0.000 C 
ENDBRANCH  31  33
ENDBRANCH  30  31
ENDBRANCH  29  30
ENDBRANCH   1  29
TORSDOF 7
ENDMDL
MODEL 2
REMARK VINA RESULT:      -8.0      0.358      1.062
REMARK  Name = 
REMARK  9 active torsions:
REMARK  status: ('A' for Active; 'I' for Inactive)
REMARK    1  A    between atoms: C_1  and  N_2
REMARK    2  A    between atoms: N_2  and  C_3
REMARK    3  A    between atoms: N_2  and  C_4
REMARK    4  A    between atoms: C_4  and  C_5
REMARK    5  A    between atoms: C_5  and  C_6
REMARK    6  A    between atoms: C_6  and  N_7
REMARK    7  A    between atoms: C_10  and  C_11
REMARK    8  A    between atoms: C_14  and  C_15
REMARK    9  A    between atoms: C_31  and  O_32
REMARK                            x       y       z     vdW  Elec       q    Type
REMARK                         _______ _______ _______ _____ _____    ______ ____
ROOT
ATOM      1  N   UNL     1       2.092   5.998  21.103  0.00  0.00    +0.000 NA
ATOM      2  C   UNL     1       2.176   6.573  19.966  0.00  0.00    +0.000 C 
ATOM      3  C   UNL     1       2.681   5.902  18.721  0.00  0.00    +0.000 C 
ATOM      4  C   UNL     1       3.700   6.809  18.032  0.00  0.00    +0.000 C 
ATOM      5  C   UNL     1       3.010   8.117  17.613  0.00  0.00    +0.000 C 
ATOM      6  C   UNL     1       2.163   8.723  18.711  0.00  0.00    +0.000 A 
ATOM      7  N   UNL     1       1.779  10.012  18.524  0.00  0.00    +0.000 NA
ATOM      8  C   UNL     1       0.974  10.606  19.429  0.00  0.00    +0.000 A 
ATOM      9  C   UNL     1       0.611  11.926  19.196  0.00  0.00    +0.000 A 
ATOM     10  C   UNL     1      -0.225  12.636  20.059  0.00  0.00    +0.000 A 
ATOM     11  C   UNL     1      -0.708  12.019  21.199  0.00  0.00    +0.000 A 
ATOM     12  C   UNL     1      -0.365  10.693  21.460  0.00  0.00    +0.000 A 
ATOM     13 CL   UNL     1      -1.003  10.037  22.935  0.00  0.00    +0.000 Cl
ATOM     14  C   UNL     1       0.477   9.951  20.577  0.00  0.00    +0.000 A 
ATOM     15  C   UNL     1       0.865   8.597  20.719  0.00  0.00    +0.000 A 
ATOM     16  C   UNL     1       1.734   7.985  19.806  0.00  0.00    +0.000 A 
ENDROOT
BRANCH   4  17
ATOM     17  C   UNL     1       4.358   6.103  16.857  0.00  0.00    +0.000 A 
ATOM     18  C   UNL     1       4.863   6.825  15.764  0.00  0.00    +0.000 A 
ATOM     19  C   UNL     1       5.463   6.182  14.688  0.00  0.00    +0.000 A 
ATOM     20  C   UNL     1       5.574   4.791  14.671  0.00  0.00    +0.000 A 
ATOM     21  C   UNL     1       5.068   4.057  15.754  0.00  0.00    +0.000 A 
ATOM     22  C   UNL     1       4.466   4.707  16.839  0.00  0.00    +0.000 A 
BRANCH  20  23
ATOM     23  C   UNL     1       6.236   4.103  13.506  0.00  0.00    +0.000 C 
ATOM     24  F   UNL     1       5.411   3.947  12.431  0.00  0.00    +0.000 F 
ATOM     25  F   UNL     1       7.318   4.786  13.044  0.00  0.00    +0.000 F 
ATOM     26  F   UNL     1       6.679   2.854  13.817  0.00  0.00    +0.000 F 
ENDBRANCH  20  23
ENDBRANCH   4  17
BRANCH  15  27
ATOM     27  O   UNL     1       0.334   7.816  21.714  0.00  0.00    +0.000 OA
ATOM     28  H   UNL     1      -0.633   7.910  21.744  0.00  0.00    +0.000 HD
ENDBRANCH  15  27
BRANCH   1  29
ATOM     29  C   UNL     1       2.354   4.585  21.291  0.00  0.00    +0.000 C 
BRANCH  29  30
ATOM     30  C   UNL     1       1.134   3.852  20.743  0.00  0.00    +0.000 C 
BRANCH  30  31
ATOM     31  C   UNL     1       1.505   2.528  20.072  0.00  0.00    +0.000 C 
BRANCH  31  33
ATOM     32  C   UNL     1       3.798   1.903  19.589  0.00  0.00    +0.000 C 
ATOM     33  N   UNL     1       2.626   2.647  19.124  0.00  0.00    +0.000 NA
ATOM     34  C   UNL     1       2.229   2.174  17.798  0.00  0.00    +0.000 C 
ENDBRANCH  31  33
ENDBRANCH  30  31
ENDBRANCH  29  30
ENDBRANCH   1  29
TORSDOF 7
ENDMDL
MODEL 3
REMARK VINA RESULT:      -7.5      4.393      7.538
REMARK  Name = 
REMARK  9 active torsions:
REMARK  status: ('A' for Active; 'I' for Inactive)
REMARK    1  A    between atoms: C_1  and  N_2
REMARK    2  A    between atoms: N_2  and  C_3
REMARK    3  A    between atoms: N_2  and  C_4
REMARK    4  A    between atoms: C_4  and  C_5
REMARK    5  A    between atoms: C_5  and  C_6
REMARK    6  A    between atoms: C_6  and  N_7
REMARK    7  A    between atoms: C_10  and  C_11
REMARK    8  A    between atoms: C_14  and  C_15
REMARK    9  A    between atoms: C_31  and  O_32
REMARK                            x       y       z     vdW  Elec       q    Type
REMARK                         _______ _______ _______ _____ _____    ______ ____
ROOT
ATOM      1  N   UNL     1      -3.222  11.623  18.632  0.00  0.00    +0.000 NA
ATOM      2  C   UNL     1      -2.087  11.601  19.216  0.00  0.00    +0.000 C 
ATOM      3  C   UNL     1      -0.898  10.834  18.715  0.00  0.00    +0.000 C 
ATOM      4  C   UNL     1      -0.282  10.041  19.866  0.00  0.00    +0.000 C 
ATOM      5  C   UNL     1       0.213  11.019  20.945  0.00  0.00    +0.000 C 
ATOM      6  C   UNL     1      -0.803  12.085  21.294  0.00  0.00    +0.000 A 
ATOM      7  N   UNL     1      -0.565  12.783  22.434  0.00  0.00    +0.000 NA
ATOM      8  C   UNL     1      -1.392  13.790  22.783  0.00  0.00    +0.000 A 
ATOM      9  C   UNL     1      -1.110  14.472  23.959  0.00  0.00    +0.000 A 
ATOM     10  C   UNL     1      -1.891  15.537  24.413  0.00  0.00    +0.000 A 
ATOM     11  C   UNL     1      -2.997  15.930  23.681  0.00  0.00    +0.000 A 
ATOM     12  C   UNL     1      -3.305  15.268  22.493  0.00  0.00    +0.000 A 
ATOM     13 CL   UNL     1      -4.732  15.827  21.679  0.00  0.00    +0.000 Cl
ATOM     14  C   UNL     1      -2.506  14.188  22.011  0.00  0.00    +0.000 A 
ATOM     15  C   UNL     1      -2.700  13.465  20.809  0.00  0.00    +0.000 A 
ATOM     16  C   UNL     1      -1.870  12.390  20.459  0.00  0.00    +0.000 A 
ENDROOT
BRANCH   4  17
ATOM     17  C   UNL     1       0.825   9.123  19.372  0.00  0.00    +0.000 A 
ATOM     18  C   UNL     1       1.346   8.105  20.187  0.00  0.00    +0.000 A 
ATOM     19  C   UNL     1       2.358   7.266  19.737  0.00  0.00    +0.000 A 
ATOM     20  C   UNL     1       2.885   7.422  18.454  0.00  0.00    +0.000 A 
ATOM     21  C   UNL     1       2.378   8.439  17.632  0.00  0.00    +0.000 A 
ATOM     22  C   UNL     1       1.356   9.282  18.085  0.00  0.00    +0.000 A 
BRANCH  20  23
ATOM     23  C   UNL     1       3.975   6.501  17.971  0.00  0.00    +0.000 C 
ATOM     24  F   UNL     1       4.653   5.888  18.983  0.00  0.00    +0.000 F 
ATOM     25  F   UNL     1       3.498   5.497  17.186  0.00  0.00    +0.000 F 
ATOM     26  F   UNL     1       4.917   7.147  17.231  0.00  0.00    +0.000 F 
ENDBRANCH  20  23
ENDBRANCH   4  17
BRANCH  15  27
ATOM     27  O   UNL     1      -3.659  13.848  19.907  0.00  0.00    +0.000 OA
ATOM     28  H   UNL     1      -3.589  13.327  19.090  0.00  0.00    +0.000 HD
ENDBRANCH  15  27
BRANCH   1  29
ATOM     29  C   UNL     1      -3.452  11.008  17.339  0.00  0.00    +0.000 C 
BRANCH  29  30
ATOM     30  C   UNL     1      -4.692  11.685  16.764  0.00  0.00    +0.000 C 
BRANCH  30  31
ATOM     31  C   UNL     1      -5.845  11.734  17.768  0.00  0.00    +0.000 C 
BRANCH  31  33
ATOM     32  C   UNL     1      -6.789  13.865  17.097  0.00  0.00    +0.000 C 
ATOM     33  N   UNL     1      -6.193  13.101  18.194  0.00  0.00    +0.000 NA
ATOM     34  C   UNL     1      -7.109  13.065  19.334  0.00  0.00    +0.000 C 
ENDBRANCH  31  33
ENDBRANCH  30  31
ENDBRANCH  29  30
ENDBRANCH   1  29
TORSDOF 7
ENDMDL
MODEL 4
REMARK VINA RESULT:      -7.5      4.451      7.491
REMARK  Name = 
REMARK  9 active torsions:
REMARK  status: ('A' for Active; 'I' for Inactive)
REMARK    1  A    between atoms: C_1  and  N_2
REMARK    2  A    between atoms: N_2  and  C_3
REMARK    3  A    between atoms: N_2  and  C_4
REMARK    4  A    between atoms: C_4  and  C_5
REMARK    5  A    between atoms: C_5  and  C_6
REMARK    6  A    between atoms: C_6  and  N_7
REMARK    7  A    between atoms: C_10  and  C_11
REMARK    8  A    between atoms: C_14  and  C_15
REMARK    9  A    between atoms: C_31  and  O_32
REMARK                            x       y       z     vdW  Elec       q    Type
REMARK                         _______ _______ _______ _____ _____    ______ ____
ROOT
ATOM      1  N   UNL     1      -3.182  11.979  18.706  0.00  0.00    +0.000 NA
ATOM      2  C   UNL     1      -2.066  11.888  19.318  0.00  0.00    +0.000 C 
ATOM      3  C   UNL     1      -0.898  11.083  18.824  0.00  0.00    +0.000 C 
ATOM      4  C   UNL     1      -0.350  10.229  19.966  0.00  0.00    +0.000 C 
ATOM      5  C   UNL     1       0.159  11.150  21.087  0.00  0.00    +0.000 C 
ATOM      6  C   UNL     1      -0.817  12.252  21.442  0.00  0.00    +0.000 A 
ATOM      7  N   UNL     1      -0.580  12.904  22.609  0.00  0.00    +0.000 NA
ATOM      8  C   UNL     1      -1.370  13.937  22.967  0.00  0.00    +0.000 A 
ATOM      9  C   UNL     1      -1.090  14.570  24.171  0.00  0.00    +0.000 A 
ATOM     10  C   UNL     1      -1.835  15.656  24.637  0.00  0.00    +0.000 A 
ATOM     11  C   UNL     1      -2.901  16.120  23.889  0.00  0.00    +0.000 A 
ATOM     12  C   UNL     1      -3.206  15.508  22.674  0.00  0.00    +0.000 A 
ATOM     13 CL   UNL     1      -4.584  16.155  21.841  0.00  0.00    +0.000 Cl
ATOM     14  C   UNL     1      -2.443  14.407  22.179  0.00  0.00    +0.000 A 
ATOM     15  C   UNL     1      -2.637  13.730  20.952  0.00  0.00    +0.000 A 
ATOM     16  C   UNL     1      -1.847  12.630  20.590  0.00  0.00    +0.000 A 
ENDROOT
BRANCH   4  17
ATOM     17  C   UNL     1       0.727   9.276  19.472  0.00  0.00    +0.000 A 
ATOM     18  C   UNL     1       1.238   9.368  18.168  0.00  0.00    +0.000 A 
ATOM     19  C   UNL     1       2.221   8.497  17.713  0.00  0.00    +0.000 A 
ATOM     20  C   UNL     1       2.724   7.502  18.553  0.00  0.00    +0.000 A 
ATOM     21  C   UNL     1       2.217   7.395  19.856  0.00  0.00    +0.000 A 
ATOM     22  C   UNL     1       1.228   8.274  20.314  0.00  0.00    +0.000 A 
BRANCH  20  23
ATOM     23  C   UNL     1       3.797   6.569  18.056  0.00  0.00    +0.000 C 
ATOM     24  F   UNL     1       4.692   7.170  17.220  0.00  0.00    +0.000 F 
ATOM     25  F   UNL     1       4.536   6.039  19.068  0.00  0.00    +0.000 F 
ATOM     26  F   UNL     1       3.293   5.512  17.361  0.00  0.00    +0.000 F 
ENDBRANCH  20  23
ENDBRANCH   4  17
BRANCH  15  27
ATOM     27  O   UNL     1      -3.553  14.183  20.037  0.00  0.00    +0.000 OA
ATOM     28  H   UNL     1      -4.184  13.481  19.808  0.00  0.00    +0.000 HD
ENDBRANCH  15  27
BRANCH   1  29
ATOM     29  C   UNL     1      -3.404  11.414  17.389  0.00  0.00    +0.000 C 
BRANCH  29  30
ATOM     30  C   UNL     1      -4.848  10.921  17.379  0.00  0.00    +0.000 C 
BRANCH  30  31
ATOM     31  C   UNL     1      -5.853  12.064  17.526  0.00  0.00    +0.000 C 
BRANCH  31  33
ATOM     32  C   UNL     1      -6.858  10.395  18.969  0.00  0.00    +0.000 C 
ATOM     33  N   UNL     1      -6.938  11.771  18.478  0.00  0.00    +0.000 NA
ATOM     34  C   UNL     1      -6.900  12.706  19.603  0.00  0.00    +0.000 C 
ENDBRANCH  31  33
ENDBRANCH  30  31
ENDBRANCH  29  30
ENDBRANCH   1  29
TORSDOF 7
ENDMDL
MODEL 5
REMARK VINA RESULT:      -7.4      4.174      7.090
REMARK  Name = 
REMARK  9 active torsions:
REMARK  status: ('A' for Active; 'I' for Inactive)
REMARK    1  A    between atoms: C_1  and  N_2
REMARK    2  A    between atoms: N_2  and  C_3
REMARK    3  A    between atoms: N_2  and  C_4
REMARK    4  A    between atoms: C_4  and  C_5
REMARK    5  A    between atoms: C_5  and  C_6
REMARK    6  A    between atoms: C_6  and  N_7
REMARK    7  A    between atoms: C_10  and  C_11
REMARK    8  A    between atoms: C_14  and  C_15
REMARK    9  A    between atoms: C_31  and  O_32
REMARK                            x       y       z     vdW  Elec       q    Type
REMARK                         _______ _______ _______ _____ _____    ______ ____
ROOT
ATOM      1  N   UNL     1      -2.906  11.226  18.321  0.00  0.00    +0.000 NA
ATOM      2  C   UNL     1      -1.798  11.216  18.955  0.00  0.00    +0.000 C 
ATOM      3  C   UNL     1      -0.569  10.490  18.490  0.00  0.00    +0.000 C 
ATOM      4  C   UNL     1       0.015   9.683  19.649  0.00  0.00    +0.000 C 
ATOM      5  C   UNL     1       0.437  10.645  20.772  0.00  0.00    +0.000 C 
ATOM      6  C   UNL     1      -0.618  11.679  21.099  0.00  0.00    +0.000 A 
ATOM      7  N   UNL     1      -0.449  12.353  22.265  0.00  0.00    +0.000 NA
ATOM      8  C   UNL     1      -1.315  13.332  22.601  0.00  0.00    +0.000 A 
ATOM      9  C   UNL     1      -1.102  13.991  23.804  0.00  0.00    +0.000 A 
ATOM     10  C   UNL     1      -1.928  15.026  24.247  0.00  0.00    +0.000 A 
ATOM     11  C   UNL     1      -3.009  15.411  23.476  0.00  0.00    +0.000 A 
ATOM     12  C   UNL     1      -3.248  14.771  22.260  0.00  0.00    +0.000 A 
ATOM     13 CL   UNL     1      -4.651  15.317  21.396  0.00  0.00    +0.000 Cl
ATOM     14  C   UNL     1      -2.402  13.722  21.789  0.00  0.00    +0.000 A 
ATOM     15  C   UNL     1      -2.525  13.025  20.563  0.00  0.00    +0.000 A 
ATOM     16  C   UNL     1      -1.655  11.979  20.225  0.00  0.00    +0.000 A 
ENDROOT
BRANCH   4  17
ATOM     17  C   UNL     1       1.164   8.803  19.183  0.00  0.00    +0.000 A 
ATOM     18  C   UNL     1       1.767   8.996  17.929  0.00  0.00    +0.000 A 
ATOM     19  C   UNL     1       2.816   8.191  17.500  0.00  0.00    +0.000 A 
ATOM     20  C   UNL     1       3.295   7.164  18.314  0.00  0.00    +0.000 A 
ATOM     21  C   UNL     1       2.696   6.956  19.566  0.00  0.00    +0.000 A 
ATOM     22  C   UNL     1       1.641   7.769  19.998  0.00  0.00    +0.000 A 
BRANCH  20  23
ATOM     23  C   UNL     1       4.439   6.304  17.846  0.00  0.00    +0.000 C 
ATOM     24  F   UNL     1       5.161   5.760  18.868  0.00  0.00    +0.000 F 
ATOM     25  F   UNL     1       4.025   5.253  17.088  0.00  0.00    +0.000 F 
ATOM     26  F   UNL     1       5.335   6.991  17.086  0.00  0.00    +0.000 F 
ENDBRANCH  20  23
ENDBRANCH   4  17
BRANCH  15  27
ATOM     27  O   UNL     1      -3.453  13.408  19.628  0.00  0.00    +0.000 OA
ATOM     28  H   UNL     1      -3.233  14.282  19.266  0.00  0.00    +0.000 HD
ENDBRANCH  15  27
BRANCH   1  29
ATOM     29  C   UNL     1      -3.063  10.638  17.005  0.00  0.00    +0.000 C 
BRANCH  29  30
ATOM     30  C   UNL     1      -4.530  10.827  16.631  0.00  0.00    +0.000 C 
BRANCH  30  31
ATOM     31  C   UNL     1      -5.211  11.903  17.478  0.00  0.00    +0.000 C 
BRANCH  31  33
ATOM     32  C   UNL     1      -6.625  10.774  19.093  0.00  0.00    +0.000 C 
ATOM     33  N   UNL     1      -6.592  11.562  17.859  0.00  0.00    +0.000 NA
ATOM     34  C   UNL     1      -7.395  12.774  18.019  0.00  0.00    +0.000 C 
ENDBRANCH  31  33
ENDBRANCH  30  31
ENDBRANCH  29  30
ENDBRANCH   1  29
TORSDOF 7
ENDMDL
MODEL 6
REMARK VINA RESULT:      -7.3      4.640      7.610
REMARK  Name = 
REMARK  9 active torsions:
REMARK  status: ('A' for Active; 'I' for Inactive)
REMARK    1  A    between atoms: C_1  and  N_2
REMARK    2  A    between atoms: N_2  and  C_3
REMARK    3  A    between atoms: N_2  and  C_4
REMARK    4  A    between atoms: C_4  and  C_5
REMARK    5  A    between atoms: C_5  and  C_6
REMARK    6  A    between atoms: C_6  and  N_7
REMARK    7  A    between atoms: C_10  and  C_11
REMARK    8  A    between atoms: C_14  and  C_15
REMARK    9  A    between atoms: C_31  and  O_32
REMARK                            x       y       z     vdW  Elec       q    Type
REMARK                         _______ _______ _______ _____ _____    ______ ____
ROOT
ATOM      1  N   UNL     1      -3.569  12.113  19.132  0.00  0.00    +0.000 NA
ATOM      2  C   UNL     1      -2.408  12.065  19.659  0.00  0.00    +0.000 C 
ATOM      3  C   UNL     1      -1.269  11.254  19.111  0.00  0.00    +0.000 C 
ATOM      4  C   UNL     1      -0.620  10.459  20.243  0.00  0.00    +0.000 C 
ATOM      5  C   UNL     1      -0.041  11.437  21.280  0.00  0.00    +0.000 C 
ATOM      6  C   UNL     1      -1.005  12.540  21.661  0.00  0.00    +0.000 A 
ATOM      7  N   UNL     1      -0.690  13.247  22.776  0.00  0.00    +0.000 NA
ATOM      8  C   UNL     1      -1.467  14.284  23.150  0.00  0.00    +0.000 A 
ATOM      9  C   UNL     1      -1.105  14.975  24.299  0.00  0.00    +0.000 A 
ATOM     10  C   UNL     1      -1.830  16.070  24.773  0.00  0.00    +0.000 A 
ATOM     11  C   UNL     1      -2.958  16.486  24.092  0.00  0.00    +0.000 A 
ATOM     12  C   UNL     1      -3.346  15.816  22.932  0.00  0.00    +0.000 A 
ATOM     13 CL   UNL     1      -4.795  16.407  22.181  0.00  0.00    +0.000 Cl
ATOM     14  C   UNL     1      -2.605  14.704  22.428  0.00  0.00    +0.000 A 
ATOM     15  C   UNL     1      -2.882  13.970  21.250  0.00  0.00    +0.000 A 
ATOM     16  C   UNL     1      -2.104  12.865  20.876  0.00  0.00    +0.000 A 
ENDROOT
BRANCH   4  17
ATOM     17  C   UNL     1       0.432   9.500  19.709  0.00  0.00    +0.000 A 
ATOM     18  C   UNL     1       1.007   8.517  20.531  0.00  0.00    +0.000 A 
ATOM     19  C   UNL     1       1.970   7.641  20.045  0.00  0.00    +0.000 A 
ATOM     20  C   UNL     1       2.391   7.722  18.717  0.00  0.00    +0.000 A 
ATOM     21  C   UNL     1       1.830   8.704  17.887  0.00  0.00    +0.000 A 
ATOM     22  C   UNL     1       0.858   9.585  18.377  0.00  0.00    +0.000 A 
BRANCH  20  23
ATOM     23  C   UNL     1       3.427   6.761  18.196  0.00  0.00    +0.000 C 
ATOM     24  F   UNL     1       2.894   5.713  17.506  0.00  0.00    +0.000 F 
ATOM     25  F   UNL     1       4.306   7.355  17.343  0.00  0.00    +0.000 F 
ATOM     26  F   UNL     1       4.176   6.208  19.188  0.00  0.00    +0.000 F 
ENDBRANCH  20  23
ENDBRANCH   4  17
BRANCH  15  27
ATOM     27  O   UNL     1      -3.874  14.370  20.391  0.00  0.00    +0.000 OA
ATOM     28  H   UNL     1      -3.556  14.360  19.473  0.00  0.00    +0.000 HD
ENDBRANCH  15  27
BRANCH   1  29
ATOM     29  C   UNL     1      -3.883  11.486  17.863  0.00  0.00    +0.000 C 
BRANCH  29  30
ATOM     30  C   UNL     1      -5.399  11.316  17.839  0.00  0.00    +0.000 C 
BRANCH  30  31
ATOM     31  C   UNL     1      -6.070  11.917  19.075  0.00  0.00    +0.000 C 
BRANCH  31  33
ATOM     32  C   UNL     1      -7.703  11.420  20.798  0.00  0.00    +0.000 C 
ATOM     33  N   UNL     1      -6.578  10.904  20.017  0.00  0.00    +0.000 NA
ATOM     34  C   UNL     1      -6.980   9.694  19.300  0.00  0.00    +0.000 C 
ENDBRANCH  31  33
ENDBRANCH  30  31
ENDBRANCH  29  30
ENDBRANCH   1  29
TORSDOF 7
ENDMDL
MODEL 7
REMARK VINA RESULT:      -7.3      3.964      6.760
REMARK  Name = 
REMARK  9 active torsions:
REMARK  status: ('A' for Active; 'I' for Inactive)
REMARK    1  A    between atoms: C_1  and  N_2
REMARK    2  A    between atoms: N_2  and  C_3
REMARK    3  A    between atoms: N_2  and  C_4
REMARK    4  A    between atoms: C_4  and  C_5
REMARK    5  A    between atoms: C_5  and  C_6
REMARK    6  A    between atoms: C_6  and  N_7
REMARK    7  A    between atoms: C_10  and  C_11
REMARK    8  A    between atoms: C_14  and  C_15
REMARK    9  A    between atoms: C_31  and  O_32
REMARK                            x       y       z     vdW  Elec       q    Type
REMARK                         _______ _______ _______ _____ _____    ______ ____
ROOT
ATOM      1  N   UNL     1      -2.636  10.851  18.179  0.00  0.00    +0.000 NA
ATOM      2  C   UNL     1      -1.521  10.890  18.800  0.00  0.00    +0.000 C 
ATOM      3  C   UNL     1      -0.285  10.162  18.354  0.00  0.00    +0.000 C 
ATOM      4  C   UNL     1       0.325   9.421  19.542  0.00  0.00    +0.000 C 
ATOM      5  C   UNL     1       0.744  10.441  20.613  0.00  0.00    +0.000 C 
ATOM      6  C   UNL     1      -0.326  11.472  20.905  0.00  0.00    +0.000 A 
ATOM      7  N   UNL     1      -0.154  12.203  22.036  0.00  0.00    +0.000 NA
ATOM      8  C   UNL     1      -1.033  13.182  22.336  0.00  0.00    +0.000 A 
ATOM      9  C   UNL     1      -0.818  13.900  23.505  0.00  0.00    +0.000 A 
ATOM     10  C   UNL     1      -1.656  14.941  23.909  0.00  0.00    +0.000 A 
ATOM     11  C   UNL     1      -2.752  15.271  23.133  0.00  0.00    +0.000 A 
ATOM     12  C   UNL     1      -2.994  14.572  21.952  0.00  0.00    +0.000 A 
ATOM     13 CL   UNL     1      -4.416  15.053  21.080  0.00  0.00    +0.000 Cl
ATOM     14  C   UNL     1      -2.136  13.516  21.520  0.00  0.00    +0.000 A 
ATOM     15  C   UNL     1      -2.261  12.760  20.330  0.00  0.00    +0.000 A 
ATOM     16  C   UNL     1      -1.376  11.714  20.030  0.00  0.00    +0.000 A 
ENDROOT
BRANCH   4  17
ATOM     17  C   UNL     1       1.484   8.539  19.104  0.00  0.00    +0.000 A 
ATOM     18  C   UNL     1       1.926   7.468  19.898  0.00  0.00    +0.000 A 
ATOM     19  C   UNL     1       2.986   6.663  19.500  0.00  0.00    +0.000 A 
ATOM     20  C   UNL     1       3.641   6.905  18.292  0.00  0.00    +0.000 A 
ATOM     21  C   UNL     1       3.214   7.976  17.492  0.00  0.00    +0.000 A 
ATOM     22  C   UNL     1       2.144   8.786  17.893  0.00  0.00    +0.000 A 
BRANCH  20  23
ATOM     23  C   UNL     1       4.782   6.021  17.863  0.00  0.00    +0.000 C 
ATOM     24  F   UNL     1       4.964   4.940  18.675  0.00  0.00    +0.000 F 
ATOM     25  F   UNL     1       4.607   5.515  16.611  0.00  0.00    +0.000 F 
ATOM     26  F   UNL     1       5.975   6.675  17.845  0.00  0.00    +0.000 F 
ENDBRANCH  20  23
ENDBRANCH   4  17
BRANCH  15  27
ATOM     27  O   UNL     1      -3.205  13.083  19.389  0.00  0.00    +0.000 OA
ATOM     28  H   UNL     1      -3.167  12.467  18.639  0.00  0.00    +0.000 HD
ENDBRANCH  15  27
BRANCH   1  29
ATOM     29  C   UNL     1      -2.798  10.200  16.894  0.00  0.00    +0.000 C 
BRANCH  29  30
ATOM     30  C   UNL     1      -4.253  10.418  16.490  0.00  0.00    +0.000 C 
BRANCH  30  31
ATOM     31  C   UNL     1      -4.750  11.820  16.846  0.00  0.00    +0.000 C 
BRANCH  31  33
ATOM     32  C   UNL     1      -6.248  10.857  18.492  0.00  0.00    +0.000 C 
ATOM     33  N   UNL     1      -6.111  11.834  17.411  0.00  0.00    +0.000 NA
ATOM     34  C   UNL     1      -6.450  13.170  17.899  0.00  0.00    +0.000 C 
ENDBRANCH  31  33
ENDBRANCH  30  31
ENDBRANCH  29  30
ENDBRANCH   1  29
TORSDOF 7
ENDMDL
MODEL 8
REMARK VINA RESULT:      -7.2      4.150      7.112
REMARK  Name = 
REMARK  9 active torsions:
REMARK  status: ('A' for Active; 'I' for Inactive)
REMARK    1  A    between atoms: C_1  and  N_2
REMARK    2  A    between atoms: N_2  and  C_3
REMARK    3  A    between atoms: N_2  and  C_4
REMARK    4  A    between atoms: C_4  and  C_5
REMARK    5  A    between atoms: C_5  and  C_6
REMARK    6  A    between atoms: C_6  and  N_7
REMARK    7  A    between atoms: C_10  and  C_11
REMARK    8  A    between atoms: C_14  and  C_15
REMARK    9  A    between atoms: C_31  and  O_32
REMARK                            x       y       z     vdW  Elec       q    Type
REMARK                         _______ _______ _______ _____ _____    ______ ____
ROOT
ATOM      1  N   UNL     1      -2.982  11.143  18.773  0.00  0.00    +0.000 NA
ATOM      2  C   UNL     1      -1.763  11.250  19.137  0.00  0.00    +0.000 C 
ATOM      3  C   UNL     1      -0.641  10.433  18.564  0.00  0.00    +0.000 C 
ATOM      4  C   UNL     1       0.209   9.869  19.702  0.00  0.00    +0.000 C 
ATOM      5  C   UNL     1       0.833  11.031  20.491  0.00  0.00    +0.000 C 
ATOM      6  C   UNL     1      -0.161  12.120  20.833  0.00  0.00    +0.000 A 
ATOM      7  N   UNL     1       0.235  13.012  21.777  0.00  0.00    +0.000 NA
ATOM      8  C   UNL     1      -0.571  14.047  22.095  0.00  0.00    +0.000 A 
ATOM      9  C   UNL     1      -0.124  14.931  23.068  0.00  0.00    +0.000 A 
ATOM     10  C   UNL     1      -0.869  16.042  23.469  0.00  0.00    +0.000 A 
ATOM     11  C   UNL     1      -2.105  16.275  22.895  0.00  0.00    +0.000 A 
ATOM     12  C   UNL     1      -2.581  15.408  21.913  0.00  0.00    +0.000 A 
ATOM     13 CL   UNL     1      -4.156  15.783  21.290  0.00  0.00    +0.000 Cl
ATOM     14  C   UNL     1      -1.822  14.277  21.483  0.00  0.00    +0.000 A 
ATOM     15  C   UNL     1      -2.185  13.351  20.477  0.00  0.00    +0.000 A 
ATOM     16  C   UNL     1      -1.373  12.250  20.168  0.00  0.00    +0.000 A 
ENDROOT
BRANCH   4  17
ATOM     17  C   UNL     1       1.259   8.902  19.176  0.00  0.00    +0.000 A 
ATOM     18  C   UNL     1       1.822   9.061  17.899  0.00  0.00    +0.000 A 
ATOM     19  C   UNL     1       2.780   8.178  17.416  0.00  0.00    +0.000 A 
ATOM     20  C   UNL     1       3.205   7.103  18.198  0.00  0.00    +0.000 A 
ATOM     21  C   UNL     1       2.646   6.928  19.472  0.00  0.00    +0.000 A 
ATOM     22  C   UNL     1       1.682   7.820  19.959  0.00  0.00    +0.000 A 
BRANCH  20  23
ATOM     23  C   UNL     1       4.252   6.157  17.670  0.00  0.00    +0.000 C 
ATOM     24  F   UNL     1       4.753   6.526  16.457  0.00  0.00    +0.000 F 
ATOM     25  F   UNL     1       5.327   6.057  18.498  0.00  0.00    +0.000 F 
ATOM     26  F   UNL     1       3.780   4.891  17.506  0.00  0.00    +0.000 F 
ENDBRANCH  20  23
ENDBRANCH   4  17
BRANCH  15  27
ATOM     27  O   UNL     1      -3.307  13.548  19.712  0.00  0.00    +0.000 OA
ATOM     28  H   UNL     1      -3.717  12.699  19.481  0.00  0.00    +0.000 HD
ENDBRANCH  15  27
BRANCH   1  29
ATOM     29  C   UNL     1      -3.402  10.306  17.667  0.00  0.00    +0.000 C 
BRANCH  29  30
ATOM     30  C   UNL     1      -4.566  11.035  17.003  0.00  0.00    +0.000 C 
BRANCH  30  31
ATOM     31  C   UNL     1      -5.716  11.299  17.976  0.00  0.00    +0.000 C 
BRANCH  31  33
ATOM     32  C   UNL     1      -6.535  13.371  17.017  0.00  0.00    +0.000 C 
ATOM     33  N   UNL     1      -5.971  12.732  18.207  0.00  0.00    +0.000 NA
ATOM     34  C   UNL     1      -6.869  12.916  19.346  0.00  0.00    +0.000 C 
ENDBRANCH  31  33
ENDBRANCH  30  31
ENDBRANCH  29  30
ENDBRANCH   1  29
TORSDOF 7
ENDMDL
MODEL 9
REMARK VINA RESULT:      -7.2      6.105     10.261
REMARK  Name = 
REMARK  9 active torsions:
REMARK  status: ('A' for Active; 'I' for Inactive)
REMARK    1  A    between atoms: C_1  and  N_2
REMARK    2  A    between atoms: N_2  and  C_3
REMARK    3  A    between atoms: N_2  and  C_4
REMARK    4  A    between atoms: C_4  and  C_5
REMARK    5  A    between atoms: C_5  and  C_6
REMARK    6  A    between atoms: C_6  and  N_7
REMARK    7  A    between atoms: C_10  and  C_11
REMARK    8  A    between atoms: C_14  and  C_15
REMARK    9  A    between atoms: C_31  and  O_32
REMARK                            x       y       z     vdW  Elec       q    Type
REMARK                         _______ _______ _______ _____ _____    ______ ____
ROOT
ATOM      1  N   UNL     1       2.239  10.650  18.066  0.00  0.00    +0.000 NA
ATOM      2  C   UNL     1       1.474  10.042  18.886  0.00  0.00    +0.000 C 
ATOM      3  C   UNL     1       0.245  10.651  19.499  0.00  0.00    +0.000 C 
ATOM      4  C   UNL     1       0.248  10.396  21.005  0.00  0.00    +0.000 C 
ATOM      5  C   UNL     1       0.196   8.881  21.261  0.00  0.00    +0.000 C 
ATOM      6  C   UNL     1       1.180   8.100  20.416  0.00  0.00    +0.000 A 
ATOM      7  N   UNL     1       1.407   6.817  20.800  0.00  0.00    +0.000 NA
ATOM      8  C   UNL     1       2.226   6.037  20.065  0.00  0.00    +0.000 A 
ATOM      9  C   UNL     1       2.430   4.734  20.499  0.00  0.00    +0.000 A 
ATOM     10  C   UNL     1       3.248   3.835  19.811  0.00  0.00    +0.000 A 
ATOM     11  C   UNL     1       3.896   4.247  18.662  0.00  0.00    +0.000 A 
ATOM     12  C   UNL     1       3.709   5.549  18.197  0.00  0.00    +0.000 A 
ATOM     13 CL   UNL     1       4.599   5.962  16.765  0.00  0.00    +0.000 Cl
ATOM     14  C   UNL     1       2.863   6.472  18.882  0.00  0.00    +0.000 A 
ATOM     15  C   UNL     1       2.573   7.801  18.491  0.00  0.00    +0.000 A 
ATOM     16  C   UNL     1       1.756   8.632  19.271  0.00  0.00    +0.000 A 
ENDROOT
BRANCH   4  17
ATOM     17  C   UNL     1      -0.891  11.134  21.690  0.00  0.00    +0.000 A 
ATOM     18  C   UNL     1      -1.231  10.870  23.027  0.00  0.00    +0.000 A 
ATOM     19  C   UNL     1      -2.273  11.542  23.654  0.00  0.00    +0.000 A 
ATOM     20  C   UNL     1      -3.013  12.500  22.960  0.00  0.00    +0.000 A 
ATOM     21  C   UNL     1      -2.689  12.768  21.622  0.00  0.00    +0.000 A 
ATOM     22  C   UNL     1      -1.636  12.093  20.992  0.00  0.00    +0.000 A 
BRANCH  20  23
ATOM     23  C   UNL     1      -4.134  13.231  23.651  0.00  0.00    +0.000 C 
ATOM     24  F   UNL     1      -4.255  12.913  24.972  0.00  0.00    +0.000 F 
ATOM     25  F   UNL     1      -3.978  14.583  23.610  0.00  0.00    +0.000 F 
ATOM     26  F   UNL     1      -5.350  12.973  23.096  0.00  0.00    +0.000 F 
ENDBRANCH  20  23
ENDBRANCH   4  17
BRANCH  15  27
ATOM     27  O   UNL     1       3.017   8.292  17.289  0.00  0.00    +0.000 OA
ATOM     28  H   UNL     1       3.305   7.568  16.710  0.00  0.00    +0.000 HD
ENDBRANCH  15  27
BRANCH   1  29
ATOM     29  C   UNL     1       1.934  11.962  17.530  0.00  0.00    +0.000 C 
BRANCH  29  30
ATOM     30  C   UNL     1       2.903  12.930  18.202  0.00  0.00    +0.000 C 
BRANCH  30  31
ATOM     31  C   UNL     1       2.228  14.241  18.605  0.00  0.00    +0.000 C 
BRANCH  31  33
ATOM     32  C   UNL     1       1.328  14.317  20.856  0.00  0.00    +0.000 C 
ATOM     33  N   UNL     1       1.034  14.051  19.447  0.00  0.00    +0.000 NA
ATOM     34  C   UNL     1      -0.057  14.913  18.993  0.00  0.00    +0.000 C 
ENDBRANCH  31  33
ENDBRANCH  30  31
ENDBRANCH  29  30
ENDBRANCH   1  29
TORSDOF 7
ENDMDL
