MODEL 1
REMARK VINA RESULT:      -8.4      0.000      0.000
REMARK  Name = 
REMARK  4 active torsions:
REMARK  status: ('A' for Active; 'I' for Inactive)
REMARK    1  A    between atoms: N_3  and  C_4
REMARK    2  A    between atoms: C_4  and  C_5
REMARK    3  A    between atoms: C_10  and  O_11
REMARK    4  A    between atoms: O_11  and  C_12
REMARK                            x       y       z     vdW  Elec       q    Type
REMARK                         _______ _______ _______ _____ _____    ______ ____
ROOT
ATOM      1  O   UNL     1       2.335   9.055  17.219  0.00  0.00    +0.000 OA
ATOM      2  C   UNL     1       2.126   8.547  18.320  0.00  0.00    +0.000 C 
ATOM      3  N   UNL     1       2.686   7.338  18.673  0.00  0.00    +0.000 N 
ATOM      4  N   UNL     1       1.317   9.123  19.312  0.00  0.00    +0.000 N 
ATOM      5  S   UNL     1       0.542  10.648  19.015  0.00  0.00    +0.000 S 
ATOM      6  C   UNL     1      -0.129  10.667  20.657  0.00  0.00    +0.000 A 
ATOM      7  N   UNL     1      -0.884  11.665  21.150  0.00  0.00    +0.000 NA
ATOM      8  C   UNL     1      -1.290  11.507  22.433  0.00  0.00    +0.000 A 
ATOM      9  C   UNL     1      -0.974  10.402  23.226  0.00  0.00    +0.000 A 
ATOM     10  C   UNL     1      -0.190   9.387  22.681  0.00  0.00    +0.000 A 
ATOM     11  C   UNL     1       0.231   9.539  21.369  0.00  0.00    +0.000 A 
ATOM     12  C   UNL     1       1.064   8.619  20.595  0.00  0.00    +0.000 A 
ATOM     13  O   UNL     1       1.449   7.557  21.062  0.00  0.00    +0.000 OA
ATOM     14  H   UNL     1       2.489   6.968  19.601  0.00  0.00    +0.000 HD
ENDROOT
BRANCH   3  15
ATOM     15  C   UNL     1       3.490   6.525  17.779  0.00  0.00    +0.000 C 
BRANCH  15  16
ATOM     16  C   UNL     1       3.179   5.039  17.829  0.00  0.00    +0.000 A 
ATOM     17  C   UNL     1       1.832   4.615  17.928  0.00  0.00    +0.000 A 
ATOM     18  C   UNL     1       1.483   3.270  18.062  0.00  0.00    +0.000 A 
ATOM     19  C   UNL     1       2.474   2.301  18.080  0.00  0.00    +0.000 A 
ATOM     20  C   UNL     1       3.806   2.687  17.969  0.00  0.00    +0.000 A 
ATOM     21  C   UNL     1       4.173   4.040  17.842  0.00  0.00    +0.000 A 
BRANCH  21  22
ATOM     22  O   UNL     1       5.530   4.200  17.878  0.00  0.00    +0.000 OA
BRANCH  22  23
ATOM     23  C   UNL     1       6.204   4.529  16.682  0.00  0.00    +0.000 C 
ATOM     24  F   UNL     1       7.491   4.122  16.805  0.00  0.00    +0.000 F 
ATOM     25  F   UNL     1       5.659   3.769  15.694  0.00  0.00    +0.000 F 
ENDBRANCH  22  23
ENDBRANCH  21  22
ENDBRANCH  15  16
ENDBRANCH   3  15
TORSDOF 4
ENDMDL
MODEL 2
REMARK VINA RESULT:      -8.1      1.753      2.779
REMARK  Name = 
REMARK  4 active torsions:
REMARK  status: ('A' for Active; 'I' for Inactive)
REMARK    1  A    between atoms: N_3  and  C_4
REMARK    2  A    between atoms: C_4  and  C_5
REMARK    3  A    between atoms: C_10  and  O_11
REMARK    4  A    between atoms: O_11  and  C_12
REMARK                            x       y       z     vdW  Elec       q    Type
REMARK                         _______ _______ _______ _____ _____    ______ ____
ROOT
ATOM      1  O   UNL     1       2.348   9.053  17.178  0.00  0.00    +0.000 OA
ATOM      2  C   UNL     1       2.113   8.510  18.257  0.00  0.00    +0.000 C 
ATOM      3  N   UNL     1       2.599   7.254  18.551  0.00  0.00    +0.000 N 
ATOM      4  N   UNL     1       1.345   9.088  19.279  0.00  0.00    +0.000 N 
ATOM      5  S   UNL     1       0.662  10.670  19.056  0.00  0.00    +0.000 S 
ATOM      6  C   UNL     1       0.001  10.655  20.702  0.00  0.00    +0.000 A 
ATOM      7  N   UNL     1      -0.690  11.673  21.244  0.00  0.00    +0.000 NA
ATOM      8  C   UNL     1      -1.100  11.483  22.522  0.00  0.00    +0.000 A 
ATOM      9  C   UNL     1      -0.848  10.326  23.262  0.00  0.00    +0.000 A 
ATOM     10  C   UNL     1      -0.129   9.292  22.667  0.00  0.00    +0.000 A 
ATOM     11  C   UNL     1       0.294   9.476  21.361  0.00  0.00    +0.000 A 
ATOM     12  C   UNL     1       1.067   8.543  20.540  0.00  0.00    +0.000 A 
ATOM     13  O   UNL     1       1.389   7.440  20.957  0.00  0.00    +0.000 OA
ATOM     14  H   UNL     1       2.384   6.856  19.463  0.00  0.00    +0.000 HD
ENDROOT
BRANCH   3  15
ATOM     15  C   UNL     1       3.348   6.435  17.617  0.00  0.00    +0.000 C 
BRANCH  15  16
ATOM     16  C   UNL     1       4.820   6.279  17.956  0.00  0.00    +0.000 A 
ATOM     17  C   UNL     1       5.786   6.981  17.196  0.00  0.00    +0.000 A 
ATOM     18  C   UNL     1       7.158   6.817  17.402  0.00  0.00    +0.000 A 
ATOM     19  C   UNL     1       7.607   5.959  18.393  0.00  0.00    +0.000 A 
ATOM     20  C   UNL     1       6.680   5.267  19.167  0.00  0.00    +0.000 A 
ATOM     21  C   UNL     1       5.295   5.416  18.965  0.00  0.00    +0.000 A 
BRANCH  21  22
ATOM     22  O   UNL     1       4.577   4.552  19.743  0.00  0.00    +0.000 OA
BRANCH  22  23
ATOM     23  C   UNL     1       4.575   3.181  19.407  0.00  0.00    +0.000 C 
ATOM     24  F   UNL     1       3.570   2.586  20.095  0.00  0.00    +0.000 F 
ATOM     25  F   UNL     1       4.240   3.091  18.093  0.00  0.00    +0.000 F 
ENDBRANCH  22  23
ENDBRANCH  21  22
ENDBRANCH  15  16
ENDBRANCH   3  15
TORSDOF 4
ENDMDL
MODEL 3
REMARK VINA RESULT:      -7.9      1.608      2.533
REMARK  Name = 
REMARK  4 active torsions:
REMARK  status: ('A' for Active; 'I' for Inactive)
REMARK    1  A    between atoms: N_3  and  C_4
REMARK    2  A    between atoms: C_4  and  C_5
REMARK    3  A    between atoms: C_10  and  O_11
REMARK    4  A    between atoms: O_11  and  C_12
REMARK                            x       y       z     vdW  Elec       q    Type
REMARK                         _______ _______ _______ _____ _____    ______ ____
ROOT
ATOM      1  O   UNL     1       2.680   8.337  17.226  0.00  0.00    +0.000 OA
ATOM      2  C   UNL     1       2.369   7.872  18.322  0.00  0.00    +0.000 C 
ATOM      3  N   UNL     1       2.734   6.595  18.691  0.00  0.00    +0.000 N 
ATOM      4  N   UNL     1       1.629   8.566  19.291  0.00  0.00    +0.000 N 
ATOM      5  S   UNL     1       1.097  10.188  18.971  0.00  0.00    +0.000 S 
ATOM      6  C   UNL     1       0.393  10.315  20.595  0.00  0.00    +0.000 A 
ATOM      7  N   UNL     1      -0.218  11.416  21.065  0.00  0.00    +0.000 NA
ATOM      8  C   UNL     1      -0.677  11.328  22.338  0.00  0.00    +0.000 A 
ATOM      9  C   UNL     1      -0.549  10.192  23.141  0.00  0.00    +0.000 A 
ATOM     10  C   UNL     1       0.090   9.070  22.618  0.00  0.00    +0.000 A 
ATOM     11  C   UNL     1       0.562   9.150  21.318  0.00  0.00    +0.000 A 
ATOM     12  C   UNL     1       1.270   8.113  20.567  0.00  0.00    +0.000 A 
ATOM     13  O   UNL     1       1.481   7.008  21.046  0.00  0.00    +0.000 OA
ATOM     14  H   UNL     1       2.460   6.264  19.614  0.00  0.00    +0.000 HD
ENDROOT
BRANCH   3  15
ATOM     15  C   UNL     1       3.431   5.667  17.821  0.00  0.00    +0.000 C 
BRANCH  15  16
ATOM     16  C   UNL     1       4.939   5.643  18.005  0.00  0.00    +0.000 A 
ATOM     17  C   UNL     1       5.477   5.416  19.294  0.00  0.00    +0.000 A 
ATOM     18  C   UNL     1       6.849   5.465  19.547  0.00  0.00    +0.000 A 
ATOM     19  C   UNL     1       7.731   5.722  18.510  0.00  0.00    +0.000 A 
ATOM     20  C   UNL     1       7.232   5.934  17.228  0.00  0.00    +0.000 A 
ATOM     21  C   UNL     1       5.850   5.896  16.961  0.00  0.00    +0.000 A 
BRANCH  21  22
ATOM     22  O   UNL     1       5.577   6.257  15.671  0.00  0.00    +0.000 OA
BRANCH  22  23
ATOM     23  C   UNL     1       5.578   5.256  14.674  0.00  0.00    +0.000 C 
ATOM     24  F   UNL     1       6.799   5.255  14.088  0.00  0.00    +0.000 F 
ATOM     25  F   UNL     1       5.460   4.060  15.309  0.00  0.00    +0.000 F 
ENDBRANCH  22  23
ENDBRANCH  21  22
ENDBRANCH  15  16
ENDBRANCH   3  15
TORSDOF 4
ENDMDL
MODEL 4
REMARK VINA RESULT:      -7.9      1.592      1.822
REMARK  Name = 
REMARK  4 active torsions:
REMARK  status: ('A' for Active; 'I' for Inactive)
REMARK    1  A    between atoms: N_3  and  C_4
REMARK    2  A    between atoms: C_4  and  C_5
REMARK    3  A    between atoms: C_10  and  O_11
REMARK    4  A    between atoms: O_11  and  C_12
REMARK                            x       y       z     vdW  Elec       q    Type
REMARK                         _______ _______ _______ _____ _____    ______ ____
ROOT
ATOM      1  O   UNL     1       2.014   8.876  17.706  0.00  0.00    +0.000 OA
ATOM      2  C   UNL     1       1.726   8.652  18.882  0.00  0.00    +0.000 C 
ATOM      3  N   UNL     1       2.209   7.543  19.542  0.00  0.00    +0.000 N 
ATOM      4  N   UNL     1       0.895   9.474  19.659  0.00  0.00    +0.000 N 
ATOM      5  S   UNL     1       0.209  10.910  18.965  0.00  0.00    +0.000 S 
ATOM      6  C   UNL     1      -0.542  11.341  20.513  0.00  0.00    +0.000 A 
ATOM      7  N   UNL     1      -1.273  12.453  20.709  0.00  0.00    +0.000 NA
ATOM      8  C   UNL     1      -1.751  12.619  21.967  0.00  0.00    +0.000 A 
ATOM      9  C   UNL     1      -1.528  11.724  23.016  0.00  0.00    +0.000 A 
ATOM     10  C   UNL     1      -0.766  10.583  22.773  0.00  0.00    +0.000 A 
ATOM     11  C   UNL     1      -0.273  10.404  21.491  0.00  0.00    +0.000 A 
ATOM     12  C   UNL     1       0.554   9.299  21.007  0.00  0.00    +0.000 A 
ATOM     13  O   UNL     1       0.865   8.366  21.733  0.00  0.00    +0.000 OA
ATOM     14  H   UNL     1       1.948   7.412  20.518  0.00  0.00    +0.000 HD
ENDROOT
BRANCH   3  15
ATOM     15  C   UNL     1       3.018   6.514  18.916  0.00  0.00    +0.000 C 
BRANCH  15  16
ATOM     16  C   UNL     1       2.938   5.154  19.588  0.00  0.00    +0.000 A 
ATOM     17  C   UNL     1       2.067   4.974  20.688  0.00  0.00    +0.000 A 
ATOM     18  C   UNL     1       2.007   3.776  21.403  0.00  0.00    +0.000 A 
ATOM     19  C   UNL     1       2.806   2.709  21.024  0.00  0.00    +0.000 A 
ATOM     20  C   UNL     1       3.661   2.852  19.935  0.00  0.00    +0.000 A 
ATOM     21  C   UNL     1       3.738   4.056  19.212  0.00  0.00    +0.000 A 
BRANCH  21  22
ATOM     22  O   UNL     1       4.729   4.017  18.271  0.00  0.00    +0.000 OA
BRANCH  22  23
ATOM     23  C   UNL     1       4.379   3.748  16.930  0.00  0.00    +0.000 C 
ATOM     24  F   UNL     1       3.039   3.550  16.883  0.00  0.00    +0.000 F 
ATOM     25  F   UNL     1       4.620   4.881  16.219  0.00  0.00    +0.000 F 
ENDBRANCH  22  23
ENDBRANCH  21  22
ENDBRANCH  15  16
ENDBRANCH   3  15
TORSDOF 4
ENDMDL
MODEL 5
REMARK VINA RESULT:      -7.8      2.311      3.582
REMARK  Name = 
REMARK  4 active torsions:
REMARK  status: ('A' for Active; 'I' for Inactive)
REMARK    1  A    between atoms: N_3  and  C_4
REMARK    2  A    between atoms: C_4  and  C_5
REMARK    3  A    between atoms: C_10  and  O_11
REMARK    4  A    between atoms: O_11  and  C_12
REMARK                            x       y       z     vdW  Elec       q    Type
REMARK                         _______ _______ _______ _____ _____    ______ ____
ROOT
ATOM      1  O   UNL     1       2.741   5.128  20.533  0.00  0.00    +0.000 OA
ATOM      2  C   UNL     1       2.802   5.948  19.617  0.00  0.00    +0.000 C 
ATOM      3  N   UNL     1       3.481   5.674  18.449  0.00  0.00    +0.000 N 
ATOM      4  N   UNL     1       2.206   7.218  19.657  0.00  0.00    +0.000 N 
ATOM      5  S   UNL     1       1.313   7.708  21.064  0.00  0.00    +0.000 S 
ATOM      6  C   UNL     1       0.877   9.245  20.295  0.00  0.00    +0.000 A 
ATOM      7  N   UNL     1       0.105  10.183  20.873  0.00  0.00    +0.000 NA
ATOM      8  C   UNL     1      -0.133  11.285  20.120  0.00  0.00    +0.000 A 
ATOM      9  C   UNL     1       0.368  11.477  18.831  0.00  0.00    +0.000 A 
ATOM     10  C   UNL     1       1.164  10.484  18.265  0.00  0.00    +0.000 A 
ATOM     11  C   UNL     1       1.414   9.353  19.027  0.00  0.00    +0.000 A 
ATOM     12  C   UNL     1       2.205   8.184  18.643  0.00  0.00    +0.000 A 
ATOM     13  O   UNL     1       2.776   8.124  17.563  0.00  0.00    +0.000 OA
ATOM     14  H   UNL     1       3.490   6.384  17.720  0.00  0.00    +0.000 HD
ENDROOT
BRANCH   3  15
ATOM     15  C   UNL     1       4.240   4.459  18.218  0.00  0.00    +0.000 C 
BRANCH  15  16
ATOM     16  C   UNL     1       5.216   4.538  17.057  0.00  0.00    +0.000 A 
ATOM     17  C   UNL     1       4.727   4.450  15.732  0.00  0.00    +0.000 A 
ATOM     18  C   UNL     1       5.577   4.432  14.624  0.00  0.00    +0.000 A 
ATOM     19  C   UNL     1       6.947   4.523  14.807  0.00  0.00    +0.000 A 
ATOM     20  C   UNL     1       7.457   4.627  16.099  0.00  0.00    +0.000 A 
ATOM     21  C   UNL     1       6.612   4.638  17.225  0.00  0.00    +0.000 A 
BRANCH  21  22
ATOM     22  O   UNL     1       7.326   4.616  18.390  0.00  0.00    +0.000 OA
BRANCH  22  23
ATOM     23  C   UNL     1       7.388   5.794  19.167  0.00  0.00    +0.000 C 
ATOM     24  F   UNL     1       7.989   5.485  20.342  0.00  0.00    +0.000 F 
ATOM     25  F   UNL     1       8.224   6.652  18.527  0.00  0.00    +0.000 F 
ENDBRANCH  22  23
ENDBRANCH  21  22
ENDBRANCH  15  16
ENDBRANCH   3  15
TORSDOF 4
ENDMDL
MODEL 6
REMARK VINA RESULT:      -7.8      1.228      1.410
REMARK  Name = 
REMARK  4 active torsions:
REMARK  status: ('A' for Active; 'I' for Inactive)
REMARK    1  A    between atoms: N_3  and  C_4
REMARK    2  A    between atoms: C_4  and  C_5
REMARK    3  A    between atoms: C_10  and  O_11
REMARK    4  A    between atoms: O_11  and  C_12
REMARK                            x       y       z     vdW  Elec       q    Type
REMARK                         _______ _______ _______ _____ _____    ______ ____
ROOT
ATOM      1  O   UNL     1       2.569   7.840  17.893  0.00  0.00    +0.000 OA
ATOM      2  C   UNL     1       2.214   7.828  19.071  0.00  0.00    +0.000 C 
ATOM      3  N   UNL     1       2.653   6.856  19.944  0.00  0.00    +0.000 N 
ATOM      4  N   UNL     1       1.348   8.772  19.643  0.00  0.00    +0.000 N 
ATOM      5  S   UNL     1       0.711  10.060  18.667  0.00  0.00    +0.000 S 
ATOM      6  C   UNL     1      -0.122  10.757  20.070  0.00  0.00    +0.000 A 
ATOM      7  N   UNL     1      -0.856  11.884  20.024  0.00  0.00    +0.000 NA
ATOM      8  C   UNL     1      -1.401  12.269  21.204  0.00  0.00    +0.000 A 
ATOM      9  C   UNL     1      -1.242  11.576  22.406  0.00  0.00    +0.000 A 
ATOM     10  C   UNL     1      -0.476  10.413  22.413  0.00  0.00    +0.000 A 
ATOM     11  C   UNL     1       0.086  10.010  21.212  0.00  0.00    +0.000 A 
ATOM     12  C   UNL     1       0.932   8.839  20.979  0.00  0.00    +0.000 A 
ATOM     13  O   UNL     1       1.195   8.051  21.876  0.00  0.00    +0.000 OA
ATOM     14  H   UNL     1       2.337   6.899  20.912  0.00  0.00    +0.000 HD
ENDROOT
BRANCH   3  15
ATOM     15  C   UNL     1       3.488   5.734  19.557  0.00  0.00    +0.000 C 
BRANCH  15  16
ATOM     16  C   UNL     1       2.723   4.467  19.219  0.00  0.00    +0.000 A 
ATOM     17  C   UNL     1       1.475   4.223  19.839  0.00  0.00    +0.000 A 
ATOM     18  C   UNL     1       0.761   3.040  19.637  0.00  0.00    +0.000 A 
ATOM     19  C   UNL     1       1.265   2.070  18.787  0.00  0.00    +0.000 A 
ATOM     20  C   UNL     1       2.483   2.288  18.150  0.00  0.00    +0.000 A 
ATOM     21  C   UNL     1       3.218   3.472  18.352  0.00  0.00    +0.000 A 
BRANCH  21  22
ATOM     22  O   UNL     1       4.436   3.420  17.734  0.00  0.00    +0.000 OA
BRANCH  22  23
ATOM     23  C   UNL     1       4.559   3.959  16.434  0.00  0.00    +0.000 C 
ATOM     24  F   UNL     1       4.610   5.308  16.547  0.00  0.00    +0.000 F 
ATOM     25  F   UNL     1       5.770   3.572  15.954  0.00  0.00    +0.000 F 
ENDBRANCH  22  23
ENDBRANCH  21  22
ENDBRANCH  15  16
ENDBRANCH   3  15
TORSDOF 4
ENDMDL
MODEL 7
REMARK VINA RESULT:      -7.8      2.397      3.663
REMARK  Name = 
REMARK  4 active torsions:
REMARK  status: ('A' for Active; 'I' for Inactive)
REMARK    1  A    between atoms: N_3  and  C_4
REMARK    2  A    between atoms: C_4  and  C_5
REMARK    3  A    between atoms: C_10  and  O_11
REMARK    4  A    between atoms: O_11  and  C_12
REMARK                            x       y       z     vdW  Elec       q    Type
REMARK                         _______ _______ _______ _____ _____    ______ ____
ROOT
ATOM      1  O   UNL     1       2.667   5.312  20.543  0.00  0.00    +0.000 OA
ATOM      2  C   UNL     1       2.711   6.140  19.633  0.00  0.00    +0.000 C 
ATOM      3  N   UNL     1       3.382   5.881  18.458  0.00  0.00    +0.000 N 
ATOM      4  N   UNL     1       2.103   7.403  19.688  0.00  0.00    +0.000 N 
ATOM      5  S   UNL     1       1.219   7.874  21.107  0.00  0.00    +0.000 S 
ATOM      6  C   UNL     1       0.760   9.413  20.353  0.00  0.00    +0.000 A 
ATOM      7  N   UNL     1      -0.015  10.338  20.946  0.00  0.00    +0.000 NA
ATOM      8  C   UNL     1      -0.271  11.443  20.203  0.00  0.00    +0.000 A 
ATOM      9  C   UNL     1       0.216  11.651  18.911  0.00  0.00    +0.000 A 
ATOM     10  C   UNL     1       1.017  10.669  18.330  0.00  0.00    +0.000 A 
ATOM     11  C   UNL     1       1.285   9.535  19.081  0.00  0.00    +0.000 A 
ATOM     12  C   UNL     1       2.083   8.377  18.681  0.00  0.00    +0.000 A 
ATOM     13  O   UNL     1       2.645   8.331  17.596  0.00  0.00    +0.000 OA
ATOM     14  H   UNL     1       3.377   6.597  17.733  0.00  0.00    +0.000 HD
ENDROOT
BRANCH   3  15
ATOM     15  C   UNL     1       4.151   4.675  18.210  0.00  0.00    +0.000 C 
BRANCH  15  16
ATOM     16  C   UNL     1       5.106   4.769  17.034  0.00  0.00    +0.000 A 
ATOM     17  C   UNL     1       5.054   3.785  16.017  0.00  0.00    +0.000 A 
ATOM     18  C   UNL     1       5.958   3.765  14.953  0.00  0.00    +0.000 A 
ATOM     19  C   UNL     1       6.933   4.745  14.861  0.00  0.00    +0.000 A 
ATOM     20  C   UNL     1       6.999   5.734  15.837  0.00  0.00    +0.000 A 
ATOM     21  C   UNL     1       6.100   5.762  16.920  0.00  0.00    +0.000 A 
BRANCH  21  22
ATOM     22  O   UNL     1       6.426   6.737  17.821  0.00  0.00    +0.000 OA
BRANCH  22  23
ATOM     23  C   UNL     1       7.644   7.431  17.656  0.00  0.00    +0.000 C 
ATOM     24  F   UNL     1       7.373   8.758  17.684  0.00  0.00    +0.000 F 
ATOM     25  F   UNL     1       8.402   7.175  18.754  0.00  0.00    +0.000 F 
ENDBRANCH  22  23
ENDBRANCH  21  22
ENDBRANCH  15  16
ENDBRANCH   3  15
TORSDOF 4
ENDMDL
MODEL 8
REMARK VINA RESULT:      -7.7      5.067      7.989
REMARK  Name = 
REMARK  4 active torsions:
REMARK  status: ('A' for Active; 'I' for Inactive)
REMARK    1  A    between atoms: N_3  and  C_4
REMARK    2  A    between atoms: C_4  and  C_5
REMARK    3  A    between atoms: C_10  and  O_11
REMARK    4  A    between atoms: O_11  and  C_12
REMARK                            x       y       z     vdW  Elec       q    Type
REMARK                         _______ _______ _______ _____ _____    ______ ____
ROOT
ATOM      1  O   UNL     1       6.664   5.176  19.030  0.00  0.00    +0.000 OA
ATOM      2  C   UNL     1       6.160   4.426  18.194  0.00  0.00    +0.000 C 
ATOM      3  N   UNL     1       5.238   3.466  18.551  0.00  0.00    +0.000 N 
ATOM      4  N   UNL     1       6.461   4.460  16.824  0.00  0.00    +0.000 N 
ATOM      5  S   UNL     1       7.607   5.617  16.221  0.00  0.00    +0.000 S 
ATOM      6  C   UNL     1       7.334   5.072  14.555  0.00  0.00    +0.000 A 
ATOM      7  N   UNL     1       7.941   5.606  13.480  0.00  0.00    +0.000 NA
ATOM      8  C   UNL     1       7.590   5.067  12.287  0.00  0.00    +0.000 A 
ATOM      9  C   UNL     1       6.669   4.028  12.136  0.00  0.00    +0.000 A 
ATOM     10  C   UNL     1       6.061   3.499  13.273  0.00  0.00    +0.000 A 
ATOM     11  C   UNL     1       6.413   4.044  14.498  0.00  0.00    +0.000 A 
ATOM     12  C   UNL     1       5.903   3.664  15.815  0.00  0.00    +0.000 A 
ATOM     13  O   UNL     1       5.101   2.751  15.952  0.00  0.00    +0.000 OA
ATOM     14  H   UNL     1       4.844   2.880  17.817  0.00  0.00    +0.000 HD
ENDROOT
BRANCH   3  15
ATOM     15  C   UNL     1       4.836   3.196  19.919  0.00  0.00    +0.000 C 
BRANCH  15  16
ATOM     16  C   UNL     1       3.341   3.294  20.167  0.00  0.00    +0.000 A 
ATOM     17  C   UNL     1       2.775   2.614  21.272  0.00  0.00    +0.000 A 
ATOM     18  C   UNL     1       1.399   2.594  21.508  0.00  0.00    +0.000 A 
ATOM     19  C   UNL     1       0.545   3.274  20.656  0.00  0.00    +0.000 A 
ATOM     20  C   UNL     1       1.075   3.965  19.569  0.00  0.00    +0.000 A 
ATOM     21  C   UNL     1       2.459   3.986  19.314  0.00  0.00    +0.000 A 
BRANCH  21  22
ATOM     22  O   UNL     1       2.744   4.611  18.133  0.00  0.00    +0.000 OA
BRANCH  22  23
ATOM     23  C   UNL     1       2.815   6.021  18.114  0.00  0.00    +0.000 C 
ATOM     24  F   UNL     1       3.264   6.431  19.325  0.00  0.00    +0.000 F 
ATOM     25  F   UNL     1       3.780   6.361  17.218  0.00  0.00    +0.000 F 
ENDBRANCH  22  23
ENDBRANCH  21  22
ENDBRANCH  15  16
ENDBRANCH   3  15
TORSDOF 4
ENDMDL
MODEL 9
REMARK VINA RESULT:      -7.7      2.423      2.982
REMARK  Name = 
REMARK  4 active torsions:
REMARK  status: ('A' for Active; 'I' for Inactive)
REMARK    1  A    between atoms: N_3  and  C_4
REMARK    2  A    between atoms: C_4  and  C_5
REMARK    3  A    between atoms: C_10  and  O_11
REMARK    4  A    between atoms: O_11  and  C_12
REMARK                            x       y       z     vdW  Elec       q    Type
REMARK                         _______ _______ _______ _____ _____    ______ ____
ROOT
ATOM      1  O   UNL     1       2.002   9.647  17.223  0.00  0.00    +0.000 OA
ATOM      2  C   UNL     1       1.840   9.088  18.308  0.00  0.00    +0.000 C 
ATOM      3  N   UNL     1       2.458   7.891  18.600  0.00  0.00    +0.000 N 
ATOM      4  N   UNL     1       1.030   9.590  19.338  0.00  0.00    +0.000 N 
ATOM      5  S   UNL     1       0.185  11.091  19.118  0.00  0.00    +0.000 S 
ATOM      6  C   UNL     1      -0.448  11.018  20.773  0.00  0.00    +0.000 A 
ATOM      7  N   UNL     1      -1.233  11.963  21.320  0.00  0.00    +0.000 NA
ATOM      8  C   UNL     1      -1.603  11.739  22.605  0.00  0.00    +0.000 A 
ATOM      9  C   UNL     1      -1.223  10.619  23.347  0.00  0.00    +0.000 A 
ATOM     10  C   UNL     1      -0.409   9.661  22.746  0.00  0.00    +0.000 A 
ATOM     11  C   UNL     1      -0.026   9.880  21.433  0.00  0.00    +0.000 A 
ATOM     12  C   UNL     1       0.828   9.027  20.605  0.00  0.00    +0.000 A 
ATOM     13  O   UNL     1       1.268   7.966  21.022  0.00  0.00    +0.000 OA
ATOM     14  H   UNL     1       2.297   7.479  19.517  0.00  0.00    +0.000 HD
ENDROOT
BRANCH   3  15
ATOM     15  C   UNL     1       3.275   7.148  17.659  0.00  0.00    +0.000 C 
BRANCH  15  16
ATOM     16  C   UNL     1       3.921   5.901  18.235  0.00  0.00    +0.000 A 
ATOM     17  C   UNL     1       5.323   5.737  18.136  0.00  0.00    +0.000 A 
ATOM     18  C   UNL     1       5.970   4.577  18.569  0.00  0.00    +0.000 A 
ATOM     19  C   UNL     1       5.233   3.550  19.136  0.00  0.00    +0.000 A 
ATOM     20  C   UNL     1       3.854   3.689  19.261  0.00  0.00    +0.000 A 
ATOM     21  C   UNL     1       3.188   4.849  18.820  0.00  0.00    +0.000 A 
BRANCH  21  22
ATOM     22  O   UNL     1       1.831   4.719  18.920  0.00  0.00    +0.000 OA
BRANCH  22  23
ATOM     23  C   UNL     1       1.299   3.999  20.012  0.00  0.00    +0.000 C 
ATOM     24  F   UNL     1       0.539   4.852  20.741  0.00  0.00    +0.000 F 
ATOM     25  F   UNL     1       0.445   3.073  19.501  0.00  0.00    +0.000 F 
ENDBRANCH  22  23
ENDBRANCH  21  22
ENDBRANCH  15  16
ENDBRANCH   3  15
TORSDOF 4
ENDMDL
