MODEL 1
REMARK VINA RESULT:      -6.7      0.000      0.000
REMARK  Name = 
REMARK  11 active torsions:
REMARK  status: ('A' for Active; 'I' for Inactive)
REMARK    1  A    between atoms: C_1  and  C_2
REMARK    2  A    between atoms: C_2  and  C_22
REMARK    3  A    between atoms: N_3  and  N_4
REMARK    4  A    between atoms: C_5  and  S_6
REMARK    5  A    between atoms: N_7  and  N_8
REMARK    6  A    between atoms: C_9  and  S_10
REMARK    7  A    between atoms: N_11  and  C_12
REMARK    8  A    between atoms: C_15  and  C_16
REMARK    9  A    between atoms: C_16  and  C_17
REMARK   10  A    between atoms: C_16  and  C_18
REMARK   11  A    between atoms: C_16  and  C_19
REMARK                            x       y       z     vdW  Elec       q    Type
REMARK                         _______ _______ _______ _____ _____    ______ ____
ROOT
ATOM      1  N   UNL     1       0.215   9.634  18.999  0.00  0.00    +0.000 NA
ATOM      2  C   UNL     1       1.452   9.771  18.632  0.00  0.00    +0.000 C 
ATOM      3  N   UNL     1       2.423   8.813  18.717  0.00  0.00    +0.000 N 
ATOM      4  H   UNL     1       3.340   9.110  18.415  0.00  0.00    +0.000 HD
ENDROOT
BRANCH   3   5
ATOM      5  C   UNL     1       2.280   7.428  18.912  0.00  0.00    +0.000 A 
ATOM      6  C   UNL     1       2.013   6.967  20.205  0.00  0.00    +0.000 A 
ATOM      7  C   UNL     1       1.885   5.600  20.487  0.00  0.00    +0.000 A 
ATOM      8  C   UNL     1       2.001   4.632  19.481  0.00  0.00    +0.000 A 
ATOM      9  C   UNL     1       2.294   5.097  18.188  0.00  0.00    +0.000 A 
ATOM     10  C   UNL     1       2.426   6.467  17.911  0.00  0.00    +0.000 A 
BRANCH   8  11
ATOM     11  C   UNL     1       1.776   3.134  19.744  0.00  0.00    +0.000 C 
ATOM     12  C   UNL     1       1.316   2.831  21.187  0.00  0.00    +0.000 C 
ATOM     13  C   UNL     1       0.673   2.614  18.793  0.00  0.00    +0.000 C 
ATOM     14  C   UNL     1       3.068   2.328  19.496  0.00  0.00    +0.000 C 
ENDBRANCH   8  11
ENDBRANCH   3   5
BRANCH   1  17
ATOM     15  N   UNL     1      -2.293  12.163  19.492  0.00  0.00    +0.000 NA
ATOM     16  C   UNL     1      -1.337  11.327  19.800  0.00  0.00    +0.000 C 
ATOM     17  N   UNL     1      -0.690  10.630  18.803  0.00  0.00    +0.000 N 
ATOM     18  H   UNL     1      -1.166  10.706  17.908  0.00  0.00    +0.000 HD
BRANCH  15  21
ATOM     19  C   UNL     1      -5.033  12.149  19.475  0.00  0.00    +0.000 C 
ATOM     20  C   UNL     1      -4.191  12.813  20.547  0.00  0.00    +0.000 C 
ATOM     21  N   UNL     1      -2.890  12.825  20.563  0.00  0.00    +0.000 NA
BRANCH  20  22
ATOM     22  C   UNL     1      -4.940  13.481  21.659  0.00  0.00    +0.000 A 
ATOM     23  C   UNL     1      -5.052  14.866  21.705  0.00  0.00    +0.000 A 
ATOM     24  C   UNL     1      -5.751  15.442  22.764  0.00  0.00    +0.000 A 
ATOM     25  C   UNL     1      -6.312  14.621  23.738  0.00  0.00    +0.000 A 
ATOM     26  C   UNL     1      -6.150  13.251  23.610  0.00  0.00    +0.000 A 
ATOM     27  N   UNL     1      -5.481  12.661  22.598  0.00  0.00    +0.000 NA
ENDBRANCH  20  22
ENDBRANCH  15  21
BRANCH  16  28
ATOM     28  S   UNL     1      -0.836  11.042  21.467  0.00  0.00    +0.000 S 
ATOM     29  H   UNL     1      -0.282  12.255  21.583  0.00  0.00    +0.000 HD
ENDBRANCH  16  28
ENDBRANCH   1  17
BRANCH   2  30
ATOM     30  S   UNL     1       2.085  11.265  17.933  0.00  0.00    +0.000 S 
ATOM     31  H   UNL     1       3.366  10.890  17.890  0.00  0.00    +0.000 HD
ENDBRANCH   2  30
TORSDOF 7
ENDMDL
MODEL 2
REMARK VINA RESULT:      -6.7      4.687     11.597
REMARK  Name = 
REMARK  11 active torsions:
REMARK  status: ('A' for Active; 'I' for Inactive)
REMARK    1  A    between atoms: C_1  and  C_2
REMARK    2  A    between atoms: C_2  and  C_22
REMARK    3  A    between atoms: N_3  and  N_4
REMARK    4  A    between atoms: C_5  and  S_6
REMARK    5  A    between atoms: N_7  and  N_8
REMARK    6  A    between atoms: C_9  and  S_10
REMARK    7  A    between atoms: N_11  and  C_12
REMARK    8  A    between atoms: C_15  and  C_16
REMARK    9  A    between atoms: C_16  and  C_17
REMARK   10  A    between atoms: C_16  and  C_18
REMARK   11  A    between atoms: C_16  and  C_19
REMARK                            x       y       z     vdW  Elec       q    Type
REMARK                         _______ _______ _______ _____ _____    ______ ____
ROOT
ATOM      1  N   UNL     1       2.996   6.340  20.055  0.00  0.00    +0.000 NA
ATOM      2  C   UNL     1       1.858   5.981  20.562  0.00  0.00    +0.000 C 
ATOM      3  N   UNL     1       0.924   6.818  21.108  0.00  0.00    +0.000 N 
ATOM      4  H   UNL     1       0.110   6.356  21.487  0.00  0.00    +0.000 HD
ENDROOT
BRANCH   3   5
ATOM      5  C   UNL     1       0.816   8.214  20.988  0.00  0.00    +0.000 A 
ATOM      6  C   UNL     1       0.178   8.918  22.014  0.00  0.00    +0.000 A 
ATOM      7  C   UNL     1       0.005  10.308  21.954  0.00  0.00    +0.000 A 
ATOM      8  C   UNL     1       0.479  11.059  20.871  0.00  0.00    +0.000 A 
ATOM      9  C   UNL     1       1.097  10.345  19.830  0.00  0.00    +0.000 A 
ATOM     10  C   UNL     1       1.264   8.953  19.892  0.00  0.00    +0.000 A 
BRANCH   8  11
ATOM     11  C   UNL     1       0.384  12.593  20.821  0.00  0.00    +0.000 C 
ATOM     12  C   UNL     1       1.756  13.282  20.654  0.00  0.00    +0.000 C 
ATOM     13  C   UNL     1      -0.487  13.008  19.614  0.00  0.00    +0.000 C 
ATOM     14  C   UNL     1      -0.255  13.150  22.111  0.00  0.00    +0.000 C 
ENDBRANCH   8  11
ENDBRANCH   3   5
BRANCH   1  17
ATOM     15  N   UNL     1       4.814   4.372  17.656  0.00  0.00    +0.000 NA
ATOM     16  C   UNL     1       4.122   5.376  18.125  0.00  0.00    +0.000 C 
ATOM     17  N   UNL     1       3.822   5.432  19.469  0.00  0.00    +0.000 N 
ATOM     18  H   UNL     1       4.024   4.557  19.947  0.00  0.00    +0.000 HD
BRANCH  15  21
ATOM     19  C   UNL     1       7.457   4.636  16.983  0.00  0.00    +0.000 C 
ATOM     20  C   UNL     1       6.328   4.523  15.977  0.00  0.00    +0.000 C 
ATOM     21  N   UNL     1       5.071   4.398  16.287  0.00  0.00    +0.000 NA
BRANCH  20  22
ATOM     22  C   UNL     1       6.725   4.546  14.532  0.00  0.00    +0.000 A 
ATOM     23  C   UNL     1       6.107   3.703  13.615  0.00  0.00    +0.000 A 
ATOM     24  C   UNL     1       6.516   3.753  12.284  0.00  0.00    +0.000 A 
ATOM     25  C   UNL     1       7.524   4.639  11.914  0.00  0.00    +0.000 A 
ATOM     26  C   UNL     1       8.082   5.442  12.895  0.00  0.00    +0.000 A 
ATOM     27  N   UNL     1       7.709   5.419  14.191  0.00  0.00    +0.000 NA
ENDBRANCH  20  22
ENDBRANCH  15  21
BRANCH  16  28
ATOM     28  S   UNL     1       3.536   6.681  17.093  0.00  0.00    +0.000 S 
ATOM     29  H   UNL     1       4.650   7.405  17.254  0.00  0.00    +0.000 HD
ENDBRANCH  16  28
ENDBRANCH   1  17
BRANCH   2  30
ATOM     30  S   UNL     1       1.319   4.300  20.614  0.00  0.00    +0.000 S 
ATOM     31  H   UNL     1       0.333   4.420  19.721  0.00  0.00    +0.000 HD
ENDBRANCH   2  30
TORSDOF 7
ENDMDL
MODEL 3
REMARK VINA RESULT:      -6.6      4.747     11.645
REMARK  Name = 
REMARK  11 active torsions:
REMARK  status: ('A' for Active; 'I' for Inactive)
REMARK    1  A    between atoms: C_1  and  C_2
REMARK    2  A    between atoms: C_2  and  C_22
REMARK    3  A    between atoms: N_3  and  N_4
REMARK    4  A    between atoms: C_5  and  S_6
REMARK    5  A    between atoms: N_7  and  N_8
REMARK    6  A    between atoms: C_9  and  S_10
REMARK    7  A    between atoms: N_11  and  C_12
REMARK    8  A    between atoms: C_15  and  C_16
REMARK    9  A    between atoms: C_16  and  C_17
REMARK   10  A    between atoms: C_16  and  C_18
REMARK   11  A    between atoms: C_16  and  C_19
REMARK                            x       y       z     vdW  Elec       q    Type
REMARK                         _______ _______ _______ _____ _____    ______ ____
ROOT
ATOM      1  N   UNL     1       3.155   6.242  20.042  0.00  0.00    +0.000 NA
ATOM      2  C   UNL     1       2.060   5.908  20.651  0.00  0.00    +0.000 C 
ATOM      3  N   UNL     1       1.174   6.769  21.236  0.00  0.00    +0.000 N 
ATOM      4  H   UNL     1       0.391   6.325  21.696  0.00  0.00    +0.000 HD
ENDROOT
BRANCH   3   5
ATOM      5  C   UNL     1       1.058   8.159  21.071  0.00  0.00    +0.000 A 
ATOM      6  C   UNL     1       1.246   8.691  19.792  0.00  0.00    +0.000 A 
ATOM      7  C   UNL     1       1.176  10.071  19.551  0.00  0.00    +0.000 A 
ATOM      8  C   UNL     1       0.896  10.980  20.580  0.00  0.00    +0.000 A 
ATOM      9  C   UNL     1       0.732  10.444  21.869  0.00  0.00    +0.000 A 
ATOM     10  C   UNL     1       0.808   9.063  22.106  0.00  0.00    +0.000 A 
BRANCH   8  11
ATOM     11  C   UNL     1       0.723  12.487  20.329  0.00  0.00    +0.000 C 
ATOM     12  C   UNL     1      -0.016  12.803  19.010  0.00  0.00    +0.000 C 
ATOM     13  C   UNL     1      -0.109  13.099  21.479  0.00  0.00    +0.000 C 
ATOM     14  C   UNL     1       2.091  13.199  20.271  0.00  0.00    +0.000 C 
ENDBRANCH   8  11
ENDBRANCH   3   5
BRANCH   1  17
ATOM     15  N   UNL     1       4.859   4.247  17.583  0.00  0.00    +0.000 NA
ATOM     16  C   UNL     1       4.220   5.272  18.082  0.00  0.00    +0.000 C 
ATOM     17  N   UNL     1       3.931   5.309  19.428  0.00  0.00    +0.000 N 
ATOM     18  H   UNL     1       4.092   4.413  19.883  0.00  0.00    +0.000 HD
BRANCH  15  21
ATOM     19  C   UNL     1       7.488   4.612  16.903  0.00  0.00    +0.000 C 
ATOM     20  C   UNL     1       6.360   4.468  15.900  0.00  0.00    +0.000 C 
ATOM     21  N   UNL     1       5.109   4.295  16.213  0.00  0.00    +0.000 NA
BRANCH  20  22
ATOM     22  C   UNL     1       6.750   4.518  14.454  0.00  0.00    +0.000 A 
ATOM     23  C   UNL     1       6.132   3.688  13.525  0.00  0.00    +0.000 A 
ATOM     24  C   UNL     1       6.535   3.764  12.193  0.00  0.00    +0.000 A 
ATOM     25  C   UNL     1       7.537   4.661  11.834  0.00  0.00    +0.000 A 
ATOM     26  C   UNL     1       8.095   5.450  12.827  0.00  0.00    +0.000 A 
ATOM     27  N   UNL     1       7.728   5.402  14.124  0.00  0.00    +0.000 NA
ENDBRANCH  20  22
ENDBRANCH  15  21
BRANCH  16  28
ATOM     28  S   UNL     1       3.696   6.630  17.086  0.00  0.00    +0.000 S 
ATOM     29  H   UNL     1       4.946   7.072  16.905  0.00  0.00    +0.000 HD
ENDBRANCH  16  28
ENDBRANCH   1  17
BRANCH   2  30
ATOM     30  S   UNL     1       1.525   4.232  20.810  0.00  0.00    +0.000 S 
ATOM     31  H   UNL     1       2.223   3.743  19.781  0.00  0.00    +0.000 HD
ENDBRANCH   2  30
TORSDOF 7
ENDMDL
MODEL 4
REMARK VINA RESULT:      -6.6      2.005     10.438
REMARK  Name = 
REMARK  11 active torsions:
REMARK  status: ('A' for Active; 'I' for Inactive)
REMARK    1  A    between atoms: C_1  and  C_2
REMARK    2  A    between atoms: C_2  and  C_22
REMARK    3  A    between atoms: N_3  and  N_4
REMARK    4  A    between atoms: C_5  and  S_6
REMARK    5  A    between atoms: N_7  and  N_8
REMARK    6  A    between atoms: C_9  and  S_10
REMARK    7  A    between atoms: N_11  and  C_12
REMARK    8  A    between atoms: C_15  and  C_16
REMARK    9  A    between atoms: C_16  and  C_17
REMARK   10  A    between atoms: C_16  and  C_18
REMARK   11  A    between atoms: C_16  and  C_19
REMARK                            x       y       z     vdW  Elec       q    Type
REMARK                         _______ _______ _______ _____ _____    ______ ____
ROOT
ATOM      1  N   UNL     1      -0.783  10.655  20.772  0.00  0.00    +0.000 NA
ATOM      2  C   UNL     1      -0.565  11.932  20.730  0.00  0.00    +0.000 C 
ATOM      3  N   UNL     1      -1.517  12.903  20.583  0.00  0.00    +0.000 N 
ATOM      4  H   UNL     1      -1.157  13.846  20.537  0.00  0.00    +0.000 HD
ENDROOT
BRANCH   3   5
ATOM      5  C   UNL     1      -2.909  12.802  20.745  0.00  0.00    +0.000 A 
ATOM      6  C   UNL     1      -3.435  12.924  22.035  0.00  0.00    +0.000 A 
ATOM      7  C   UNL     1      -4.810  12.807  22.282  0.00  0.00    +0.000 A 
ATOM      8  C   UNL     1      -5.724  12.579  21.245  0.00  0.00    +0.000 A 
ATOM      9  C   UNL     1      -5.189  12.433  19.954  0.00  0.00    +0.000 A 
ATOM     10  C   UNL     1      -3.811  12.546  19.711  0.00  0.00    +0.000 A 
BRANCH   8  11
ATOM     11  C   UNL     1      -7.244  12.538  21.474  0.00  0.00    +0.000 C 
ATOM     12  C   UNL     1      -7.645  12.807  22.941  0.00  0.00    +0.000 C 
ATOM     13  C   UNL     1      -7.916  13.626  20.607  0.00  0.00    +0.000 C 
ATOM     14  C   UNL     1      -7.824  11.162  21.085  0.00  0.00    +0.000 C 
ENDBRANCH   8  11
ENDBRANCH   3   5
BRANCH   1  17
ATOM     15  N   UNL     1       1.807   8.196  20.353  0.00  0.00    +0.000 NA
ATOM     16  C   UNL     1       0.954   9.127  20.018  0.00  0.00    +0.000 C 
ATOM     17  N   UNL     1       0.230   9.775  20.995  0.00  0.00    +0.000 N 
ATOM     18  H   UNL     1       0.306   9.317  21.900  0.00  0.00    +0.000 HD
BRANCH  15  21
ATOM     19  C   UNL     1       2.019   5.469  20.520  0.00  0.00    +0.000 C 
ATOM     20  C   UNL     1       2.591   6.301  19.388  0.00  0.00    +0.000 C 
ATOM     21  N   UNL     1       2.495   7.595  19.301  0.00  0.00    +0.000 NA
BRANCH  20  22
ATOM     22  C   UNL     1       3.296   5.546  18.303  0.00  0.00    +0.000 A 
ATOM     23  C   UNL     1       2.992   4.211  18.057  0.00  0.00    +0.000 A 
ATOM     24  C   UNL     1       3.682   3.548  17.043  0.00  0.00    +0.000 A 
ATOM     25  C   UNL     1       4.648   4.235  16.313  0.00  0.00    +0.000 A 
ATOM     26  C   UNL     1       4.883   5.563  16.629  0.00  0.00    +0.000 A 
ATOM     27  N   UNL     1       4.234   6.235  17.601  0.00  0.00    +0.000 NA
ENDBRANCH  20  22
ENDBRANCH  15  21
BRANCH  16  28
ATOM     28  S   UNL     1       0.678   9.591  18.339  0.00  0.00    +0.000 S 
ATOM     29  H   UNL     1       1.910   9.231  17.962  0.00  0.00    +0.000 HD
ENDBRANCH  16  28
ENDBRANCH   1  17
BRANCH   2  30
ATOM     30  S   UNL     1       1.049  12.634  20.874  0.00  0.00    +0.000 S 
ATOM     31  H   UNL     1       0.665  13.823  21.348  0.00  0.00    +0.000 HD
ENDBRANCH   2  30
TORSDOF 7
ENDMDL
MODEL 5
REMARK VINA RESULT:      -6.6      2.184     10.483
REMARK  Name = 
REMARK  11 active torsions:
REMARK  status: ('A' for Active; 'I' for Inactive)
REMARK    1  A    between atoms: C_1  and  C_2
REMARK    2  A    between atoms: C_2  and  C_22
REMARK    3  A    between atoms: N_3  and  N_4
REMARK    4  A    between atoms: C_5  and  S_6
REMARK    5  A    between atoms: N_7  and  N_8
REMARK    6  A    between atoms: C_9  and  S_10
REMARK    7  A    between atoms: N_11  and  C_12
REMARK    8  A    between atoms: C_15  and  C_16
REMARK    9  A    between atoms: C_16  and  C_17
REMARK   10  A    between atoms: C_16  and  C_18
REMARK   11  A    between atoms: C_16  and  C_19
REMARK                            x       y       z     vdW  Elec       q    Type
REMARK                         _______ _______ _______ _____ _____    ______ ____
ROOT
ATOM      1  N   UNL     1      -0.703  10.461  20.531  0.00  0.00    +0.000 NA
ATOM      2  C   UNL     1      -0.472  11.734  20.611  0.00  0.00    +0.000 C 
ATOM      3  N   UNL     1      -1.406  12.726  20.497  0.00  0.00    +0.000 N 
ATOM      4  H   UNL     1      -1.037  13.665  20.552  0.00  0.00    +0.000 HD
ENDROOT
BRANCH   3   5
ATOM      5  C   UNL     1      -2.806  12.630  20.572  0.00  0.00    +0.000 A 
ATOM      6  C   UNL     1      -3.512  12.326  19.405  0.00  0.00    +0.000 A 
ATOM      7  C   UNL     1      -4.911  12.241  19.391  0.00  0.00    +0.000 A 
ATOM      8  C   UNL     1      -5.667  12.441  20.554  0.00  0.00    +0.000 A 
ATOM      9  C   UNL     1      -4.957  12.771  21.720  0.00  0.00    +0.000 A 
ATOM     10  C   UNL     1      -3.556  12.860  21.728  0.00  0.00    +0.000 A 
BRANCH   8  11
ATOM     11  C   UNL     1      -7.194  12.265  20.589  0.00  0.00    +0.000 C 
ATOM     12  C   UNL     1      -7.916  12.979  19.426  0.00  0.00    +0.000 C 
ATOM     13  C   UNL     1      -7.533  10.760  20.485  0.00  0.00    +0.000 C 
ATOM     14  C   UNL     1      -7.784  12.818  21.904  0.00  0.00    +0.000 C 
ENDBRANCH   8  11
ENDBRANCH   3   5
BRANCH   1  17
ATOM     15  N   UNL     1       1.906   8.034  20.044  0.00  0.00    +0.000 NA
ATOM     16  C   UNL     1       1.082   9.004  19.748  0.00  0.00    +0.000 C 
ATOM     17  N   UNL     1       0.289   9.552  20.733  0.00  0.00    +0.000 N 
ATOM     18  H   UNL     1       0.296   9.000  21.587  0.00  0.00    +0.000 HD
BRANCH  15  21
ATOM     19  C   UNL     1       2.418   5.344  20.144  0.00  0.00    +0.000 C 
ATOM     20  C   UNL     1       2.907   6.264  19.043  0.00  0.00    +0.000 C 
ATOM     21  N   UNL     1       2.669   7.542  18.987  0.00  0.00    +0.000 NA
BRANCH  20  22
ATOM     22  C   UNL     1       3.705   5.622  17.949  0.00  0.00    +0.000 A 
ATOM     23  C   UNL     1       4.505   6.391  17.112  0.00  0.00    +0.000 A 
ATOM     24  C   UNL     1       5.221   5.750  16.103  0.00  0.00    +0.000 A 
ATOM     25  C   UNL     1       5.115   4.369  15.963  0.00  0.00    +0.000 A 
ATOM     26  C   UNL     1       4.293   3.684  16.843  0.00  0.00    +0.000 A 
ATOM     27  N   UNL     1       3.588   4.273  17.830  0.00  0.00    +0.000 NA
ENDBRANCH  20  22
ENDBRANCH  15  21
BRANCH  16  28
ATOM     28  S   UNL     1       0.933   9.647  18.113  0.00  0.00    +0.000 S 
ATOM     29  H   UNL     1       0.801  10.908  18.544  0.00  0.00    +0.000 HD
ENDBRANCH  16  28
ENDBRANCH   1  17
BRANCH   2  30
ATOM     30  S   UNL     1       1.137  12.400  20.904  0.00  0.00    +0.000 S 
ATOM     31  H   UNL     1       0.867  13.648  20.510  0.00  0.00    +0.000 HD
ENDBRANCH   2  30
TORSDOF 7
ENDMDL
MODEL 6
REMARK VINA RESULT:      -6.6      2.111     10.522
REMARK  Name = 
REMARK  11 active torsions:
REMARK  status: ('A' for Active; 'I' for Inactive)
REMARK    1  A    between atoms: C_1  and  C_2
REMARK    2  A    between atoms: C_2  and  C_22
REMARK    3  A    between atoms: N_3  and  N_4
REMARK    4  A    between atoms: C_5  and  S_6
REMARK    5  A    between atoms: N_7  and  N_8
REMARK    6  A    between atoms: C_9  and  S_10
REMARK    7  A    between atoms: N_11  and  C_12
REMARK    8  A    between atoms: C_15  and  C_16
REMARK    9  A    between atoms: C_16  and  C_17
REMARK   10  A    between atoms: C_16  and  C_18
REMARK   11  A    between atoms: C_16  and  C_19
REMARK                            x       y       z     vdW  Elec       q    Type
REMARK                         _______ _______ _______ _____ _____    ______ ____
ROOT
ATOM      1  N   UNL     1      -0.654  10.493  20.451  0.00  0.00    +0.000 NA
ATOM      2  C   UNL     1      -0.421  11.763  20.572  0.00  0.00    +0.000 C 
ATOM      3  N   UNL     1      -1.352  12.760  20.485  0.00  0.00    +0.000 N 
ATOM      4  H   UNL     1      -0.981  13.696  20.570  0.00  0.00    +0.000 HD
ENDROOT
BRANCH   3   5
ATOM      5  C   UNL     1      -2.752  12.665  20.554  0.00  0.00    +0.000 A 
ATOM      6  C   UNL     1      -3.365  12.812  21.802  0.00  0.00    +0.000 A 
ATOM      7  C   UNL     1      -4.753  12.701  21.958  0.00  0.00    +0.000 A 
ATOM      8  C   UNL     1      -5.595  12.456  20.865  0.00  0.00    +0.000 A 
ATOM      9  C   UNL     1      -4.975  12.285  19.616  0.00  0.00    +0.000 A 
ATOM     10  C   UNL     1      -3.583  12.392  19.466  0.00  0.00    +0.000 A 
BRANCH   8  11
ATOM     11  C   UNL     1      -7.127  12.421  20.991  0.00  0.00    +0.000 C 
ATOM     12  C   UNL     1      -7.837  13.435  20.067  0.00  0.00    +0.000 C 
ATOM     13  C   UNL     1      -7.635  11.014  20.604  0.00  0.00    +0.000 C 
ATOM     14  C   UNL     1      -7.571  12.730  22.437  0.00  0.00    +0.000 C 
ENDBRANCH   8  11
ENDBRANCH   3   5
BRANCH   1  17
ATOM     15  N   UNL     1       1.939   8.064  19.897  0.00  0.00    +0.000 NA
ATOM     16  C   UNL     1       1.117   9.043  19.627  0.00  0.00    +0.000 C 
ATOM     17  N   UNL     1       0.336   9.577  20.628  0.00  0.00    +0.000 N 
ATOM     18  H   UNL     1       0.348   9.009  21.472  0.00  0.00    +0.000 HD
BRANCH  15  21
ATOM     19  C   UNL     1       2.592   5.406  20.036  0.00  0.00    +0.000 C 
ATOM     20  C   UNL     1       2.996   6.325  18.899  0.00  0.00    +0.000 C 
ATOM     21  N   UNL     1       2.690   7.587  18.825  0.00  0.00    +0.000 NA
BRANCH  20  22
ATOM     22  C   UNL     1       3.788   5.699  17.792  0.00  0.00    +0.000 A 
ATOM     23  C   UNL     1       3.796   4.319  17.620  0.00  0.00    +0.000 A 
ATOM     24  C   UNL     1       4.556   3.783  16.583  0.00  0.00    +0.000 A 
ATOM     25  C   UNL     1       5.280   4.637  15.755  0.00  0.00    +0.000 A 
ATOM     26  C   UNL     1       5.212   5.998  16.002  0.00  0.00    +0.000 A 
ATOM     27  N   UNL     1       4.487   6.550  16.995  0.00  0.00    +0.000 NA
ENDBRANCH  20  22
ENDBRANCH  15  21
BRANCH  16  28
ATOM     28  S   UNL     1       0.956   9.716  18.004  0.00  0.00    +0.000 S 
ATOM     29  H   UNL     1      -0.126  10.432  18.331  0.00  0.00    +0.000 HD
ENDBRANCH  16  28
ENDBRANCH   1  17
BRANCH   2  30
ATOM     30  S   UNL     1       1.189  12.416  20.889  0.00  0.00    +0.000 S 
ATOM     31  H   UNL     1       1.863  11.567  20.108  0.00  0.00    +0.000 HD
ENDBRANCH   2  30
TORSDOF 7
ENDMDL
MODEL 7
REMARK VINA RESULT:      -6.6      0.654      1.562
REMARK  Name = 
REMARK  11 active torsions:
REMARK  status: ('A' for Active; 'I' for Inactive)
REMARK    1  A    between atoms: C_1  and  C_2
REMARK    2  A    between atoms: C_2  and  C_22
REMARK    3  A    between atoms: N_3  and  N_4
REMARK    4  A    between atoms: C_5  and  S_6
REMARK    5  A    between atoms: N_7  and  N_8
REMARK    6  A    between atoms: C_9  and  S_10
REMARK    7  A    between atoms: N_11  and  C_12
REMARK    8  A    between atoms: C_15  and  C_16
REMARK    9  A    between atoms: C_16  and  C_17
REMARK   10  A    between atoms: C_16  and  C_18
REMARK   11  A    between atoms: C_16  and  C_19
REMARK                            x       y       z     vdW  Elec       q    Type
REMARK                         _______ _______ _______ _____ _____    ______ ____
ROOT
ATOM      1  N   UNL     1       0.159   9.650  19.174  0.00  0.00    +0.000 NA
ATOM      2  C   UNL     1       1.381   9.763  18.755  0.00  0.00    +0.000 C 
ATOM      3  N   UNL     1       2.353   8.806  18.851  0.00  0.00    +0.000 N 
ATOM      4  H   UNL     1       3.258   9.084  18.500  0.00  0.00    +0.000 HD
ENDROOT
BRANCH   3   5
ATOM      5  C   UNL     1       2.214   7.434  19.123  0.00  0.00    +0.000 A 
ATOM      6  C   UNL     1       2.367   6.532  18.066  0.00  0.00    +0.000 A 
ATOM      7  C   UNL     1       2.214   5.151  18.250  0.00  0.00    +0.000 A 
ATOM      8  C   UNL     1       1.919   4.608  19.507  0.00  0.00    +0.000 A 
ATOM      9  C   UNL     1       1.742   5.519  20.562  0.00  0.00    +0.000 A 
ATOM     10  C   UNL     1       1.890   6.902  20.372  0.00  0.00    +0.000 A 
BRANCH   8  11
ATOM     11  C   UNL     1       1.837   3.093  19.757  0.00  0.00    +0.000 C 
ATOM     12  C   UNL     1       3.189   2.371  19.567  0.00  0.00    +0.000 C 
ATOM     13  C   UNL     1       1.385   2.844  21.214  0.00  0.00    +0.000 C 
ATOM     14  C   UNL     1       0.824   2.429  18.801  0.00  0.00    +0.000 C 
ENDBRANCH   8  11
ENDBRANCH   3   5
BRANCH   1  17
ATOM     15  N   UNL     1      -2.293  12.239  19.635  0.00  0.00    +0.000 NA
ATOM     16  C   UNL     1      -1.324  11.419  19.943  0.00  0.00    +0.000 C 
ATOM     17  N   UNL     1      -0.751  10.638  18.963  0.00  0.00    +0.000 N 
ATOM     18  H   UNL     1      -1.286  10.649  18.098  0.00  0.00    +0.000 HD
BRANCH  15  21
ATOM     19  C   UNL     1      -5.028  12.410  19.695  0.00  0.00    +0.000 C 
ATOM     20  C   UNL     1      -4.110  13.065  20.709  0.00  0.00    +0.000 C 
ATOM     21  N   UNL     1      -2.812  12.990  20.688  0.00  0.00    +0.000 NA
BRANCH  20  22
ATOM     22  C   UNL     1      -4.779  13.834  21.808  0.00  0.00    +0.000 A 
ATOM     23  C   UNL     1      -5.726  13.223  22.623  0.00  0.00    +0.000 A 
ATOM     24  C   UNL     1      -6.329  13.981  23.625  0.00  0.00    +0.000 A 
ATOM     25  C   UNL     1      -5.969  15.317  23.779  0.00  0.00    +0.000 A 
ATOM     26  C   UNL     1      -5.016  15.840  22.921  0.00  0.00    +0.000 A 
ATOM     27  N   UNL     1      -4.413  15.135  21.942  0.00  0.00    +0.000 NA
ENDBRANCH  20  22
ENDBRANCH  15  21
BRANCH  16  28
ATOM     28  S   UNL     1      -0.713  11.259  21.590  0.00  0.00    +0.000 S 
ATOM     29  H   UNL     1       0.552  11.103  21.181  0.00  0.00    +0.000 HD
ENDBRANCH  16  28
ENDBRANCH   1  17
BRANCH   2  30
ATOM     30  S   UNL     1       1.990  11.216  17.956  0.00  0.00    +0.000 S 
ATOM     31  H   UNL     1       2.211  11.927  19.066  0.00  0.00    +0.000 HD
ENDBRANCH   2  30
TORSDOF 7
ENDMDL
MODEL 8
REMARK VINA RESULT:      -6.6      2.244     10.460
REMARK  Name = 
REMARK  11 active torsions:
REMARK  status: ('A' for Active; 'I' for Inactive)
REMARK    1  A    between atoms: C_1  and  C_2
REMARK    2  A    between atoms: C_2  and  C_22
REMARK    3  A    between atoms: N_3  and  N_4
REMARK    4  A    between atoms: C_5  and  S_6
REMARK    5  A    between atoms: N_7  and  N_8
REMARK    6  A    between atoms: C_9  and  S_10
REMARK    7  A    between atoms: N_11  and  C_12
REMARK    8  A    between atoms: C_15  and  C_16
REMARK    9  A    between atoms: C_16  and  C_17
REMARK   10  A    between atoms: C_16  and  C_18
REMARK   11  A    between atoms: C_16  and  C_19
REMARK                            x       y       z     vdW  Elec       q    Type
REMARK                         _______ _______ _______ _____ _____    ______ ____
ROOT
ATOM      1  N   UNL     1      -0.575  10.276  20.112  0.00  0.00    +0.000 NA
ATOM      2  C   UNL     1      -0.356  11.543  20.278  0.00  0.00    +0.000 C 
ATOM      3  N   UNL     1      -1.270  12.544  20.098  0.00  0.00    +0.000 N 
ATOM      4  H   UNL     1      -0.911  13.478  20.240  0.00  0.00    +0.000 HD
ENDROOT
BRANCH   3   5
ATOM      5  C   UNL     1      -2.669  12.452  20.003  0.00  0.00    +0.000 A 
ATOM      6  C   UNL     1      -3.434  12.841  21.107  0.00  0.00    +0.000 A 
ATOM      7  C   UNL     1      -4.833  12.751  21.101  0.00  0.00    +0.000 A 
ATOM      8  C   UNL     1      -5.531  12.283  19.980  0.00  0.00    +0.000 A 
ATOM      9  C   UNL     1      -4.759  11.871  18.881  0.00  0.00    +0.000 A 
ATOM     10  C   UNL     1      -3.358  11.958  18.894  0.00  0.00    +0.000 A 
BRANCH   8  11
ATOM     11  C   UNL     1      -7.068  12.260  19.911  0.00  0.00    +0.000 C 
ATOM     12  C   UNL     1      -7.730  13.385  20.736  0.00  0.00    +0.000 C 
ATOM     13  C   UNL     1      -7.511  12.447  18.442  0.00  0.00    +0.000 C 
ATOM     14  C   UNL     1      -7.624  10.919  20.433  0.00  0.00    +0.000 C 
ENDBRANCH   8  11
ENDBRANCH   3   5
BRANCH   1  17
ATOM     15  N   UNL     1       2.071   7.857  19.828  0.00  0.00    +0.000 NA
ATOM     16  C   UNL     1       1.287   8.843  19.480  0.00  0.00    +0.000 C 
ATOM     17  N   UNL     1       0.387   9.355  20.389  0.00  0.00    +0.000 N 
ATOM     18  H   UNL     1       0.296   8.768  21.215  0.00  0.00    +0.000 HD
BRANCH  15  21
ATOM     19  C   UNL     1       2.095   5.141  19.464  0.00  0.00    +0.000 C 
ATOM     20  C   UNL     1       2.955   6.114  18.680  0.00  0.00    +0.000 C 
ATOM     21  N   UNL     1       2.950   7.404  18.846  0.00  0.00    +0.000 NA
BRANCH  20  22
ATOM     22  C   UNL     1       3.850   5.516  17.638  0.00  0.00    +0.000 A 
ATOM     23  C   UNL     1       4.560   6.330  16.763  0.00  0.00    +0.000 A 
ATOM     24  C   UNL     1       5.372   5.727  15.804  0.00  0.00    +0.000 A 
ATOM     25  C   UNL     1       5.448   4.338  15.751  0.00  0.00    +0.000 A 
ATOM     26  C   UNL     1       4.706   3.607  16.664  0.00  0.00    +0.000 A 
ATOM     27  N   UNL     1       3.911   4.159  17.604  0.00  0.00    +0.000 NA
ENDBRANCH  20  22
ENDBRANCH  15  21
BRANCH  16  28
ATOM     28  S   UNL     1       1.327   9.554  17.866  0.00  0.00    +0.000 S 
ATOM     29  H   UNL     1       2.661   9.475  17.787  0.00  0.00    +0.000 HD
ENDBRANCH  16  28
ENDBRANCH   1  17
BRANCH   2  30
ATOM     30  S   UNL     1       1.207  12.188  20.789  0.00  0.00    +0.000 S 
ATOM     31  H   UNL     1       1.964  11.407  20.012  0.00  0.00    +0.000 HD
ENDBRANCH   2  30
TORSDOF 7
ENDMDL
MODEL 9
REMARK VINA RESULT:      -6.5      0.504      1.329
REMARK  Name = 
REMARK  11 active torsions:
REMARK  status: ('A' for Active; 'I' for Inactive)
REMARK    1  A    between atoms: C_1  and  C_2
REMARK    2  A    between atoms: C_2  and  C_22
REMARK    3  A    between atoms: N_3  and  N_4
REMARK    4  A    between atoms: C_5  and  S_6
REMARK    5  A    between atoms: N_7  and  N_8
REMARK    6  A    between atoms: C_9  and  S_10
REMARK    7  A    between atoms: N_11  and  C_12
REMARK    8  A    between atoms: C_15  and  C_16
REMARK    9  A    between atoms: C_16  and  C_17
REMARK   10  A    between atoms: C_16  and  C_18
REMARK   11  A    between atoms: C_16  and  C_19
REMARK                            x       y       z     vdW  Elec       q    Type
REMARK                         _______ _______ _______ _____ _____    ______ ____
ROOT
ATOM      1  N   UNL     1       0.147   9.635  19.221  0.00  0.00    +0.000 NA
ATOM      2  C   UNL     1       1.379   9.747  18.832  0.00  0.00    +0.000 C 
ATOM      3  N   UNL     1       2.346   8.787  18.946  0.00  0.00    +0.000 N 
ATOM      4  H   UNL     1       3.260   9.064  18.618  0.00  0.00    +0.000 HD
ENDROOT
BRANCH   3   5
ATOM      5  C   UNL     1       2.197   7.414  19.206  0.00  0.00    +0.000 A 
ATOM      6  C   UNL     1       2.383   6.517  18.150  0.00  0.00    +0.000 A 
ATOM      7  C   UNL     1       2.224   5.135  18.322  0.00  0.00    +0.000 A 
ATOM      8  C   UNL     1       1.888   4.586  19.567  0.00  0.00    +0.000 A 
ATOM      9  C   UNL     1       1.677   5.492  20.620  0.00  0.00    +0.000 A 
ATOM     10  C   UNL     1       1.833   6.876  20.442  0.00  0.00    +0.000 A 
BRANCH   8  11
ATOM     11  C   UNL     1       1.796   3.070  19.807  0.00  0.00    +0.000 C 
ATOM     12  C   UNL     1       0.711   2.383  18.949  0.00  0.00    +0.000 C 
ATOM     13  C   UNL     1       3.149   2.417  19.442  0.00  0.00    +0.000 C 
ATOM     14  C   UNL     1       1.477   2.762  21.284  0.00  0.00    +0.000 C 
ENDBRANCH   8  11
ENDBRANCH   3   5
BRANCH   1  17
ATOM     15  N   UNL     1      -2.310  12.227  19.638  0.00  0.00    +0.000 NA
ATOM     16  C   UNL     1      -1.351  11.402  19.964  0.00  0.00    +0.000 C 
ATOM     17  N   UNL     1      -0.756  10.626  18.993  0.00  0.00    +0.000 N 
ATOM     18  H   UNL     1      -1.269  10.644  18.116  0.00  0.00    +0.000 HD
BRANCH  15  21
ATOM     19  C   UNL     1      -5.048  12.261  19.732  0.00  0.00    +0.000 C 
ATOM     20  C   UNL     1      -4.152  12.983  20.720  0.00  0.00    +0.000 C 
ATOM     21  N   UNL     1      -2.852  12.972  20.682  0.00  0.00    +0.000 NA
BRANCH  20  22
ATOM     22  C   UNL     1      -4.846  13.739  21.811  0.00  0.00    +0.000 A 
ATOM     23  C   UNL     1      -4.166  14.707  22.543  0.00  0.00    +0.000 A 
ATOM     24  C   UNL     1      -4.850  15.377  23.556  0.00  0.00    +0.000 A 
ATOM     25  C   UNL     1      -6.183  15.061  23.803  0.00  0.00    +0.000 A 
ATOM     26  C   UNL     1      -6.779  14.084  23.023  0.00  0.00    +0.000 A 
ATOM     27  N   UNL     1      -6.146  13.417  22.036  0.00  0.00    +0.000 NA
ENDBRANCH  20  22
ENDBRANCH  15  21
BRANCH  16  28
ATOM     28  S   UNL     1      -0.781  11.231  21.624  0.00  0.00    +0.000 S 
ATOM     29  H   UNL     1      -1.529  10.143  21.845  0.00  0.00    +0.000 HD
ENDBRANCH  16  28
ENDBRANCH   1  17
BRANCH   2  30
ATOM     30  S   UNL     1       2.010  11.203  18.056  0.00  0.00    +0.000 S 
ATOM     31  H   UNL     1       1.141  12.061  18.597  0.00  0.00    +0.000 HD
ENDBRANCH   2  30
TORSDOF 7
ENDMDL
