MODEL 1
REMARK VINA RESULT:      -6.0      0.000      0.000
REMARK  Name = 
REMARK  9 active torsions:
REMARK  status: ('A' for Active; 'I' for Inactive)
REMARK    1  A    between atoms: C_1  and  C_2
REMARK    2  A    between atoms: C_2  and  C_3
REMARK    3  A    between atoms: C_3  and  O_4
REMARK    4  A    between atoms: O_4  and  C_5
REMARK    5  A    between atoms: C_5  and  C_7
REMARK    6  A    between atoms: C_7  and  C_8
REMARK    7  A    between atoms: C_11  and  O_12
REMARK    8  A    between atoms: C_13  and  O_14
REMARK    9  A    between atoms: O_14  and  C_15
REMARK                            x       y       z     vdW  Elec       q    Type
REMARK                         _______ _______ _______ _____ _____    ______ ____
ROOT
ATOM      1  C   UNL     1       4.178   5.294  17.902  0.00  0.00    +0.000 A 
ATOM      2  C   UNL     1       5.080   5.519  18.944  0.00  0.00    +0.000 A 
ATOM      3  C   UNL     1       6.414   5.127  18.816  0.00  0.00    +0.000 A 
ATOM      4  C   UNL     1       6.858   4.511  17.641  0.00  0.00    +0.000 A 
ATOM      5  C   UNL     1       5.981   4.306  16.573  0.00  0.00    +0.000 A 
ATOM      6  C   UNL     1       4.643   4.705  16.717  0.00  0.00    +0.000 A 
ENDROOT
BRANCH   4   7
ATOM      7  O   UNL     1       8.168   4.115  17.580  0.00  0.00    +0.000 OA
ATOM      8  H   UNL     1       8.277   3.304  18.100  0.00  0.00    +0.000 HD
ENDBRANCH   4   7
BRANCH   5   9
ATOM      9  O   UNL     1       6.234   3.736  15.355  0.00  0.00    +0.000 OA
ATOM     10  C   UNL     1       6.687   4.575  14.303  0.00  0.00    +0.000 C 
ENDBRANCH   5   9
BRANCH   1  11
ATOM     11  C   UNL     1       2.723   5.641  18.055  0.00  0.00    +0.000 C 
BRANCH  11  12
ATOM     12  C   UNL     1       1.790   4.456  18.073  0.00  0.00    +0.000 C 
ATOM     13  O   UNL     1       1.049   4.148  17.149  0.00  0.00    +0.000 OA
BRANCH  12  14
ATOM     14  O   UNL     1       1.823   3.849  19.295  0.00  0.00    +0.000 OA
BRANCH  14  15
ATOM     15  C   UNL     1       1.888   2.417  19.283  0.00  0.00    +0.000 C 
BRANCH  15  17
ATOM     16  C   UNL     1       4.306   2.100  19.824  0.00  0.00    +0.000 C 
ATOM     17  C   UNL     1       3.229   1.915  18.765  0.00  0.00    +0.000 C 
ENDBRANCH  15  17
ENDBRANCH  14  15
ENDBRANCH  12  14
ENDBRANCH  11  12
ENDBRANCH   1  11
TORSDOF 7
ENDMDL
MODEL 2
REMARK VINA RESULT:      -5.9      0.968      1.122
REMARK  Name = 
REMARK  9 active torsions:
REMARK  status: ('A' for Active; 'I' for Inactive)
REMARK    1  A    between atoms: C_1  and  C_2
REMARK    2  A    between atoms: C_2  and  C_3
REMARK    3  A    between atoms: C_3  and  O_4
REMARK    4  A    between atoms: O_4  and  C_5
REMARK    5  A    between atoms: C_5  and  C_7
REMARK    6  A    between atoms: C_7  and  C_8
REMARK    7  A    between atoms: C_11  and  O_12
REMARK    8  A    between atoms: C_13  and  O_14
REMARK    9  A    between atoms: O_14  and  C_15
REMARK                            x       y       z     vdW  Elec       q    Type
REMARK                         _______ _______ _______ _____ _____    ______ ____
ROOT
ATOM      1  C   UNL     1       4.171   5.115  17.995  0.00  0.00    +0.000 A 
ATOM      2  C   UNL     1       5.064   5.371  19.038  0.00  0.00    +0.000 A 
ATOM      3  C   UNL     1       6.415   5.047  18.901  0.00  0.00    +0.000 A 
ATOM      4  C   UNL     1       6.885   4.468  17.717  0.00  0.00    +0.000 A 
ATOM      5  C   UNL     1       6.016   4.233  16.649  0.00  0.00    +0.000 A 
ATOM      6  C   UNL     1       4.660   4.564  16.802  0.00  0.00    +0.000 A 
ENDROOT
BRANCH   4   7
ATOM      7  O   UNL     1       8.213   4.138  17.648  0.00  0.00    +0.000 OA
ATOM      8  H   UNL     1       8.406   3.795  16.761  0.00  0.00    +0.000 HD
ENDBRANCH   4   7
BRANCH   5   9
ATOM      9  O   UNL     1       6.292   3.691  15.423  0.00  0.00    +0.000 OA
ATOM     10  C   UNL     1       6.441   4.572  14.319  0.00  0.00    +0.000 C 
ENDBRANCH   5   9
BRANCH   1  11
ATOM     11  C   UNL     1       2.701   5.387  18.157  0.00  0.00    +0.000 C 
BRANCH  11  12
ATOM     12  C   UNL     1       1.803   4.212  17.859  0.00  0.00    +0.000 C 
ATOM     13  O   UNL     1       0.856   4.247  17.085  0.00  0.00    +0.000 OA
BRANCH  12  14
ATOM     14  O   UNL     1       2.143   3.150  18.645  0.00  0.00    +0.000 OA
BRANCH  14  15
ATOM     15  C   UNL     1       1.088   2.600  19.446  0.00  0.00    +0.000 C 
BRANCH  15  17
ATOM     16  C   UNL     1       2.433   3.114  21.488  0.00  0.00    +0.000 C 
ATOM     17  C   UNL     1       1.060   3.212  20.841  0.00  0.00    +0.000 C 
ENDBRANCH  15  17
ENDBRANCH  14  15
ENDBRANCH  12  14
ENDBRANCH  11  12
ENDBRANCH   1  11
TORSDOF 7
ENDMDL
MODEL 3
REMARK VINA RESULT:      -5.8      2.004      3.110
REMARK  Name = 
REMARK  9 active torsions:
REMARK  status: ('A' for Active; 'I' for Inactive)
REMARK    1  A    between atoms: C_1  and  C_2
REMARK    2  A    between atoms: C_2  and  C_3
REMARK    3  A    between atoms: C_3  and  O_4
REMARK    4  A    between atoms: O_4  and  C_5
REMARK    5  A    between atoms: C_5  and  C_7
REMARK    6  A    between atoms: C_7  and  C_8
REMARK    7  A    between atoms: C_11  and  O_12
REMARK    8  A    between atoms: C_13  and  O_14
REMARK    9  A    between atoms: O_14  and  C_15
REMARK                            x       y       z     vdW  Elec       q    Type
REMARK                         _______ _______ _______ _____ _____    ______ ____
ROOT
ATOM      1  C   UNL     1       5.293   4.775  17.776  0.00  0.00    +0.000 A 
ATOM      2  C   UNL     1       5.180   3.864  16.725  0.00  0.00    +0.000 A 
ATOM      3  C   UNL     1       5.950   4.022  15.571  0.00  0.00    +0.000 A 
ATOM      4  C   UNL     1       6.845   5.093  15.462  0.00  0.00    +0.000 A 
ATOM      5  C   UNL     1       6.998   5.998  16.515  0.00  0.00    +0.000 A 
ATOM      6  C   UNL     1       6.217   5.825  17.668  0.00  0.00    +0.000 A 
ENDROOT
BRANCH   4   7
ATOM      7  O   UNL     1       7.551   5.222  14.296  0.00  0.00    +0.000 OA
ATOM      8  H   UNL     1       7.902   6.125  14.238  0.00  0.00    +0.000 HD
ENDBRANCH   4   7
BRANCH   5   9
ATOM      9  O   UNL     1       7.822   7.088  16.595  0.00  0.00    +0.000 OA
ATOM     10  C   UNL     1       7.740   7.908  17.751  0.00  0.00    +0.000 C 
ENDBRANCH   5   9
BRANCH   1  11
ATOM     11  C   UNL     1       4.415   4.661  18.992  0.00  0.00    +0.000 C 
BRANCH  11  12
ATOM     12  C   UNL     1       4.196   3.251  19.483  0.00  0.00    +0.000 C 
ATOM     13  O   UNL     1       5.084   2.524  19.908  0.00  0.00    +0.000 OA
BRANCH  12  14
ATOM     14  O   UNL     1       2.897   2.882  19.289  0.00  0.00    +0.000 OA
BRANCH  14  15
ATOM     15  C   UNL     1       1.942   3.950  19.239  0.00  0.00    +0.000 C 
BRANCH  15  17
ATOM     16  C   UNL     1       1.351   2.766  21.359  0.00  0.00    +0.000 C 
ATOM     17  C   UNL     1       0.976   3.901  20.416  0.00  0.00    +0.000 C 
ENDBRANCH  15  17
ENDBRANCH  14  15
ENDBRANCH  12  14
ENDBRANCH  11  12
ENDBRANCH   1  11
TORSDOF 7
ENDMDL
MODEL 4
REMARK VINA RESULT:      -5.7      1.763      2.517
REMARK  Name = 
REMARK  9 active torsions:
REMARK  status: ('A' for Active; 'I' for Inactive)
REMARK    1  A    between atoms: C_1  and  C_2
REMARK    2  A    between atoms: C_2  and  C_3
REMARK    3  A    between atoms: C_3  and  O_4
REMARK    4  A    between atoms: O_4  and  C_5
REMARK    5  A    between atoms: C_5  and  C_7
REMARK    6  A    between atoms: C_7  and  C_8
REMARK    7  A    between atoms: C_11  and  O_12
REMARK    8  A    between atoms: C_13  and  O_14
REMARK    9  A    between atoms: O_14  and  C_15
REMARK                            x       y       z     vdW  Elec       q    Type
REMARK                         _______ _______ _______ _____ _____    ______ ____
ROOT
ATOM      1  C   UNL     1       4.366   4.964  17.540  0.00  0.00    +0.000 A 
ATOM      2  C   UNL     1       4.713   3.882  16.728  0.00  0.00    +0.000 A 
ATOM      3  C   UNL     1       5.786   3.984  15.841  0.00  0.00    +0.000 A 
ATOM      4  C   UNL     1       6.525   5.170  15.762  0.00  0.00    +0.000 A 
ATOM      5  C   UNL     1       6.216   6.254  16.587  0.00  0.00    +0.000 A 
ATOM      6  C   UNL     1       5.135   6.136  17.474  0.00  0.00    +0.000 A 
ENDROOT
BRANCH   4   7
ATOM      7  O   UNL     1       7.546   5.230  14.851  0.00  0.00    +0.000 OA
ATOM      8  H   UNL     1       7.829   4.328  14.634  0.00  0.00    +0.000 HD
ENDBRANCH   4   7
BRANCH   5   9
ATOM      9  O   UNL     1       6.827   7.477  16.659  0.00  0.00    +0.000 OA
ATOM     10  C   UNL     1       7.732   7.713  17.727  0.00  0.00    +0.000 C 
ENDBRANCH   5   9
BRANCH   1  11
ATOM     11  C   UNL     1       3.167   4.895  18.443  0.00  0.00    +0.000 C 
BRANCH  11  12
ATOM     12  C   UNL     1       2.050   4.012  17.945  0.00  0.00    +0.000 C 
ATOM     13  O   UNL     1       1.137   4.396  17.225  0.00  0.00    +0.000 OA
BRANCH  12  14
ATOM     14  O   UNL     1       2.155   2.766  18.490  0.00  0.00    +0.000 OA
BRANCH  14  15
ATOM     15  C   UNL     1       1.074   2.359  19.339  0.00  0.00    +0.000 C 
BRANCH  15  17
ATOM     16  C   UNL     1       1.850   2.862  21.660  0.00  0.00    +0.000 C 
ATOM     17  C   UNL     1       0.915   3.286  20.537  0.00  0.00    +0.000 C 
ENDBRANCH  15  17
ENDBRANCH  14  15
ENDBRANCH  12  14
ENDBRANCH  11  12
ENDBRANCH   1  11
TORSDOF 7
ENDMDL
MODEL 5
REMARK VINA RESULT:      -5.7      1.850      2.595
REMARK  Name = 
REMARK  9 active torsions:
REMARK  status: ('A' for Active; 'I' for Inactive)
REMARK    1  A    between atoms: C_1  and  C_2
REMARK    2  A    between atoms: C_2  and  C_3
REMARK    3  A    between atoms: C_3  and  O_4
REMARK    4  A    between atoms: O_4  and  C_5
REMARK    5  A    between atoms: C_5  and  C_7
REMARK    6  A    between atoms: C_7  and  C_8
REMARK    7  A    between atoms: C_11  and  O_12
REMARK    8  A    between atoms: C_13  and  O_14
REMARK    9  A    between atoms: O_14  and  C_15
REMARK                            x       y       z     vdW  Elec       q    Type
REMARK                         _______ _______ _______ _____ _____    ______ ____
ROOT
ATOM      1  C   UNL     1       4.374   4.068  17.334  0.00  0.00    +0.000 A 
ATOM      2  C   UNL     1       4.020   5.303  17.881  0.00  0.00    +0.000 A 
ATOM      3  C   UNL     1       4.805   6.431  17.636  0.00  0.00    +0.000 A 
ATOM      4  C   UNL     1       5.950   6.334  16.838  0.00  0.00    +0.000 A 
ATOM      5  C   UNL     1       6.305   5.115  16.255  0.00  0.00    +0.000 A 
ATOM      6  C   UNL     1       5.506   3.991  16.510  0.00  0.00    +0.000 A 
ENDROOT
BRANCH   4   7
ATOM      7  O   UNL     1       6.704   7.463  16.658  0.00  0.00    +0.000 OA
ATOM      8  H   UNL     1       6.488   8.102  17.355  0.00  0.00    +0.000 HD
ENDBRANCH   4   7
BRANCH   5   9
ATOM      9  O   UNL     1       7.372   4.832  15.445  0.00  0.00    +0.000 OA
ATOM     10  C   UNL     1       7.157   4.794  14.042  0.00  0.00    +0.000 C 
ENDBRANCH   5   9
BRANCH   1  11
ATOM     11  C   UNL     1       3.581   2.831  17.652  0.00  0.00    +0.000 C 
BRANCH  11  12
ATOM     12  C   UNL     1       3.624   2.407  19.099  0.00  0.00    +0.000 C 
ATOM     13  O   UNL     1       4.641   2.377  19.778  0.00  0.00    +0.000 OA
BRANCH  12  14
ATOM     14  O   UNL     1       2.394   1.973  19.498  0.00  0.00    +0.000 OA
BRANCH  14  15
ATOM     15  C   UNL     1       1.820   2.657  20.620  0.00  0.00    +0.000 C 
BRANCH  15  17
ATOM     16  C   UNL     1       1.664   5.150  20.667  0.00  0.00    +0.000 C 
ATOM     17  C   UNL     1       1.002   3.867  20.188  0.00  0.00    +0.000 C 
ENDBRANCH  15  17
ENDBRANCH  14  15
ENDBRANCH  12  14
ENDBRANCH  11  12
ENDBRANCH   1  11
TORSDOF 7
ENDMDL
MODEL 6
REMARK VINA RESULT:      -5.7      1.846      2.761
REMARK  Name = 
REMARK  9 active torsions:
REMARK  status: ('A' for Active; 'I' for Inactive)
REMARK    1  A    between atoms: C_1  and  C_2
REMARK    2  A    between atoms: C_2  and  C_3
REMARK    3  A    between atoms: C_3  and  O_4
REMARK    4  A    between atoms: O_4  and  C_5
REMARK    5  A    between atoms: C_5  and  C_7
REMARK    6  A    between atoms: C_7  and  C_8
REMARK    7  A    between atoms: C_11  and  O_12
REMARK    8  A    between atoms: C_13  and  O_14
REMARK    9  A    between atoms: O_14  and  C_15
REMARK                            x       y       z     vdW  Elec       q    Type
REMARK                         _______ _______ _______ _____ _____    ______ ____
ROOT
ATOM      1  C   UNL     1       4.946   4.883  17.502  0.00  0.00    +0.000 A 
ATOM      2  C   UNL     1       4.903   3.979  16.439  0.00  0.00    +0.000 A 
ATOM      3  C   UNL     1       5.816   4.088  15.388  0.00  0.00    +0.000 A 
ATOM      4  C   UNL     1       6.783   5.099  15.394  0.00  0.00    +0.000 A 
ATOM      5  C   UNL     1       6.865   5.993  16.464  0.00  0.00    +0.000 A 
ATOM      6  C   UNL     1       5.941   5.872  17.513  0.00  0.00    +0.000 A 
ENDROOT
BRANCH   4   7
ATOM      7  O   UNL     1       7.632   5.182  14.323  0.00  0.00    +0.000 OA
ATOM      8  H   UNL     1       7.689   4.312  13.897  0.00  0.00    +0.000 HD
ENDBRANCH   4   7
BRANCH   5   9
ATOM      9  O   UNL     1       7.741   7.029  16.650  0.00  0.00    +0.000 OA
ATOM     10  C   UNL     1       7.788   7.647  17.927  0.00  0.00    +0.000 C 
ENDBRANCH   5   9
BRANCH   1  11
ATOM     11  C   UNL     1       3.923   4.825  18.602  0.00  0.00    +0.000 C 
BRANCH  11  12
ATOM     12  C   UNL     1       2.584   5.428  18.252  0.00  0.00    +0.000 C 
ATOM     13  O   UNL     1       2.393   6.623  18.074  0.00  0.00    +0.000 OA
BRANCH  12  14
ATOM     14  O   UNL     1       1.618   4.465  18.264  0.00  0.00    +0.000 OA
BRANCH  14  15
ATOM     15  C   UNL     1       1.846   3.357  19.144  0.00  0.00    +0.000 C 
BRANCH  15  17
ATOM     16  C   UNL     1       1.602   2.719  21.547  0.00  0.00    +0.000 C 
ATOM     17  C   UNL     1       0.936   3.406  20.364  0.00  0.00    +0.000 C 
ENDBRANCH  15  17
ENDBRANCH  14  15
ENDBRANCH  12  14
ENDBRANCH  11  12
ENDBRANCH   1  11
TORSDOF 7
ENDMDL
MODEL 7
REMARK VINA RESULT:      -5.6      1.620      2.137
REMARK  Name = 
REMARK  9 active torsions:
REMARK  status: ('A' for Active; 'I' for Inactive)
REMARK    1  A    between atoms: C_1  and  C_2
REMARK    2  A    between atoms: C_2  and  C_3
REMARK    3  A    between atoms: C_3  and  O_4
REMARK    4  A    between atoms: O_4  and  C_5
REMARK    5  A    between atoms: C_5  and  C_7
REMARK    6  A    between atoms: C_7  and  C_8
REMARK    7  A    between atoms: C_11  and  O_12
REMARK    8  A    between atoms: C_13  and  O_14
REMARK    9  A    between atoms: O_14  and  C_15
REMARK                            x       y       z     vdW  Elec       q    Type
REMARK                         _______ _______ _______ _____ _____    ______ ____
ROOT
ATOM      1  C   UNL     1       4.491   4.162  17.693  0.00  0.00    +0.000 A 
ATOM      2  C   UNL     1       4.685   4.702  18.966  0.00  0.00    +0.000 A 
ATOM      3  C   UNL     1       5.883   5.345  19.281  0.00  0.00    +0.000 A 
ATOM      4  C   UNL     1       6.898   5.455  18.324  0.00  0.00    +0.000 A 
ATOM      5  C   UNL     1       6.713   4.950  17.035  0.00  0.00    +0.000 A 
ATOM      6  C   UNL     1       5.503   4.308  16.732  0.00  0.00    +0.000 A 
ENDROOT
BRANCH   4   7
ATOM      7  O   UNL     1       8.067   6.064  18.695  0.00  0.00    +0.000 OA
ATOM      8  H   UNL     1       8.768   5.396  18.749  0.00  0.00    +0.000 HD
ENDBRANCH   4   7
BRANCH   5   9
ATOM      9  O   UNL     1       7.577   4.975  15.973  0.00  0.00    +0.000 OA
ATOM     10  C   UNL     1       7.048   4.766  14.673  0.00  0.00    +0.000 C 
ENDBRANCH   5   9
BRANCH   1  11
ATOM     11  C   UNL     1       3.237   3.401  17.363  0.00  0.00    +0.000 C 
BRANCH  11  12
ATOM     12  C   UNL     1       2.861   2.336  18.364  0.00  0.00    +0.000 C 
ATOM     13  O   UNL     1       3.436   1.262  18.475  0.00  0.00    +0.000 OA
BRANCH  12  14
ATOM     14  O   UNL     1       1.740   2.707  19.046  0.00  0.00    +0.000 OA
BRANCH  14  15
ATOM     15  C   UNL     1       1.729   2.405  20.447  0.00  0.00    +0.000 C 
BRANCH  15  17
ATOM     16  C   UNL     1       1.423   4.883  20.539  0.00  0.00    +0.000 C 
ATOM     17  C   UNL     1       1.908   3.656  21.298  0.00  0.00    +0.000 C 
ENDBRANCH  15  17
ENDBRANCH  14  15
ENDBRANCH  12  14
ENDBRANCH  11  12
ENDBRANCH   1  11
TORSDOF 7
ENDMDL
MODEL 8
REMARK VINA RESULT:      -5.6      2.031      3.217
REMARK  Name = 
REMARK  9 active torsions:
REMARK  status: ('A' for Active; 'I' for Inactive)
REMARK    1  A    between atoms: C_1  and  C_2
REMARK    2  A    between atoms: C_2  and  C_3
REMARK    3  A    between atoms: C_3  and  O_4
REMARK    4  A    between atoms: O_4  and  C_5
REMARK    5  A    between atoms: C_5  and  C_7
REMARK    6  A    between atoms: C_7  and  C_8
REMARK    7  A    between atoms: C_11  and  O_12
REMARK    8  A    between atoms: C_13  and  O_14
REMARK    9  A    between atoms: O_14  and  C_15
REMARK                            x       y       z     vdW  Elec       q    Type
REMARK                         _______ _______ _______ _____ _____    ______ ____
ROOT
ATOM      1  C   UNL     1       4.057   3.272  18.149  0.00  0.00    +0.000 A 
ATOM      2  C   UNL     1       3.756   3.996  16.994  0.00  0.00    +0.000 A 
ATOM      3  C   UNL     1       4.378   5.222  16.751  0.00  0.00    +0.000 A 
ATOM      4  C   UNL     1       5.311   5.732  17.660  0.00  0.00    +0.000 A 
ATOM      5  C   UNL     1       5.652   5.009  18.806  0.00  0.00    +0.000 A 
ATOM      6  C   UNL     1       5.018   3.778  19.036  0.00  0.00    +0.000 A 
ENDROOT
BRANCH   4   7
ATOM      7  O   UNL     1       5.867   6.954  17.391  0.00  0.00    +0.000 OA
ATOM      8  H   UNL     1       5.567   7.591  18.059  0.00  0.00    +0.000 HD
ENDBRANCH   4   7
BRANCH   5   9
ATOM      9  O   UNL     1       6.541   5.338  19.793  0.00  0.00    +0.000 OA
ATOM     10  C   UNL     1       7.885   5.608  19.422  0.00  0.00    +0.000 C 
ENDBRANCH   5   9
BRANCH   1  11
ATOM     11  C   UNL     1       3.339   1.989  18.462  0.00  0.00    +0.000 C 
BRANCH  11  12
ATOM     12  C   UNL     1       1.923   2.160  18.954  0.00  0.00    +0.000 C 
ATOM     13  O   UNL     1       0.943   2.226  18.224  0.00  0.00    +0.000 OA
BRANCH  12  14
ATOM     14  O   UNL     1       1.914   2.328  20.308  0.00  0.00    +0.000 OA
BRANCH  14  15
ATOM     15  C   UNL     1       1.214   3.482  20.792  0.00  0.00    +0.000 C 
BRANCH  15  17
ATOM     16  C   UNL     1       2.053   5.759  20.199  0.00  0.00    +0.000 C 
ATOM     17  C   UNL     1       2.171   4.602  21.180  0.00  0.00    +0.000 C 
ENDBRANCH  15  17
ENDBRANCH  14  15
ENDBRANCH  12  14
ENDBRANCH  11  12
ENDBRANCH   1  11
TORSDOF 7
ENDMDL
MODEL 9
REMARK VINA RESULT:      -5.6      1.555      4.951
REMARK  Name = 
REMARK  9 active torsions:
REMARK  status: ('A' for Active; 'I' for Inactive)
REMARK    1  A    between atoms: C_1  and  C_2
REMARK    2  A    between atoms: C_2  and  C_3
REMARK    3  A    between atoms: C_3  and  O_4
REMARK    4  A    between atoms: O_4  and  C_5
REMARK    5  A    between atoms: C_5  and  C_7
REMARK    6  A    between atoms: C_7  and  C_8
REMARK    7  A    between atoms: C_11  and  O_12
REMARK    8  A    between atoms: C_13  and  O_14
REMARK    9  A    between atoms: O_14  and  C_15
REMARK                            x       y       z     vdW  Elec       q    Type
REMARK                         _______ _______ _______ _____ _____    ______ ____
ROOT
ATOM      1  C   UNL     1       4.427   5.730  16.867  0.00  0.00    +0.000 A 
ATOM      2  C   UNL     1       4.036   6.910  17.504  0.00  0.00    +0.000 A 
ATOM      3  C   UNL     1       3.175   6.865  18.601  0.00  0.00    +0.000 A 
ATOM      4  C   UNL     1       2.700   5.637  19.075  0.00  0.00    +0.000 A 
ATOM      5  C   UNL     1       3.103   4.442  18.474  0.00  0.00    +0.000 A 
ATOM      6  C   UNL     1       3.970   4.503  17.372  0.00  0.00    +0.000 A 
ENDROOT
BRANCH   4   7
ATOM      7  O   UNL     1       1.830   5.650  20.133  0.00  0.00    +0.000 OA
ATOM      8  H   UNL     1       1.373   6.505  20.155  0.00  0.00    +0.000 HD
ENDBRANCH   4   7
BRANCH   5   9
ATOM      9  O   UNL     1       2.756   3.159  18.801  0.00  0.00    +0.000 OA
ATOM     10  C   UNL     1       2.610   2.215  17.751  0.00  0.00    +0.000 C 
ENDBRANCH   5   9
BRANCH   1  11
ATOM     11  C   UNL     1       5.292   5.768  15.639  0.00  0.00    +0.000 C 
BRANCH  11  12
ATOM     12  C   UNL     1       6.418   4.764  15.626  0.00  0.00    +0.000 C 
ATOM     13  O   UNL     1       6.347   3.656  15.112  0.00  0.00    +0.000 OA
BRANCH  12  14
ATOM     14  O   UNL     1       7.475   5.233  16.350  0.00  0.00    +0.000 OA
BRANCH  14  15
ATOM     15  C   UNL     1       7.640   4.668  17.658  0.00  0.00    +0.000 C 
BRANCH  15  17
ATOM     16  C   UNL     1       7.771   7.126  18.089  0.00  0.00    +0.000 C 
ATOM     17  C   UNL     1       7.768   5.745  18.728  0.00  0.00    +0.000 C 
ENDBRANCH  15  17
ENDBRANCH  14  15
ENDBRANCH  12  14
ENDBRANCH  11  12
ENDBRANCH   1  11
TORSDOF 7
ENDMDL
