MODEL 1
REMARK VINA RESULT:      -8.9      0.000      0.000
REMARK  Name = 
REMARK  3 active torsions:
REMARK  status: ('A' for Active; 'I' for Inactive)
REMARK    1  A    between atoms: C_1  and  C_2
REMARK    2  A    between atoms: C_3  and  C_4
REMARK    3  A    between atoms: C_9  and  C_10
REMARK                            x       y       z     vdW  Elec       q    Type
REMARK                         _______ _______ _______ _____ _____    ______ ____
ROOT
ATOM      1  C   UNL     1       1.745   9.562  17.769  0.00  0.00    +0.000 C 
ATOM      2  C   UNL     1       1.407   9.037  19.121  0.00  0.00    +0.000 A 
ATOM      3  C   UNL     1       0.529   9.514  20.088  0.00  0.00    +0.000 A 
ATOM      4  C   UNL     1       0.585   8.537  21.106  0.00  0.00    +0.000 A 
ATOM      5  N   UNL     1       1.451   7.558  20.857  0.00  0.00    +0.000 NA
ATOM      6  N   UNL     1       1.949   7.862  19.620  0.00  0.00    +0.000 N 
ATOM      7  C   UNL     1       2.876   6.978  19.028  0.00  0.00    +0.000 A 
ATOM      8  N   UNL     1       3.464   7.199  17.900  0.00  0.00    +0.000 NA
ATOM      9  C   UNL     1       4.329   6.229  17.457  0.00  0.00    +0.000 A 
ATOM     10  C   UNL     1       4.546   5.063  18.095  0.00  0.00    +0.000 A 
ATOM     11  C   UNL     1       3.842   4.830  19.379  0.00  0.00    +0.000 A 
ATOM     12  O   UNL     1       3.966   3.792  20.016  0.00  0.00    +0.000 OA
ATOM     13  N   UNL     1       3.055   5.859  19.794  0.00  0.00    +0.000 N 
ATOM     14  C   UNL     1       5.462   3.983  17.597  0.00  0.00    +0.000 C 
ATOM     15  C   UNL     1       5.947   4.222  16.165  0.00  0.00    +0.000 C 
ATOM     16  C   UNL     1       6.287   5.691  15.939  0.00  0.00    +0.000 C 
ATOM     17  C   UNL     1       5.058   6.567  16.178  0.00  0.00    +0.000 C 
ATOM     18  H   UNL     1       2.538   5.767  20.662  0.00  0.00    +0.000 HD
ENDROOT
BRANCH   3  19
ATOM     19  C   UNL     1      -0.332  10.687  19.988  0.00  0.00    +0.000 C 
ATOM     20  O   UNL     1      -0.227  11.600  20.805  0.00  0.00    +0.000 OA
ATOM     21  N   UNL     1      -1.237  10.761  18.927  0.00  0.00    +0.000 N 
ATOM     22  C   UNL     1      -1.827  12.060  18.611  0.00  0.00    +0.000 C 
ATOM     23  C   UNL     1      -3.349  11.998  18.672  0.00  0.00    +0.000 C 
ATOM     24  C   UNL     1      -3.913  10.881  17.783  0.00  0.00    +0.000 C 
ATOM     25  C   UNL     1      -3.246   9.548  18.157  0.00  0.00    +0.000 C 
ATOM     26  C   UNL     1      -1.717   9.628  18.135  0.00  0.00    +0.000 C 
BRANCH  24  27
ATOM     27  C   UNL     1      -3.800  11.189  16.287  0.00  0.00    +0.000 C 
ATOM     28  F   UNL     1      -2.555  11.571  15.933  0.00  0.00    +0.000 F 
ATOM     29  F   UNL     1      -4.133  10.135  15.514  0.00  0.00    +0.000 F 
ATOM     30  F   UNL     1      -4.637  12.200  15.956  0.00  0.00    +0.000 F 
ENDBRANCH  24  27
ENDBRANCH   3  19
TORSDOF 2
ENDMDL
MODEL 2
REMARK VINA RESULT:      -8.8      4.173      9.127
REMARK  Name = 
REMARK  3 active torsions:
REMARK  status: ('A' for Active; 'I' for Inactive)
REMARK    1  A    between atoms: C_1  and  C_2
REMARK    2  A    between atoms: C_3  and  C_4
REMARK    3  A    between atoms: C_9  and  C_10
REMARK                            x       y       z     vdW  Elec       q    Type
REMARK                         _______ _______ _______ _____ _____    ______ ____
ROOT
ATOM      1  C   UNL     1       1.425   7.713  20.916  0.00  0.00    +0.000 C 
ATOM      2  C   UNL     1       1.815   8.161  19.549  0.00  0.00    +0.000 A 
ATOM      3  C   UNL     1       2.589   7.541  18.575  0.00  0.00    +0.000 A 
ATOM      4  C   UNL     1       2.518   8.422  17.476  0.00  0.00    +0.000 A 
ATOM      5  N   UNL     1       1.821   9.528  17.724  0.00  0.00    +0.000 NA
ATOM      6  N   UNL     1       1.374   9.357  19.006  0.00  0.00    +0.000 N 
ATOM      7  C   UNL     1       0.545  10.350  19.571  0.00  0.00    +0.000 A 
ATOM      8  N   UNL     1       0.125  10.329  20.791  0.00  0.00    +0.000 NA
ATOM      9  C   UNL     1      -0.688  11.366  21.180  0.00  0.00    +0.000 A 
ATOM     10  C   UNL     1      -1.105  12.347  20.357  0.00  0.00    +0.000 A 
ATOM     11  C   UNL     1      -0.621  12.333  18.955  0.00  0.00    +0.000 A 
ATOM     12  O   UNL     1      -0.963  13.174  18.134  0.00  0.00    +0.000 OA
ATOM     13  N   UNL     1       0.235  11.319  18.656  0.00  0.00    +0.000 N 
ATOM     14  C   UNL     1      -2.022  13.461  20.765  0.00  0.00    +0.000 C 
ATOM     15  C   UNL     1      -2.644  13.250  22.148  0.00  0.00    +0.000 C 
ATOM     16  C   UNL     1      -1.620  12.691  23.130  0.00  0.00    +0.000 C 
ATOM     17  C   UNL     1      -1.085  11.346  22.636  0.00  0.00    +0.000 C 
ATOM     18  H   UNL     1       0.603  11.243  17.714  0.00  0.00    +0.000 HD
ENDROOT
BRANCH   3  19
ATOM     19  C   UNL     1       3.212   6.224  18.657  0.00  0.00    +0.000 C 
ATOM     20  O   UNL     1       2.939   5.470  19.589  0.00  0.00    +0.000 OA
ATOM     21  N   UNL     1       4.083   5.833  17.637  0.00  0.00    +0.000 N 
ATOM     22  C   UNL     1       4.414   4.416  17.516  0.00  0.00    +0.000 C 
ATOM     23  C   UNL     1       5.920   4.197  17.602  0.00  0.00    +0.000 C 
ATOM     24  C   UNL     1       6.683   5.054  16.581  0.00  0.00    +0.000 C 
ATOM     25  C   UNL     1       6.283   6.527  16.754  0.00  0.00    +0.000 C 
ATOM     26  C   UNL     1       4.766   6.734  16.708  0.00  0.00    +0.000 C 
BRANCH  24  27
ATOM     27  C   UNL     1       6.508   4.567  15.140  0.00  0.00    +0.000 C 
ATOM     28  F   UNL     1       6.281   3.238  15.069  0.00  0.00    +0.000 F 
ATOM     29  F   UNL     1       5.490   5.184  14.505  0.00  0.00    +0.000 F 
ATOM     30  F   UNL     1       7.630   4.818  14.425  0.00  0.00    +0.000 F 
ENDBRANCH  24  27
ENDBRANCH   3  19
TORSDOF 2
ENDMDL
MODEL 3
REMARK VINA RESULT:      -8.6      3.581      4.450
REMARK  Name = 
REMARK  3 active torsions:
REMARK  status: ('A' for Active; 'I' for Inactive)
REMARK    1  A    between atoms: C_1  and  C_2
REMARK    2  A    between atoms: C_3  and  C_4
REMARK    3  A    between atoms: C_9  and  C_10
REMARK                            x       y       z     vdW  Elec       q    Type
REMARK                         _______ _______ _______ _____ _____    ______ ____
ROOT
ATOM      1  C   UNL     1       1.505   9.662  18.004  0.00  0.00    +0.000 C 
ATOM      2  C   UNL     1       1.052   9.539  19.418  0.00  0.00    +0.000 A 
ATOM      3  C   UNL     1       0.310  10.404  20.213  0.00  0.00    +0.000 A 
ATOM      4  C   UNL     1       0.136   9.689  21.418  0.00  0.00    +0.000 A 
ATOM      5  N   UNL     1       0.749   8.509  21.430  0.00  0.00    +0.000 NA
ATOM      6  N   UNL     1       1.305   8.412  20.183  0.00  0.00    +0.000 N 
ATOM      7  C   UNL     1       2.001   7.232  19.844  0.00  0.00    +0.000 A 
ATOM      8  N   UNL     1       2.625   7.059  18.726  0.00  0.00    +0.000 NA
ATOM      9  C   UNL     1       3.240   5.844  18.547  0.00  0.00    +0.000 A 
ATOM     10  C   UNL     1       3.179   4.830  19.431  0.00  0.00    +0.000 A 
ATOM     11  C   UNL     1       2.439   5.052  20.696  0.00  0.00    +0.000 A 
ATOM     12  O   UNL     1       2.317   4.180  21.547  0.00  0.00    +0.000 OA
ATOM     13  N   UNL     1       1.914   6.299  20.840  0.00  0.00    +0.000 N 
ATOM     14  C   UNL     1       3.818   3.488  19.224  0.00  0.00    +0.000 C 
ATOM     15  C   UNL     1       4.347   3.288  17.801  0.00  0.00    +0.000 C 
ATOM     16  C   UNL     1       5.020   4.554  17.283  0.00  0.00    +0.000 C 
ATOM     17  C   UNL     1       4.028   5.718  17.265  0.00  0.00    +0.000 C 
ATOM     18  H   UNL     1       1.389   6.520  21.679  0.00  0.00    +0.000 HD
ENDROOT
BRANCH   3  19
ATOM     19  C   UNL     1      -0.253  11.691  19.820  0.00  0.00    +0.000 C 
ATOM     20  O   UNL     1      -1.417  11.761  19.428  0.00  0.00    +0.000 OA
ATOM     21  N   UNL     1       0.543  12.832  19.940  0.00  0.00    +0.000 N 
ATOM     22  C   UNL     1      -0.110  14.139  19.904  0.00  0.00    +0.000 C 
ATOM     23  C   UNL     1       0.461  15.004  18.786  0.00  0.00    +0.000 C 
ATOM     24  C   UNL     1       1.988  15.130  18.882  0.00  0.00    +0.000 C 
ATOM     25  C   UNL     1       2.612  13.726  18.928  0.00  0.00    +0.000 C 
ATOM     26  C   UNL     1       2.004  12.847  20.025  0.00  0.00    +0.000 C 
BRANCH  24  27
ATOM     27  C   UNL     1       2.446  16.009  20.049  0.00  0.00    +0.000 C 
ATOM     28  F   UNL     1       1.524  16.935  20.389  0.00  0.00    +0.000 F 
ATOM     29  F   UNL     1       2.726  15.293  21.159  0.00  0.00    +0.000 F 
ATOM     30  F   UNL     1       3.576  16.675  19.715  0.00  0.00    +0.000 F 
ENDBRANCH  24  27
ENDBRANCH   3  19
TORSDOF 2
ENDMDL
MODEL 4
REMARK VINA RESULT:      -8.4      2.552      3.134
REMARK  Name = 
REMARK  3 active torsions:
REMARK  status: ('A' for Active; 'I' for Inactive)
REMARK    1  A    between atoms: C_1  and  C_2
REMARK    2  A    between atoms: C_3  and  C_4
REMARK    3  A    between atoms: C_9  and  C_10
REMARK                            x       y       z     vdW  Elec       q    Type
REMARK                         _______ _______ _______ _____ _____    ______ ____
ROOT
ATOM      1  C   UNL     1       1.740   8.711  17.889  0.00  0.00    +0.000 C 
ATOM      2  C   UNL     1       1.549   8.845  19.360  0.00  0.00    +0.000 A 
ATOM      3  C   UNL     1       1.140   9.928  20.130  0.00  0.00    +0.000 A 
ATOM      4  C   UNL     1       1.071   9.405  21.439  0.00  0.00    +0.000 A 
ATOM      5  N   UNL     1       1.452   8.133  21.525  0.00  0.00    +0.000 NA
ATOM      6  N   UNL     1       1.734   7.783  20.233  0.00  0.00    +0.000 N 
ATOM      7  C   UNL     1       2.127   6.455  19.962  0.00  0.00    +0.000 A 
ATOM      8  N   UNL     1       2.485   6.033  18.796  0.00  0.00    +0.000 NA
ATOM      9  C   UNL     1       2.825   4.705  18.700  0.00  0.00    +0.000 A 
ATOM     10  C   UNL     1       2.749   3.831  19.722  0.00  0.00    +0.000 A 
ATOM     11  C   UNL     1       2.316   4.342  21.045  0.00  0.00    +0.000 A 
ATOM     12  O   UNL     1       2.201   3.616  22.023  0.00  0.00    +0.000 OA
ATOM     13  N   UNL     1       2.062   5.678  21.086  0.00  0.00    +0.000 N 
ATOM     14  C   UNL     1       3.083   2.373  19.614  0.00  0.00    +0.000 C 
ATOM     15  C   UNL     1       3.287   1.909  18.169  0.00  0.00    +0.000 C 
ATOM     16  C   UNL     1       4.068   2.944  17.366  0.00  0.00    +0.000 C 
ATOM     17  C   UNL     1       3.319   4.276  17.339  0.00  0.00    +0.000 C 
ATOM     18  H   UNL     1       1.755   6.096  21.958  0.00  0.00    +0.000 HD
ENDROOT
BRANCH   3  19
ATOM     19  C   UNL     1       0.755  11.250  19.648  0.00  0.00    +0.000 C 
ATOM     20  O   UNL     1       1.526  11.898  18.943  0.00  0.00    +0.000 OA
ATOM     21  N   UNL     1      -0.515  11.733  19.972  0.00  0.00    +0.000 N 
ATOM     22  C   UNL     1      -1.040  12.863  19.208  0.00  0.00    +0.000 C 
ATOM     23  C   UNL     1      -1.393  14.027  20.127  0.00  0.00    +0.000 C 
ATOM     24  C   UNL     1      -2.349  13.601  21.250  0.00  0.00    +0.000 C 
ATOM     25  C   UNL     1      -1.746  12.406  22.005  0.00  0.00    +0.000 C 
ATOM     26  C   UNL     1      -1.354  11.257  21.072  0.00  0.00    +0.000 C 
BRANCH  24  27
ATOM     27  C   UNL     1      -3.770  13.319  20.754  0.00  0.00    +0.000 C 
ATOM     28  F   UNL     1      -4.487  14.449  20.577  0.00  0.00    +0.000 F 
ATOM     29  F   UNL     1      -3.787  12.645  19.585  0.00  0.00    +0.000 F 
ATOM     30  F   UNL     1      -4.436  12.561  21.656  0.00  0.00    +0.000 F 
ENDBRANCH  24  27
ENDBRANCH   3  19
TORSDOF 2
ENDMDL
MODEL 5
REMARK VINA RESULT:      -8.2      2.991      3.500
REMARK  Name = 
REMARK  3 active torsions:
REMARK  status: ('A' for Active; 'I' for Inactive)
REMARK    1  A    between atoms: C_1  and  C_2
REMARK    2  A    between atoms: C_3  and  C_4
REMARK    3  A    between atoms: C_9  and  C_10
REMARK                            x       y       z     vdW  Elec       q    Type
REMARK                         _______ _______ _______ _____ _____    ______ ____
ROOT
ATOM      1  C   UNL     1       1.745   9.857  17.763  0.00  0.00    +0.000 C 
ATOM      2  C   UNL     1       1.316   9.425  19.122  0.00  0.00    +0.000 A 
ATOM      3  C   UNL     1       0.463  10.026  20.041  0.00  0.00    +0.000 A 
ATOM      4  C   UNL     1       0.392   9.092  21.097  0.00  0.00    +0.000 A 
ATOM      5  N   UNL     1       1.163   8.023  20.915  0.00  0.00    +0.000 NA
ATOM      6  N   UNL     1       1.724   8.225  19.684  0.00  0.00    +0.000 N 
ATOM      7  C   UNL     1       2.575   7.229  19.157  0.00  0.00    +0.000 A 
ATOM      8  N   UNL     1       3.214   7.344  18.041  0.00  0.00    +0.000 NA
ATOM      9  C   UNL     1       3.990   6.275  17.665  0.00  0.00    +0.000 A 
ATOM     10  C   UNL     1       4.072   5.121  18.354  0.00  0.00    +0.000 A 
ATOM     11  C   UNL     1       3.311   5.013  19.623  0.00  0.00    +0.000 A 
ATOM     12  O   UNL     1       3.312   3.996  20.304  0.00  0.00    +0.000 OA
ATOM     13  N   UNL     1       2.619   6.131  19.971  0.00  0.00    +0.000 N 
ATOM     14  C   UNL     1       4.889   3.937  17.929  0.00  0.00    +0.000 C 
ATOM     15  C   UNL     1       5.437   4.067  16.506  0.00  0.00    +0.000 C 
ATOM     16  C   UNL     1       5.928   5.484  16.234  0.00  0.00    +0.000 C 
ATOM     17  C   UNL     1       4.786   6.487  16.399  0.00  0.00    +0.000 C 
ATOM     18  H   UNL     1       2.071   6.127  20.825  0.00  0.00    +0.000 HD
ENDROOT
BRANCH   3  19
ATOM     19  C   UNL     1      -0.273  11.274  19.868  0.00  0.00    +0.000 C 
ATOM     20  O   UNL     1      -0.072  11.976  18.879  0.00  0.00    +0.000 OA
ATOM     21  N   UNL     1      -1.230  11.621  20.824  0.00  0.00    +0.000 N 
ATOM     22  C   UNL     1      -2.210  12.649  20.480  0.00  0.00    +0.000 C 
ATOM     23  C   UNL     1      -2.163  13.803  21.476  0.00  0.00    +0.000 C 
ATOM     24  C   UNL     1      -2.327  13.317  22.923  0.00  0.00    +0.000 C 
ATOM     25  C   UNL     1      -1.279  12.232  23.217  0.00  0.00    +0.000 C 
ATOM     26  C   UNL     1      -1.302  11.098  22.188  0.00  0.00    +0.000 C 
BRANCH  24  27
ATOM     27  C   UNL     1      -3.751  12.852  23.243  0.00  0.00    +0.000 C 
ATOM     28  F   UNL     1      -4.367  12.307  22.173  0.00  0.00    +0.000 F 
ATOM     29  F   UNL     1      -3.788  11.942  24.237  0.00  0.00    +0.000 F 
ATOM     30  F   UNL     1      -4.504  13.904  23.642  0.00  0.00    +0.000 F 
ENDBRANCH  24  27
ENDBRANCH   3  19
TORSDOF 2
ENDMDL
MODEL 6
REMARK VINA RESULT:      -8.1      4.169      8.665
REMARK  Name = 
REMARK  3 active torsions:
REMARK  status: ('A' for Active; 'I' for Inactive)
REMARK    1  A    between atoms: C_1  and  C_2
REMARK    2  A    between atoms: C_3  and  C_4
REMARK    3  A    between atoms: C_9  and  C_10
REMARK                            x       y       z     vdW  Elec       q    Type
REMARK                         _______ _______ _______ _____ _____    ______ ____
ROOT
ATOM      1  C   UNL     1       1.842   7.697  20.801  0.00  0.00    +0.000 C 
ATOM      2  C   UNL     1       2.104   8.167  19.412  0.00  0.00    +0.000 A 
ATOM      3  C   UNL     1       2.915   7.641  18.412  0.00  0.00    +0.000 A 
ATOM      4  C   UNL     1       2.671   8.481  17.304  0.00  0.00    +0.000 A 
ATOM      5  N   UNL     1       1.837   9.483  17.568  0.00  0.00    +0.000 NA
ATOM      6  N   UNL     1       1.475   9.278  18.871  0.00  0.00    +0.000 N 
ATOM      7  C   UNL     1       0.540  10.156  19.460  0.00  0.00    +0.000 A 
ATOM      8  N   UNL     1       0.181  10.102  20.699  0.00  0.00    +0.000 NA
ATOM      9  C   UNL     1      -0.752  11.023  21.109  0.00  0.00    +0.000 A 
ATOM     10  C   UNL     1      -1.339  11.919  20.292  0.00  0.00    +0.000 A 
ATOM     11  C   UNL     1      -0.919  11.944  18.870  0.00  0.00    +0.000 A 
ATOM     12  O   UNL     1      -1.413  12.711  18.053  0.00  0.00    +0.000 OA
ATOM     13  N   UNL     1       0.057  11.053  18.546  0.00  0.00    +0.000 N 
ATOM     14  C   UNL     1      -2.385  12.902  20.726  0.00  0.00    +0.000 C 
ATOM     15  C   UNL     1      -2.910  12.635  22.139  0.00  0.00    +0.000 C 
ATOM     16  C   UNL     1      -1.775  12.245  23.081  0.00  0.00    +0.000 C 
ATOM     17  C   UNL     1      -1.078  10.979  22.583  0.00  0.00    +0.000 C 
ATOM     18  H   UNL     1       0.390  11.010  17.589  0.00  0.00    +0.000 HD
ENDROOT
BRANCH   3  19
ATOM     19  C   UNL     1       3.719   6.427  18.484  0.00  0.00    +0.000 C 
ATOM     20  O   UNL     1       4.945   6.495  18.436  0.00  0.00    +0.000 OA
ATOM     21  N   UNL     1       3.065   5.203  18.650  0.00  0.00    +0.000 N 
ATOM     22  C   UNL     1       3.853   4.052  19.085  0.00  0.00    +0.000 C 
ATOM     23  C   UNL     1       3.743   2.906  18.086  0.00  0.00    +0.000 C 
ATOM     24  C   UNL     1       2.281   2.527  17.807  0.00  0.00    +0.000 C 
ATOM     25  C   UNL     1       1.507   3.779  17.366  0.00  0.00    +0.000 C 
ATOM     26  C   UNL     1       1.657   4.941  18.352  0.00  0.00    +0.000 C 
BRANCH  24  27
ATOM     27  C   UNL     1       1.611   1.813  18.984  0.00  0.00    +0.000 C 
ATOM     28  F   UNL     1       2.189   0.624  19.261  0.00  0.00    +0.000 F 
ATOM     29  F   UNL     1       1.633   2.546  20.116  0.00  0.00    +0.000 F 
ATOM     30  F   UNL     1       0.311   1.567  18.699  0.00  0.00    +0.000 F 
ENDBRANCH  24  27
ENDBRANCH   3  19
TORSDOF 2
ENDMDL
MODEL 7
REMARK VINA RESULT:      -8.1      3.942      5.173
REMARK  Name = 
REMARK  3 active torsions:
REMARK  status: ('A' for Active; 'I' for Inactive)
REMARK    1  A    between atoms: C_1  and  C_2
REMARK    2  A    between atoms: C_3  and  C_4
REMARK    3  A    between atoms: C_9  and  C_10
REMARK                            x       y       z     vdW  Elec       q    Type
REMARK                         _______ _______ _______ _____ _____    ______ ____
ROOT
ATOM      1  C   UNL     1       0.868   8.721  21.082  0.00  0.00    +0.000 C 
ATOM      2  C   UNL     1       1.246   9.163  19.710  0.00  0.00    +0.000 A 
ATOM      3  C   UNL     1       1.071  10.383  19.067  0.00  0.00    +0.000 A 
ATOM      4  C   UNL     1       1.716  10.205  17.825  0.00  0.00    +0.000 A 
ATOM      5  N   UNL     1       2.208   8.982  17.650  0.00  0.00    +0.000 NA
ATOM      6  N   UNL     1       1.928   8.341  18.826  0.00  0.00    +0.000 N 
ATOM      7  C   UNL     1       2.368   7.011  18.993  0.00  0.00    +0.000 A 
ATOM      8  N   UNL     1       2.101   6.287  20.029  0.00  0.00    +0.000 NA
ATOM      9  C   UNL     1       2.618   5.015  20.041  0.00  0.00    +0.000 A 
ATOM     10  C   UNL     1       3.419   4.517  19.079  0.00  0.00    +0.000 A 
ATOM     11  C   UNL     1       3.725   5.379  17.912  0.00  0.00    +0.000 A 
ATOM     12  O   UNL     1       4.458   5.015  17.001  0.00  0.00    +0.000 OA
ATOM     13  N   UNL     1       3.124   6.600  17.930  0.00  0.00    +0.000 N 
ATOM     14  C   UNL     1       4.018   3.142  19.105  0.00  0.00    +0.000 C 
ATOM     15  C   UNL     1       3.835   2.433  20.449  0.00  0.00    +0.000 C 
ATOM     16  C   UNL     1       2.441   2.681  21.015  0.00  0.00    +0.000 C 
ATOM     17  C   UNL     1       2.209   4.177  21.228  0.00  0.00    +0.000 C 
ATOM     18  H   UNL     1       3.292   7.245  17.166  0.00  0.00    +0.000 HD
ENDROOT
BRANCH   3  19
ATOM     19  C   UNL     1       0.469  11.589  19.625  0.00  0.00    +0.000 C 
ATOM     20  O   UNL     1      -0.693  11.569  20.026  0.00  0.00    +0.000 OA
ATOM     21  N   UNL     1       1.254  12.740  19.727  0.00  0.00    +0.000 N 
ATOM     22  C   UNL     1       0.792  13.817  20.600  0.00  0.00    +0.000 C 
ATOM     23  C   UNL     1       0.645  15.122  19.827  0.00  0.00    +0.000 C 
ATOM     24  C   UNL     1       1.938  15.498  19.088  0.00  0.00    +0.000 C 
ATOM     25  C   UNL     1       2.375  14.324  18.198  0.00  0.00    +0.000 C 
ATOM     26  C   UNL     1       2.479  13.006  18.972  0.00  0.00    +0.000 C 
BRANCH  24  27
ATOM     27  C   UNL     1       3.053  15.964  20.028  0.00  0.00    +0.000 C 
ATOM     28  F   UNL     1       2.573  16.527  21.157  0.00  0.00    +0.000 F 
ATOM     29  F   UNL     1       3.874  14.958  20.396  0.00  0.00    +0.000 F 
ATOM     30  F   UNL     1       3.821  16.894  19.414  0.00  0.00    +0.000 F 
ENDBRANCH  24  27
ENDBRANCH   3  19
TORSDOF 2
ENDMDL
MODEL 8
REMARK VINA RESULT:      -8.0      4.649      8.742
REMARK  Name = 
REMARK  3 active torsions:
REMARK  status: ('A' for Active; 'I' for Inactive)
REMARK    1  A    between atoms: C_1  and  C_2
REMARK    2  A    between atoms: C_3  and  C_4
REMARK    3  A    between atoms: C_9  and  C_10
REMARK                            x       y       z     vdW  Elec       q    Type
REMARK                         _______ _______ _______ _____ _____    ______ ____
ROOT
ATOM      1  C   UNL     1       2.116  10.037  17.973  0.00  0.00    +0.000 C 
ATOM      2  C   UNL     1       1.803   9.057  19.050  0.00  0.00    +0.000 A 
ATOM      3  C   UNL     1       2.183   7.729  19.211  0.00  0.00    +0.000 A 
ATOM      4  C   UNL     1       1.645   7.374  20.466  0.00  0.00    +0.000 A 
ATOM      5  N   UNL     1       0.938   8.346  21.037  0.00  0.00    +0.000 NA
ATOM      6  N   UNL     1       1.049   9.393  20.164  0.00  0.00    +0.000 N 
ATOM      7  C   UNL     1       0.442  10.622  20.501  0.00  0.00    +0.000 A 
ATOM      8  N   UNL     1       0.422  11.653  19.724  0.00  0.00    +0.000 NA
ATOM      9  C   UNL     1      -0.199  12.777  20.211  0.00  0.00    +0.000 A 
ATOM     10  C   UNL     1      -0.722  12.875  21.448  0.00  0.00    +0.000 A 
ATOM     11  C   UNL     1      -0.666  11.680  22.324  0.00  0.00    +0.000 A 
ATOM     12  O   UNL     1      -1.100  11.684  23.469  0.00  0.00    +0.000 OA
ATOM     13  N   UNL     1      -0.101  10.581  21.756  0.00  0.00    +0.000 N 
ATOM     14  C   UNL     1      -1.368  14.112  21.999  0.00  0.00    +0.000 C 
ATOM     15  C   UNL     1      -1.163  15.342  21.110  0.00  0.00    +0.000 C 
ATOM     16  C   UNL     1      -1.308  14.984  19.635  0.00  0.00    +0.000 C 
ATOM     17  C   UNL     1      -0.275  13.929  19.237  0.00  0.00    +0.000 C 
ATOM     18  H   UNL     1      -0.024   9.728  22.299  0.00  0.00    +0.000 HD
ENDROOT
BRANCH   3  19
ATOM     19  C   UNL     1       3.047   6.952  18.329  0.00  0.00    +0.000 C 
ATOM     20  O   UNL     1       3.772   7.523  17.516  0.00  0.00    +0.000 OA
ATOM     21  N   UNL     1       3.057   5.562  18.463  0.00  0.00    +0.000 N 
ATOM     22  C   UNL     1       4.161   4.818  17.860  0.00  0.00    +0.000 C 
ATOM     23  C   UNL     1       3.644   3.778  16.872  0.00  0.00    +0.000 C 
ATOM     24  C   UNL     1       2.606   2.845  17.514  0.00  0.00    +0.000 C 
ATOM     25  C   UNL     1       1.482   3.687  18.138  0.00  0.00    +0.000 C 
ATOM     26  C   UNL     1       2.011   4.758  19.096  0.00  0.00    +0.000 C 
BRANCH  24  27
ATOM     27  C   UNL     1       3.221   1.861  18.514  0.00  0.00    +0.000 C 
ATOM     28  F   UNL     1       3.823   0.817  17.905  0.00  0.00    +0.000 F 
ATOM     29  F   UNL     1       4.136   2.442  19.316  0.00  0.00    +0.000 F 
ATOM     30  F   UNL     1       2.257   1.353  19.317  0.00  0.00    +0.000 F 
ENDBRANCH  24  27
ENDBRANCH   3  19
TORSDOF 2
ENDMDL
