MODEL 1
REMARK VINA RESULT:      -9.0      0.000      0.000
REMARK  Name = 
REMARK  6 active torsions:
REMARK  status: ('A' for Active; 'I' for Inactive)
REMARK    1  A    between atoms: C_1  and  C_2
REMARK    2  A    between atoms: C_2  and  C_3
REMARK    3  A    between atoms: C_5  and  C_6
REMARK    4  A    between atoms: C_9  and  S_10
REMARK    5  A    between atoms: S_10  and  N_11
REMARK    6  A    between atoms: C_16  and  C_17
REMARK                            x       y       z     vdW  Elec       q    Type
REMARK                         _______ _______ _______ _____ _____    ______ ____
ROOT
ATOM      1  C   UNL     1       5.389   5.794  14.878  0.00  0.00    +0.000 C 
ATOM      2  C   UNL     1       5.496   5.810  16.396  0.00  0.00    +0.000 C 
ATOM      3  C   UNL     1       6.933   5.977  16.873  0.00  0.00    +0.000 C 
ATOM      4  O   UNL     1       4.704   6.899  16.916  0.00  0.00    +0.000 OA
ATOM      5  C   UNL     1       3.746   6.310  17.733  0.00  0.00    +0.000 C 
ATOM      6  C   UNL     1       3.724   4.980  17.845  0.00  0.00    +0.000 C 
ATOM      7  C   UNL     1       4.852   4.583  17.004  0.00  0.00    +0.000 C 
ATOM      8  O   UNL     1       5.212   3.427  16.833  0.00  0.00    +0.000 OA
ENDROOT
BRANCH   6   9
ATOM      9  C   UNL     1       2.857   4.132  18.641  0.00  0.00    +0.000 A 
ATOM     10  C   UNL     1       1.561   3.827  18.203  0.00  0.00    +0.000 A 
ATOM     11  C   UNL     1       0.692   3.095  19.019  0.00  0.00    +0.000 A 
ATOM     12  C   UNL     1       1.116   2.665  20.275  0.00  0.00    +0.000 A 
ATOM     13  C   UNL     1       2.408   2.956  20.696  0.00  0.00    +0.000 A 
ATOM     14  F   UNL     1       2.813   2.546  21.906  0.00  0.00    +0.000 F 
ATOM     15  C   UNL     1       3.282   3.679  19.894  0.00  0.00    +0.000 A 
ENDBRANCH   6   9
BRANCH   5  16
ATOM     16  C   UNL     1       2.861   7.238  18.431  0.00  0.00    +0.000 A 
ATOM     17  C   UNL     1       2.495   6.983  19.759  0.00  0.00    +0.000 A 
ATOM     18  C   UNL     1       1.667   7.873  20.444  0.00  0.00    +0.000 A 
ATOM     19  C   UNL     1       1.210   9.023  19.794  0.00  0.00    +0.000 A 
ATOM     20  C   UNL     1       1.545   9.276  18.461  0.00  0.00    +0.000 A 
ATOM     21  C   UNL     1       2.374   8.380  17.780  0.00  0.00    +0.000 A 
BRANCH  19  22
ATOM     22  S   UNL     1       0.187  10.163  20.675  0.00  0.00    +0.000 S 
ATOM     23  O   UNL     1       1.021  11.133  21.346  0.00  0.00    +0.000 OA
ATOM     24  O   UNL     1      -0.931  10.542  19.844  0.00  0.00    +0.000 OA
BRANCH  22  25
ATOM     25  N   UNL     1      -0.442   9.176  21.878  0.00  0.00    +0.000 NA
ATOM     26  H   UNL     1       0.314   8.722  22.391  0.00  0.00    +0.000 HD
ATOM     27  H   UNL     1      -1.089   9.703  22.462  0.00  0.00    +0.000 HD
ENDBRANCH  22  25
ENDBRANCH  19  22
ENDBRANCH   5  16
TORSDOF 4
ENDMDL
MODEL 2
REMARK VINA RESULT:      -9.0      2.379      4.446
REMARK  Name = 
REMARK  6 active torsions:
REMARK  status: ('A' for Active; 'I' for Inactive)
REMARK    1  A    between atoms: C_1  and  C_2
REMARK    2  A    between atoms: C_2  and  C_3
REMARK    3  A    between atoms: C_5  and  C_6
REMARK    4  A    between atoms: C_9  and  S_10
REMARK    5  A    between atoms: S_10  and  N_11
REMARK    6  A    between atoms: C_16  and  C_17
REMARK                            x       y       z     vdW  Elec       q    Type
REMARK                         _______ _______ _______ _____ _____    ______ ____
ROOT
ATOM      1  C   UNL     1       2.226   2.562  21.462  0.00  0.00    +0.000 C 
ATOM      2  C   UNL     1       2.085   3.094  20.043  0.00  0.00    +0.000 C 
ATOM      3  C   UNL     1       1.156   2.237  19.193  0.00  0.00    +0.000 C 
ATOM      4  O   UNL     1       1.563   4.439  20.091  0.00  0.00    +0.000 OA
ATOM      5  C   UNL     1       2.533   5.240  19.500  0.00  0.00    +0.000 C 
ATOM      6  C   UNL     1       3.664   4.672  19.072  0.00  0.00    +0.000 C 
ATOM      7  C   UNL     1       3.437   3.262  19.385  0.00  0.00    +0.000 C 
ATOM      8  O   UNL     1       4.229   2.365  19.138  0.00  0.00    +0.000 OA
ENDROOT
BRANCH   6   9
ATOM      9  C   UNL     1       4.806   5.271  18.406  0.00  0.00    +0.000 A 
ATOM     10  C   UNL     1       4.794   5.478  17.020  0.00  0.00    +0.000 A 
ATOM     11  C   UNL     1       5.934   5.960  16.367  0.00  0.00    +0.000 A 
ATOM     12  C   UNL     1       7.088   6.235  17.097  0.00  0.00    +0.000 A 
ATOM     13  C   UNL     1       7.088   6.043  18.474  0.00  0.00    +0.000 A 
ATOM     14  F   UNL     1       8.199   6.304  19.175  0.00  0.00    +0.000 F 
ATOM     15  C   UNL     1       5.961   5.569  19.135  0.00  0.00    +0.000 A 
ENDBRANCH   6   9
BRANCH   5  16
ATOM     16  C   UNL     1       2.189   6.653  19.373  0.00  0.00    +0.000 A 
ATOM     17  C   UNL     1       2.293   7.285  18.128  0.00  0.00    +0.000 A 
ATOM     18  C   UNL     1       1.947   8.629  17.990  0.00  0.00    +0.000 A 
ATOM     19  C   UNL     1       1.492   9.338  19.104  0.00  0.00    +0.000 A 
ATOM     20  C   UNL     1       1.409   8.728  20.359  0.00  0.00    +0.000 A 
ATOM     21  C   UNL     1       1.758   7.381  20.491  0.00  0.00    +0.000 A 
BRANCH  19  22
ATOM     22  S   UNL     1       1.025  11.032  18.919  0.00  0.00    +0.000 S 
ATOM     23  O   UNL     1      -0.270  11.103  18.282  0.00  0.00    +0.000 OA
ATOM     24  O   UNL     1       1.335  11.749  20.133  0.00  0.00    +0.000 OA
BRANCH  22  25
ATOM     25  N   UNL     1       2.135  11.554  17.774  0.00  0.00    +0.000 NA
ATOM     26  H   UNL     1       2.073  12.566  17.659  0.00  0.00    +0.000 HD
ATOM     27  H   UNL     1       3.067  11.213  18.006  0.00  0.00    +0.000 HD
ENDBRANCH  22  25
ENDBRANCH  19  22
ENDBRANCH   5  16
TORSDOF 4
ENDMDL
MODEL 3
REMARK VINA RESULT:      -9.0      0.720      1.307
REMARK  Name = 
REMARK  6 active torsions:
REMARK  status: ('A' for Active; 'I' for Inactive)
REMARK    1  A    between atoms: C_1  and  C_2
REMARK    2  A    between atoms: C_2  and  C_3
REMARK    3  A    between atoms: C_5  and  C_6
REMARK    4  A    between atoms: C_9  and  S_10
REMARK    5  A    between atoms: S_10  and  N_11
REMARK    6  A    between atoms: C_16  and  C_17
REMARK                            x       y       z     vdW  Elec       q    Type
REMARK                         _______ _______ _______ _____ _____    ______ ____
ROOT
ATOM      1  C   UNL     1       5.438   5.878  14.972  0.00  0.00    +0.000 C 
ATOM      2  C   UNL     1       5.512   5.862  16.492  0.00  0.00    +0.000 C 
ATOM      3  C   UNL     1       6.939   6.009  17.004  0.00  0.00    +0.000 C 
ATOM      4  O   UNL     1       4.716   6.946  17.017  0.00  0.00    +0.000 OA
ATOM      5  C   UNL     1       3.737   6.348  17.801  0.00  0.00    +0.000 C 
ATOM      6  C   UNL     1       3.704   5.015  17.886  0.00  0.00    +0.000 C 
ATOM      7  C   UNL     1       4.847   4.628  17.061  0.00  0.00    +0.000 C 
ATOM      8  O   UNL     1       5.203   3.473  16.875  0.00  0.00    +0.000 OA
ENDROOT
BRANCH   6   9
ATOM      9  C   UNL     1       2.814   4.157  18.645  0.00  0.00    +0.000 A 
ATOM     10  C   UNL     1       1.534   3.851  18.162  0.00  0.00    +0.000 A 
ATOM     11  C   UNL     1       0.642   3.109  18.942  0.00  0.00    +0.000 A 
ATOM     12  C   UNL     1       1.025   2.671  20.208  0.00  0.00    +0.000 A 
ATOM     13  C   UNL     1       2.301   2.963  20.675  0.00  0.00    +0.000 A 
ATOM     14  F   UNL     1       2.668   2.545  21.894  0.00  0.00    +0.000 F 
ATOM     15  C   UNL     1       3.199   3.696  19.908  0.00  0.00    +0.000 A 
ENDBRANCH   6   9
BRANCH   5  16
ATOM     16  C   UNL     1       2.843   7.268  18.499  0.00  0.00    +0.000 A 
ATOM     17  C   UNL     1       2.341   8.391  17.830  0.00  0.00    +0.000 A 
ATOM     18  C   UNL     1       1.470   9.266  18.479  0.00  0.00    +0.000 A 
ATOM     19  C   UNL     1       1.100   9.009  19.803  0.00  0.00    +0.000 A 
ATOM     20  C   UNL     1       1.615   7.907  20.491  0.00  0.00    +0.000 A 
ATOM     21  C   UNL     1       2.488   7.035  19.835  0.00  0.00    +0.000 A 
BRANCH  19  22
ATOM     22  S   UNL     1      -0.027  10.102  20.611  0.00  0.00    +0.000 S 
ATOM     23  O   UNL     1      -0.866  10.741  19.623  0.00  0.00    +0.000 OA
ATOM     24  O   UNL     1      -0.564   9.453  21.784  0.00  0.00    +0.000 OA
BRANCH  22  25
ATOM     25  N   UNL     1       1.016  11.290  21.175  0.00  0.00    +0.000 NA
ATOM     26  H   UNL     1       1.143  12.013  20.465  0.00  0.00    +0.000 HD
ATOM     27  H   UNL     1       0.698  11.639  22.077  0.00  0.00    +0.000 HD
ENDBRANCH  22  25
ENDBRANCH  19  22
ENDBRANCH   5  16
TORSDOF 4
ENDMDL
MODEL 4
REMARK VINA RESULT:      -8.9      1.346      1.739
REMARK  Name = 
REMARK  6 active torsions:
REMARK  status: ('A' for Active; 'I' for Inactive)
REMARK    1  A    between atoms: C_1  and  C_2
REMARK    2  A    between atoms: C_2  and  C_3
REMARK    3  A    between atoms: C_5  and  C_6
REMARK    4  A    between atoms: C_9  and  S_10
REMARK    5  A    between atoms: S_10  and  N_11
REMARK    6  A    between atoms: C_16  and  C_17
REMARK                            x       y       z     vdW  Elec       q    Type
REMARK                         _______ _______ _______ _____ _____    ______ ____
ROOT
ATOM      1  C   UNL     1       5.355   5.976  15.345  0.00  0.00    +0.000 C 
ATOM      2  C   UNL     1       5.352   6.165  16.855  0.00  0.00    +0.000 C 
ATOM      3  C   UNL     1       6.743   6.451  17.406  0.00  0.00    +0.000 C 
ATOM      4  O   UNL     1       4.482   7.266  17.193  0.00  0.00    +0.000 OA
ATOM      5  C   UNL     1       3.492   6.726  18.005  0.00  0.00    +0.000 C 
ATOM      6  C   UNL     1       3.514   5.417  18.266  0.00  0.00    +0.000 C 
ATOM      7  C   UNL     1       4.715   4.983  17.553  0.00  0.00    +0.000 C 
ATOM      8  O   UNL     1       5.131   3.834  17.540  0.00  0.00    +0.000 OA
ENDROOT
BRANCH   6   9
ATOM      9  C   UNL     1       2.626   4.622  19.094  0.00  0.00    +0.000 A 
ATOM     10  C   UNL     1       2.771   4.610  20.488  0.00  0.00    +0.000 A 
ATOM     11  C   UNL     1       1.981   3.765  21.274  0.00  0.00    +0.000 A 
ATOM     12  C   UNL     1       1.044   2.930  20.670  0.00  0.00    +0.000 A 
ATOM     13  C   UNL     1       0.892   2.959  19.289  0.00  0.00    +0.000 A 
ATOM     14  F   UNL     1      -0.006   2.153  18.708  0.00  0.00    +0.000 F 
ATOM     15  C   UNL     1       1.668   3.797  18.496  0.00  0.00    +0.000 A 
ENDBRANCH   6   9
BRANCH   5  16
ATOM     16  C   UNL     1       2.523   7.683  18.533  0.00  0.00    +0.000 A 
ATOM     17  C   UNL     1       2.165   7.635  19.886  0.00  0.00    +0.000 A 
ATOM     18  C   UNL     1       1.256   8.556  20.407  0.00  0.00    +0.000 A 
ATOM     19  C   UNL     1       0.710   9.531  19.567  0.00  0.00    +0.000 A 
ATOM     20  C   UNL     1       1.037   9.573  18.209  0.00  0.00    +0.000 A 
ATOM     21  C   UNL     1       1.947   8.647  17.693  0.00  0.00    +0.000 A 
BRANCH  19  22
ATOM     22  S   UNL     1      -0.417  10.716  20.237  0.00  0.00    +0.000 S 
ATOM     23  O   UNL     1      -1.504  10.920  19.307  0.00  0.00    +0.000 OA
ATOM     24  O   UNL     1      -0.633  10.431  21.635  0.00  0.00    +0.000 OA
BRANCH  22  25
ATOM     25  N   UNL     1       0.510  12.114  20.185  0.00  0.00    +0.000 NA
ATOM     26  H   UNL     1      -0.006  12.893  20.595  0.00  0.00    +0.000 HD
ATOM     27  H   UNL     1       1.423  11.947  20.604  0.00  0.00    +0.000 HD
ENDBRANCH  22  25
ENDBRANCH  19  22
ENDBRANCH   5  16
TORSDOF 4
ENDMDL
MODEL 5
REMARK VINA RESULT:      -8.9      2.379      4.331
REMARK  Name = 
REMARK  6 active torsions:
REMARK  status: ('A' for Active; 'I' for Inactive)
REMARK    1  A    between atoms: C_1  and  C_2
REMARK    2  A    between atoms: C_2  and  C_3
REMARK    3  A    between atoms: C_5  and  C_6
REMARK    4  A    between atoms: C_9  and  S_10
REMARK    5  A    between atoms: S_10  and  N_11
REMARK    6  A    between atoms: C_16  and  C_17
REMARK                            x       y       z     vdW  Elec       q    Type
REMARK                         _______ _______ _______ _____ _____    ______ ____
ROOT
ATOM      1  C   UNL     1       2.394   2.576  21.559  0.00  0.00    +0.000 C 
ATOM      2  C   UNL     1       2.244   3.066  20.126  0.00  0.00    +0.000 C 
ATOM      3  C   UNL     1       1.338   2.164  19.298  0.00  0.00    +0.000 C 
ATOM      4  O   UNL     1       1.690   4.398  20.137  0.00  0.00    +0.000 OA
ATOM      5  C   UNL     1       2.643   5.206  19.526  0.00  0.00    +0.000 C 
ATOM      6  C   UNL     1       3.787   4.655  19.115  0.00  0.00    +0.000 C 
ATOM      7  C   UNL     1       3.593   3.249  19.466  0.00  0.00    +0.000 C 
ATOM      8  O   UNL     1       4.407   2.364  19.245  0.00  0.00    +0.000 OA
ENDROOT
BRANCH   6   9
ATOM      9  C   UNL     1       4.916   5.262  18.436  0.00  0.00    +0.000 A 
ATOM     10  C   UNL     1       4.890   5.462  17.049  0.00  0.00    +0.000 A 
ATOM     11  C   UNL     1       6.018   5.953  16.383  0.00  0.00    +0.000 A 
ATOM     12  C   UNL     1       7.176   6.244  17.101  0.00  0.00    +0.000 A 
ATOM     13  C   UNL     1       7.190   6.060  18.479  0.00  0.00    +0.000 A 
ATOM     14  F   UNL     1       8.305   6.337  19.168  0.00  0.00    +0.000 F 
ATOM     15  C   UNL     1       6.075   5.577  19.153  0.00  0.00    +0.000 A 
ENDBRANCH   6   9
BRANCH   5  16
ATOM     16  C   UNL     1       2.265   6.607  19.361  0.00  0.00    +0.000 A 
ATOM     17  C   UNL     1       1.842   7.348  20.472  0.00  0.00    +0.000 A 
ATOM     18  C   UNL     1       1.498   8.693  20.330  0.00  0.00    +0.000 A 
ATOM     19  C   UNL     1       1.583   9.294  19.071  0.00  0.00    +0.000 A 
ATOM     20  C   UNL     1       1.976   8.559  17.950  0.00  0.00    +0.000 A 
ATOM     21  C   UNL     1       2.319   7.212  18.098  0.00  0.00    +0.000 A 
BRANCH  19  22
ATOM     22  S   UNL     1       1.177  11.005  18.902  0.00  0.00    +0.000 S 
ATOM     23  O   UNL     1       0.710  11.513  20.172  0.00  0.00    +0.000 OA
ATOM     24  O   UNL     1       2.202  11.666  18.130  0.00  0.00    +0.000 OA
BRANCH  22  25
ATOM     25  N   UNL     1      -0.174  10.924  17.909  0.00  0.00    +0.000 NA
ATOM     26  H   UNL     1      -0.957  10.508  18.413  0.00  0.00    +0.000 HD
ATOM     27  H   UNL     1      -0.370  11.839  17.507  0.00  0.00    +0.000 HD
ENDBRANCH  22  25
ENDBRANCH  19  22
ENDBRANCH   5  16
TORSDOF 4
ENDMDL
MODEL 6
REMARK VINA RESULT:      -8.8      1.084      1.712
REMARK  Name = 
REMARK  6 active torsions:
REMARK  status: ('A' for Active; 'I' for Inactive)
REMARK    1  A    between atoms: C_1  and  C_2
REMARK    2  A    between atoms: C_2  and  C_3
REMARK    3  A    between atoms: C_5  and  C_6
REMARK    4  A    between atoms: C_9  and  S_10
REMARK    5  A    between atoms: S_10  and  N_11
REMARK    6  A    between atoms: C_16  and  C_17
REMARK                            x       y       z     vdW  Elec       q    Type
REMARK                         _______ _______ _______ _____ _____    ______ ____
ROOT
ATOM      1  C   UNL     1       5.499   5.734  15.251  0.00  0.00    +0.000 C 
ATOM      2  C   UNL     1       5.503   5.922  16.761  0.00  0.00    +0.000 C 
ATOM      3  C   UNL     1       6.905   6.144  17.312  0.00  0.00    +0.000 C 
ATOM      4  O   UNL     1       4.685   7.063  17.098  0.00  0.00    +0.000 OA
ATOM      5  C   UNL     1       3.670   6.570  17.910  0.00  0.00    +0.000 C 
ATOM      6  C   UNL     1       3.632   5.261  18.171  0.00  0.00    +0.000 C 
ATOM      7  C   UNL     1       4.811   4.772  17.459  0.00  0.00    +0.000 C 
ATOM      8  O   UNL     1       5.174   3.605  17.445  0.00  0.00    +0.000 OA
ENDROOT
BRANCH   6   9
ATOM      9  C   UNL     1       2.707   4.508  18.997  0.00  0.00    +0.000 A 
ATOM     10  C   UNL     1       2.841   4.502  20.393  0.00  0.00    +0.000 A 
ATOM     11  C   UNL     1       2.013   3.695  21.180  0.00  0.00    +0.000 A 
ATOM     12  C   UNL     1       1.049   2.891  20.575  0.00  0.00    +0.000 A 
ATOM     13  C   UNL     1       0.909   2.914  19.192  0.00  0.00    +0.000 A 
ATOM     14  F   UNL     1      -0.015   2.138  18.611  0.00  0.00    +0.000 F 
ATOM     15  C   UNL     1       1.723   3.714  18.399  0.00  0.00    +0.000 A 
ENDBRANCH   6   9
BRANCH   5  16
ATOM     16  C   UNL     1       2.746   7.570  18.437  0.00  0.00    +0.000 A 
ATOM     17  C   UNL     1       2.321   8.624  17.617  0.00  0.00    +0.000 A 
ATOM     18  C   UNL     1       1.423   9.574  18.102  0.00  0.00    +0.000 A 
ATOM     19  C   UNL     1       0.948   9.464  19.412  0.00  0.00    +0.000 A 
ATOM     20  C   UNL     1       1.385   8.433  20.249  0.00  0.00    +0.000 A 
ATOM     21  C   UNL     1       2.285   7.485  19.758  0.00  0.00    +0.000 A 
BRANCH  19  22
ATOM     22  S   UNL     1      -0.214  10.651  20.013  0.00  0.00    +0.000 S 
ATOM     23  O   UNL     1       0.456  11.916  20.211  0.00  0.00    +0.000 OA
ATOM     24  O   UNL     1      -1.446  10.532  19.270  0.00  0.00    +0.000 OA
BRANCH  22  25
ATOM     25  N   UNL     1      -0.535  10.049  21.546  0.00  0.00    +0.000 NA
ATOM     26  H   UNL     1      -0.281  10.738  22.255  0.00  0.00    +0.000 HD
ATOM     27  H   UNL     1      -1.498   9.724  21.602  0.00  0.00    +0.000 HD
ENDBRANCH  22  25
ENDBRANCH  19  22
ENDBRANCH   5  16
TORSDOF 4
ENDMDL
MODEL 7
REMARK VINA RESULT:      -8.6      2.526      4.626
REMARK  Name = 
REMARK  6 active torsions:
REMARK  status: ('A' for Active; 'I' for Inactive)
REMARK    1  A    between atoms: C_1  and  C_2
REMARK    2  A    between atoms: C_2  and  C_3
REMARK    3  A    between atoms: C_5  and  C_6
REMARK    4  A    between atoms: C_9  and  S_10
REMARK    5  A    between atoms: S_10  and  N_11
REMARK    6  A    between atoms: C_16  and  C_17
REMARK                            x       y       z     vdW  Elec       q    Type
REMARK                         _______ _______ _______ _____ _____    ______ ____
ROOT
ATOM      1  C   UNL     1       2.092   2.528  21.545  0.00  0.00    +0.000 C 
ATOM      2  C   UNL     1       1.899   3.052  20.129  0.00  0.00    +0.000 C 
ATOM      3  C   UNL     1       0.896   2.224  19.337  0.00  0.00    +0.000 C 
ATOM      4  O   UNL     1       1.432   4.416  20.188  0.00  0.00    +0.000 OA
ATOM      5  C   UNL     1       2.402   5.173  19.540  0.00  0.00    +0.000 C 
ATOM      6  C   UNL     1       3.486   4.558  19.061  0.00  0.00    +0.000 C 
ATOM      7  C   UNL     1       3.221   3.161  19.400  0.00  0.00    +0.000 C 
ATOM      8  O   UNL     1       3.965   2.231  19.124  0.00  0.00    +0.000 OA
ENDROOT
BRANCH   6   9
ATOM      9  C   UNL     1       4.615   5.105  18.331  0.00  0.00    +0.000 A 
ATOM     10  C   UNL     1       5.769   5.521  19.011  0.00  0.00    +0.000 A 
ATOM     11  C   UNL     1       6.813   6.141  18.318  0.00  0.00    +0.000 A 
ATOM     12  C   UNL     1       6.708   6.349  16.944  0.00  0.00    +0.000 A 
ATOM     13  C   UNL     1       5.568   5.920  16.274  0.00  0.00    +0.000 A 
ATOM     14  F   UNL     1       5.466   6.124  14.953  0.00  0.00    +0.000 F 
ATOM     15  C   UNL     1       4.525   5.299  16.949  0.00  0.00    +0.000 A 
ENDBRANCH   6   9
BRANCH   5  16
ATOM     16  C   UNL     1       2.106   6.598  19.415  0.00  0.00    +0.000 A 
ATOM     17  C   UNL     1       2.217   7.224  18.167  0.00  0.00    +0.000 A 
ATOM     18  C   UNL     1       1.917   8.579  18.031  0.00  0.00    +0.000 A 
ATOM     19  C   UNL     1       1.501   9.306  19.150  0.00  0.00    +0.000 A 
ATOM     20  C   UNL     1       1.412   8.700  20.407  0.00  0.00    +0.000 A 
ATOM     21  C   UNL     1       1.715   7.342  20.537  0.00  0.00    +0.000 A 
BRANCH  19  22
ATOM     22  S   UNL     1       1.092  11.015  18.968  0.00  0.00    +0.000 S 
ATOM     23  O   UNL     1      -0.191  11.131  18.314  0.00  0.00    +0.000 OA
ATOM     24  O   UNL     1       1.409  11.715  20.190  0.00  0.00    +0.000 OA
BRANCH  22  25
ATOM     25  N   UNL     1       2.235  11.506  17.841  0.00  0.00    +0.000 NA
ATOM     26  H   UNL     1       2.948  10.785  17.725  0.00  0.00    +0.000 HD
ATOM     27  H   UNL     1       1.777  11.787  16.975  0.00  0.00    +0.000 HD
ENDBRANCH  22  25
ENDBRANCH  19  22
ENDBRANCH   5  16
TORSDOF 4
ENDMDL
MODEL 8
REMARK VINA RESULT:      -8.6      2.516      4.504
REMARK  Name = 
REMARK  6 active torsions:
REMARK  status: ('A' for Active; 'I' for Inactive)
REMARK    1  A    between atoms: C_1  and  C_2
REMARK    2  A    between atoms: C_2  and  C_3
REMARK    3  A    between atoms: C_5  and  C_6
REMARK    4  A    between atoms: C_9  and  S_10
REMARK    5  A    between atoms: S_10  and  N_11
REMARK    6  A    between atoms: C_16  and  C_17
REMARK                            x       y       z     vdW  Elec       q    Type
REMARK                         _______ _______ _______ _____ _____    ______ ____
ROOT
ATOM      1  C   UNL     1       2.140   2.546  21.542  0.00  0.00    +0.000 C 
ATOM      2  C   UNL     1       1.969   3.038  20.112  0.00  0.00    +0.000 C 
ATOM      3  C   UNL     1       0.980   2.190  19.322  0.00  0.00    +0.000 C 
ATOM      4  O   UNL     1       1.499   4.403  20.133  0.00  0.00    +0.000 OA
ATOM      5  C   UNL     1       2.477   5.147  19.483  0.00  0.00    +0.000 C 
ATOM      6  C   UNL     1       3.570   4.523  19.035  0.00  0.00    +0.000 C 
ATOM      7  C   UNL     1       3.302   3.134  19.402  0.00  0.00    +0.000 C 
ATOM      8  O   UNL     1       4.052   2.200  19.158  0.00  0.00    +0.000 OA
ENDROOT
BRANCH   6   9
ATOM      9  C   UNL     1       4.709   5.056  18.312  0.00  0.00    +0.000 A 
ATOM     10  C   UNL     1       5.830   5.538  19.003  0.00  0.00    +0.000 A 
ATOM     11  C   UNL     1       6.882   6.144  18.309  0.00  0.00    +0.000 A 
ATOM     12  C   UNL     1       6.817   6.272  16.923  0.00  0.00    +0.000 A 
ATOM     13  C   UNL     1       5.711   5.777  16.242  0.00  0.00    +0.000 A 
ATOM     14  F   UNL     1       5.648   5.903  14.909  0.00  0.00    +0.000 F 
ATOM     15  C   UNL     1       4.661   5.169  16.919  0.00  0.00    +0.000 A 
ENDBRANCH   6   9
BRANCH   5  16
ATOM     16  C   UNL     1       2.181   6.567  19.321  0.00  0.00    +0.000 A 
ATOM     17  C   UNL     1       1.731   7.313  20.419  0.00  0.00    +0.000 A 
ATOM     18  C   UNL     1       1.465   8.675  20.282  0.00  0.00    +0.000 A 
ATOM     19  C   UNL     1       1.654   9.290  19.041  0.00  0.00    +0.000 A 
ATOM     20  C   UNL     1       2.075   8.553  17.932  0.00  0.00    +0.000 A 
ATOM     21  C   UNL     1       2.340   7.188  18.074  0.00  0.00    +0.000 A 
BRANCH  19  22
ATOM     22  S   UNL     1       1.345  11.022  18.880  0.00  0.00    +0.000 S 
ATOM     23  O   UNL     1       0.992  11.566  20.171  0.00  0.00    +0.000 OA
ATOM     24  O   UNL     1       2.358  11.612  18.038  0.00  0.00    +0.000 OA
BRANCH  22  25
ATOM     25  N   UNL     1      -0.068  11.019  17.975  0.00  0.00    +0.000 NA
ATOM     26  H   UNL     1      -0.462  10.079  17.940  0.00  0.00    +0.000 HD
ATOM     27  H   UNL     1      -0.709  11.731  18.320  0.00  0.00    +0.000 HD
ENDBRANCH  22  25
ENDBRANCH  19  22
ENDBRANCH   5  16
TORSDOF 4
ENDMDL
MODEL 9
REMARK VINA RESULT:      -8.4      1.110      1.319
REMARK  Name = 
REMARK  6 active torsions:
REMARK  status: ('A' for Active; 'I' for Inactive)
REMARK    1  A    between atoms: C_1  and  C_2
REMARK    2  A    between atoms: C_2  and  C_3
REMARK    3  A    between atoms: C_5  and  C_6
REMARK    4  A    between atoms: C_9  and  S_10
REMARK    5  A    between atoms: S_10  and  N_11
REMARK    6  A    between atoms: C_16  and  C_17
REMARK                            x       y       z     vdW  Elec       q    Type
REMARK                         _______ _______ _______ _____ _____    ______ ____
ROOT
ATOM      1  C   UNL     1       6.012   5.682  15.499  0.00  0.00    +0.000 C 
ATOM      2  C   UNL     1       5.844   5.890  16.997  0.00  0.00    +0.000 C 
ATOM      3  C   UNL     1       7.172   6.143  17.699  0.00  0.00    +0.000 C 
ATOM      4  O   UNL     1       4.976   7.021  17.224  0.00  0.00    +0.000 OA
ATOM      5  C   UNL     1       3.883   6.521  17.924  0.00  0.00    +0.000 C 
ATOM      6  C   UNL     1       3.836   5.215  18.198  0.00  0.00    +0.000 C 
ATOM      7  C   UNL     1       5.096   4.737  17.630  0.00  0.00    +0.000 C 
ATOM      8  O   UNL     1       5.476   3.576  17.675  0.00  0.00    +0.000 OA
ENDROOT
BRANCH   6   9
ATOM      9  C   UNL     1       2.836   4.457  18.927  0.00  0.00    +0.000 A 
ATOM     10  C   UNL     1       1.689   3.981  18.276  0.00  0.00    +0.000 A 
ATOM     11  C   UNL     1       0.679   3.341  19.001  0.00  0.00    +0.000 A 
ATOM     12  C   UNL     1       0.812   3.174  20.378  0.00  0.00    +0.000 A 
ATOM     13  C   UNL     1       1.960   3.633  21.015  0.00  0.00    +0.000 A 
ATOM     14  F   UNL     1       2.085   3.475  22.340  0.00  0.00    +0.000 F 
ATOM     15  C   UNL     1       2.972   4.268  20.306  0.00  0.00    +0.000 A 
ENDBRANCH   6   9
BRANCH   5  16
ATOM     16  C   UNL     1       2.890   7.513  18.329  0.00  0.00    +0.000 A 
ATOM     17  C   UNL     1       2.341   7.460  19.616  0.00  0.00    +0.000 A 
ATOM     18  C   UNL     1       1.408   8.414  20.022  0.00  0.00    +0.000 A 
ATOM     19  C   UNL     1       1.028   9.424  19.133  0.00  0.00    +0.000 A 
ATOM     20  C   UNL     1       1.548   9.472  17.837  0.00  0.00    +0.000 A 
ATOM     21  C   UNL     1       2.482   8.513  17.436  0.00  0.00    +0.000 A 
BRANCH  19  22
ATOM     22  S   UNL     1      -0.131  10.648  19.662  0.00  0.00    +0.000 S 
ATOM     23  O   UNL     1      -1.467  10.222  19.314  0.00  0.00    +0.000 OA
ATOM     24  O   UNL     1       0.221  11.099  20.987  0.00  0.00    +0.000 OA
BRANCH  22  25
ATOM     25  N   UNL     1       0.238  11.916  18.626  0.00  0.00    +0.000 NA
ATOM     26  H   UNL     1      -0.270  12.757  18.904  0.00  0.00    +0.000 HD
ATOM     27  H   UNL     1       1.247  12.037  18.563  0.00  0.00    +0.000 HD
ENDBRANCH  22  25
ENDBRANCH  19  22
ENDBRANCH   5  16
TORSDOF 4
ENDMDL
