MODEL 1
REMARK VINA RESULT:      -8.6      0.000      0.000
REMARK  Name = 
REMARK  11 active torsions:
REMARK  status: ('A' for Active; 'I' for Inactive)
REMARK    1  A    between atoms: C_1  and  C_2
REMARK    2  A    between atoms: C_2  and  C_3
REMARK    3  A    between atoms: C_2  and  C_4
REMARK    4  A    between atoms: C_4  and  C_5
REMARK    5  A    between atoms: N_7  and  C_8
REMARK    6  A    between atoms: N_7  and  C_25
REMARK    7  A    between atoms: C_8  and  C_9
REMARK    8  A    between atoms: C_9  and  N_10
REMARK    9  A    between atoms: C_16  and  C_17
REMARK   10  A    between atoms: C_21  and  O_22
REMARK   11  A    between atoms: C_25  and  C_26
REMARK                            x       y       z     vdW  Elec       q    Type
REMARK                         _______ _______ _______ _____ _____    ______ ____
ROOT
ATOM      1  C   UNL     1       4.590   3.139  17.738  0.00  0.00    +0.000 C 
ENDROOT
BRANCH   1   2
ATOM      2  N   UNL     1       3.403   3.443  18.546  0.00  0.00    +0.000 NA
ATOM      3  C   UNL     1       2.236   4.070  17.898  0.00  0.00    +0.000 C 
ATOM      4  C   UNL     1       1.229   3.982  19.051  0.00  0.00    +0.000 C 
ATOM      5  C   UNL     1       2.102   4.038  20.306  0.00  0.00    +0.000 C 
ATOM      6  C   UNL     1       3.541   4.173  19.791  0.00  0.00    +0.000 C 
ATOM      7  C   UNL     1       4.000   5.616  19.543  0.00  0.00    +0.000 C 
ATOM      8  C   UNL     1       3.155   6.434  18.535  0.00  0.00    +0.000 C 
ATOM      9  C   UNL     1       2.420   5.549  17.495  0.00  0.00    +0.000 C 
BRANCH   8  10
ATOM     10  C   UNL     1       2.310   7.574  19.118  0.00  0.00    +0.000 A 
ATOM     11  C   UNL     1       1.873   7.487  20.456  0.00  0.00    +0.000 A 
ATOM     12  C   UNL     1       1.005   8.443  21.006  0.00  0.00    +0.000 A 
ATOM     13  C   UNL     1       0.565   9.513  20.245  0.00  0.00    +0.000 A 
ATOM     14  C   UNL     1       0.999   9.624  18.933  0.00  0.00    +0.000 A 
ATOM     15  C   UNL     1       1.857   8.673  18.372  0.00  0.00    +0.000 A 
BRANCH  14  16
ATOM     16  O   UNL     1       0.588  10.654  18.133  0.00  0.00    +0.000 OA
ATOM     17  H   UNL     1       1.183  10.707  17.368  0.00  0.00    +0.000 HD
ENDBRANCH  14  16
ENDBRANCH   8  10
ENDBRANCH   1   2
BRANCH   1  18
ATOM     18  C   UNL     1       4.662   3.825  16.304  0.00  0.00    +0.000 C 
BRANCH  18  21
ATOM     19  C   UNL     1       6.821   5.154  15.690  0.00  0.00    +0.000 C 
ATOM     20  O   UNL     1       7.732   5.393  14.889  0.00  0.00    +0.000 OA
ATOM     21  N   UNL     1       5.956   4.034  15.552  0.00  0.00    +0.000 N 
BRANCH  19  22
ATOM     22  C   UNL     1       6.564   6.087  16.836  0.00  0.00    +0.000 C 
BRANCH  22  24
ATOM     23  C   UNL     1       7.648   8.159  17.608  0.00  0.00    +0.000 C 
ATOM     24  C   UNL     1       7.744   6.627  17.643  0.00  0.00    +0.000 C 
ATOM     25  C   UNL     1       7.710   6.145  19.094  0.00  0.00    +0.000 C 
ENDBRANCH  22  24
ENDBRANCH  19  22
BRANCH  21  26
ATOM     26  C   UNL     1       6.143   3.428  14.201  0.00  0.00    +0.000 C 
BRANCH  26  27
ATOM     27  C   UNL     1       5.882   4.155  12.858  0.00  0.00    +0.000 C 
ATOM     28  C   UNL     1       7.085   4.277  11.914  0.00  0.00    +0.000 C 
ATOM     29  C   UNL     1       7.695   2.920  11.582  0.00  0.00    +0.000 C 
ATOM     30  C   UNL     1       6.685   1.926  11.003  0.00  0.00    +0.000 C 
ATOM     31  C   UNL     1       5.275   1.979  11.597  0.00  0.00    +0.000 C 
ATOM     32  C   UNL     1       4.808   3.368  12.053  0.00  0.00    +0.000 C 
ENDBRANCH  26  27
ENDBRANCH  21  26
ENDBRANCH  18  21
ENDBRANCH   1  18
TORSDOF 9
ENDMDL
MODEL 2
REMARK VINA RESULT:      -8.4      0.853      1.210
REMARK  Name = 
REMARK  11 active torsions:
REMARK  status: ('A' for Active; 'I' for Inactive)
REMARK    1  A    between atoms: C_1  and  C_2
REMARK    2  A    between atoms: C_2  and  C_3
REMARK    3  A    between atoms: C_2  and  C_4
REMARK    4  A    between atoms: C_4  and  C_5
REMARK    5  A    between atoms: N_7  and  C_8
REMARK    6  A    between atoms: N_7  and  C_25
REMARK    7  A    between atoms: C_8  and  C_9
REMARK    8  A    between atoms: C_9  and  N_10
REMARK    9  A    between atoms: C_16  and  C_17
REMARK   10  A    between atoms: C_21  and  O_22
REMARK   11  A    between atoms: C_25  and  C_26
REMARK                            x       y       z     vdW  Elec       q    Type
REMARK                         _______ _______ _______ _____ _____    ______ ____
ROOT
ATOM      1  C   UNL     1       4.771   3.511  17.824  0.00  0.00    +0.000 C 
ENDROOT
BRANCH   1   2
ATOM      2  N   UNL     1       3.481   3.714  18.494  0.00  0.00    +0.000 NA
ATOM      3  C   UNL     1       2.375   4.342  17.747  0.00  0.00    +0.000 C 
ATOM      4  C   UNL     1       1.239   4.135  18.755  0.00  0.00    +0.000 C 
ATOM      5  C   UNL     1       1.947   4.134  20.111  0.00  0.00    +0.000 C 
ATOM      6  C   UNL     1       3.431   4.359  19.792  0.00  0.00    +0.000 C 
ATOM      7  C   UNL     1       3.851   5.831  19.698  0.00  0.00    +0.000 C 
ATOM      8  C   UNL     1       3.100   6.687  18.648  0.00  0.00    +0.000 C 
ATOM      9  C   UNL     1       2.540   5.851  17.468  0.00  0.00    +0.000 C 
BRANCH   8  10
ATOM     10  C   UNL     1       2.139   7.751  19.193  0.00  0.00    +0.000 A 
ATOM     11  C   UNL     1       1.725   8.799  18.343  0.00  0.00    +0.000 A 
ATOM     12  C   UNL     1       0.939   9.859  18.820  0.00  0.00    +0.000 A 
ATOM     13  C   UNL     1       0.535   9.895  20.143  0.00  0.00    +0.000 A 
ATOM     14  C   UNL     1       0.918   8.865  20.989  0.00  0.00    +0.000 A 
ATOM     15  C   UNL     1       1.707   7.807  20.528  0.00  0.00    +0.000 A 
BRANCH  14  16
ATOM     16  O   UNL     1       0.556   8.854  22.307  0.00  0.00    +0.000 OA
ATOM     17  H   UNL     1      -0.376   8.591  22.369  0.00  0.00    +0.000 HD
ENDBRANCH  14  16
ENDBRANCH   8  10
ENDBRANCH   1   2
BRANCH   1  18
ATOM     18  C   UNL     1       4.798   3.768  16.254  0.00  0.00    +0.000 C 
BRANCH  18  21
ATOM     19  C   UNL     1       6.877   5.196  15.588  0.00  0.00    +0.000 C 
ATOM     20  O   UNL     1       7.765   5.467  14.771  0.00  0.00    +0.000 OA
ATOM     21  N   UNL     1       6.070   4.031  15.481  0.00  0.00    +0.000 N 
BRANCH  19  22
ATOM     22  C   UNL     1       6.587   6.134  16.723  0.00  0.00    +0.000 C 
BRANCH  22  24
ATOM     23  C   UNL     1       7.702   8.081  17.737  0.00  0.00    +0.000 C 
ATOM     24  C   UNL     1       7.719   6.548  17.662  0.00  0.00    +0.000 C 
ATOM     25  C   UNL     1       7.537   5.966  19.065  0.00  0.00    +0.000 C 
ENDBRANCH  22  24
ENDBRANCH  19  22
BRANCH  21  26
ATOM     26  C   UNL     1       6.271   3.412  14.138  0.00  0.00    +0.000 C 
BRANCH  26  27
ATOM     27  C   UNL     1       6.015   4.123  12.785  0.00  0.00    +0.000 C 
ATOM     28  C   UNL     1       7.185   4.122  11.793  0.00  0.00    +0.000 C 
ATOM     29  C   UNL     1       7.670   2.712  11.477  0.00  0.00    +0.000 C 
ATOM     30  C   UNL     1       6.562   1.790  10.966  0.00  0.00    +0.000 C 
ATOM     31  C   UNL     1       5.185   1.973  11.612  0.00  0.00    +0.000 C 
ATOM     32  C   UNL     1       4.850   3.406  12.045  0.00  0.00    +0.000 C 
ENDBRANCH  26  27
ENDBRANCH  21  26
ENDBRANCH  18  21
ENDBRANCH   1  18
TORSDOF 9
ENDMDL
MODEL 3
REMARK VINA RESULT:      -7.9      1.911      7.828
REMARK  Name = 
REMARK  11 active torsions:
REMARK  status: ('A' for Active; 'I' for Inactive)
REMARK    1  A    between atoms: C_1  and  C_2
REMARK    2  A    between atoms: C_2  and  C_3
REMARK    3  A    between atoms: C_2  and  C_4
REMARK    4  A    between atoms: C_4  and  C_5
REMARK    5  A    between atoms: N_7  and  C_8
REMARK    6  A    between atoms: N_7  and  C_25
REMARK    7  A    between atoms: C_8  and  C_9
REMARK    8  A    between atoms: C_9  and  N_10
REMARK    9  A    between atoms: C_16  and  C_17
REMARK   10  A    between atoms: C_21  and  O_22
REMARK   11  A    between atoms: C_25  and  C_26
REMARK                            x       y       z     vdW  Elec       q    Type
REMARK                         _______ _______ _______ _____ _____    ______ ____
ROOT
ATOM      1  C   UNL     1       4.588   5.551  19.445  0.00  0.00    +0.000 C 
ENDROOT
BRANCH   1   2
ATOM      2  N   UNL     1       5.794   5.796  18.645  0.00  0.00    +0.000 NA
ATOM      3  C   UNL     1       5.706   6.679  17.467  0.00  0.00    +0.000 C 
ATOM      4  C   UNL     1       7.196   6.790  17.122  0.00  0.00    +0.000 C 
ATOM      5  C   UNL     1       7.786   5.466  17.611  0.00  0.00    +0.000 C 
ATOM      6  C   UNL     1       6.598   4.682  18.182  0.00  0.00    +0.000 C 
ATOM      7  C   UNL     1       5.835   3.835  17.155  0.00  0.00    +0.000 C 
ATOM      8  C   UNL     1       5.242   4.603  15.948  0.00  0.00    +0.000 C 
ATOM      9  C   UNL     1       4.947   6.093  16.258  0.00  0.00    +0.000 C 
BRANCH   8  10
ATOM     10  C   UNL     1       5.900   4.349  14.586  0.00  0.00    +0.000 A 
ATOM     11  C   UNL     1       7.033   5.107  14.221  0.00  0.00    +0.000 A 
ATOM     12  C   UNL     1       7.607   4.998  12.945  0.00  0.00    +0.000 A 
ATOM     13  C   UNL     1       7.079   4.125  12.010  0.00  0.00    +0.000 A 
ATOM     14  C   UNL     1       5.975   3.360  12.356  0.00  0.00    +0.000 A 
ATOM     15  C   UNL     1       5.391   3.465  13.621  0.00  0.00    +0.000 A 
BRANCH  14  16
ATOM     16  O   UNL     1       5.407   2.490  11.468  0.00  0.00    +0.000 OA
ATOM     17  H   UNL     1       4.816   2.988  10.881  0.00  0.00    +0.000 HD
ENDBRANCH  14  16
ENDBRANCH   8  10
ENDBRANCH   1   2
BRANCH   1  18
ATOM     18  C   UNL     1       3.346   6.504  19.157  0.00  0.00    +0.000 C 
BRANCH  18  21
ATOM     19  C   UNL     1       1.374   7.610  20.459  0.00  0.00    +0.000 C 
ATOM     20  O   UNL     1       0.484   7.528  21.314  0.00  0.00    +0.000 OA
ATOM     21  N   UNL     1       2.074   6.472  19.973  0.00  0.00    +0.000 N 
BRANCH  19  22
ATOM     22  C   UNL     1       1.785   8.951  19.926  0.00  0.00    +0.000 C 
BRANCH  22  24
ATOM     23  C   UNL     1      -0.366  10.150  19.903  0.00  0.00    +0.000 C 
ATOM     24  C   UNL     1       0.823   9.727  19.028  0.00  0.00    +0.000 C 
ATOM     25  C   UNL     1       1.482  10.970  18.427  0.00  0.00    +0.000 C 
ENDBRANCH  22  24
ENDBRANCH  19  22
BRANCH  21  26
ATOM     26  C   UNL     1       1.773   5.298  20.843  0.00  0.00    +0.000 C 
BRANCH  26  27
ATOM     27  C   UNL     1       0.898   4.087  20.430  0.00  0.00    +0.000 C 
ATOM     28  C   UNL     1       1.065   3.597  18.986  0.00  0.00    +0.000 C 
ATOM     29  C   UNL     1       2.511   3.239  18.664  0.00  0.00    +0.000 C 
ATOM     30  C   UNL     1       3.111   2.213  19.628  0.00  0.00    +0.000 C 
ATOM     31  C   UNL     1       2.688   2.342  21.094  0.00  0.00    +0.000 C 
ATOM     32  C   UNL     1       1.264   2.866  21.322  0.00  0.00    +0.000 C 
ENDBRANCH  26  27
ENDBRANCH  21  26
ENDBRANCH  18  21
ENDBRANCH   1  18
TORSDOF 9
ENDMDL
MODEL 4
REMARK VINA RESULT:      -7.8      2.088      8.615
REMARK  Name = 
REMARK  11 active torsions:
REMARK  status: ('A' for Active; 'I' for Inactive)
REMARK    1  A    between atoms: C_1  and  C_2
REMARK    2  A    between atoms: C_2  and  C_3
REMARK    3  A    between atoms: C_2  and  C_4
REMARK    4  A    between atoms: C_4  and  C_5
REMARK    5  A    between atoms: N_7  and  C_8
REMARK    6  A    between atoms: N_7  and  C_25
REMARK    7  A    between atoms: C_8  and  C_9
REMARK    8  A    between atoms: C_9  and  N_10
REMARK    9  A    between atoms: C_16  and  C_17
REMARK   10  A    between atoms: C_21  and  O_22
REMARK   11  A    between atoms: C_25  and  C_26
REMARK                            x       y       z     vdW  Elec       q    Type
REMARK                         _______ _______ _______ _____ _____    ______ ____
ROOT
ATOM      1  C   UNL     1       4.011   5.776  18.706  0.00  0.00    +0.000 C 
ENDROOT
BRANCH   1   2
ATOM      2  N   UNL     1       5.370   5.756  18.153  0.00  0.00    +0.000 NA
ATOM      3  C   UNL     1       5.694   6.637  17.015  0.00  0.00    +0.000 C 
ATOM      4  C   UNL     1       7.212   6.425  16.955  0.00  0.00    +0.000 C 
ATOM      5  C   UNL     1       7.406   5.005  17.490  0.00  0.00    +0.000 C 
ATOM      6  C   UNL     1       5.993   4.494  17.801  0.00  0.00    +0.000 C 
ATOM      7  C   UNL     1       5.276   3.832  16.617  0.00  0.00    +0.000 C 
ATOM      8  C   UNL     1       5.096   4.709  15.353  0.00  0.00    +0.000 C 
ATOM      9  C   UNL     1       5.069   6.228  15.664  0.00  0.00    +0.000 C 
BRANCH   8  10
ATOM     10  C   UNL     1       5.930   4.320  14.126  0.00  0.00    +0.000 A 
ATOM     11  C   UNL     1       7.043   5.113  13.776  0.00  0.00    +0.000 A 
ATOM     12  C   UNL     1       7.773   4.871  12.602  0.00  0.00    +0.000 A 
ATOM     13  C   UNL     1       7.423   3.830  11.759  0.00  0.00    +0.000 A 
ATOM     14  C   UNL     1       6.342   3.030  12.096  0.00  0.00    +0.000 A 
ATOM     15  C   UNL     1       5.603   3.266  13.259  0.00  0.00    +0.000 A 
BRANCH  14  16
ATOM     16  O   UNL     1       5.947   1.995  11.296  0.00  0.00    +0.000 OA
ATOM     17  H   UNL     1       6.577   1.264  11.401  0.00  0.00    +0.000 HD
ENDBRANCH  14  16
ENDBRANCH   8  10
ENDBRANCH   1   2
BRANCH   1  18
ATOM     18  C   UNL     1       3.262   7.180  18.685  0.00  0.00    +0.000 C 
BRANCH  18  21
ATOM     19  C   UNL     1       1.567   6.711  20.612  0.00  0.00    +0.000 C 
ATOM     20  O   UNL     1       0.585   7.065  21.275  0.00  0.00    +0.000 OA
ATOM     21  N   UNL     1       2.250   7.592  19.729  0.00  0.00    +0.000 N 
BRANCH  19  22
ATOM     22  C   UNL     1       2.055   5.295  20.687  0.00  0.00    +0.000 C 
BRANCH  22  24
ATOM     23  C   UNL     1       0.963   3.750  19.109  0.00  0.00    +0.000 C 
ATOM     24  C   UNL     1       1.048   4.149  20.589  0.00  0.00    +0.000 C 
ATOM     25  C   UNL     1       1.479   2.940  21.421  0.00  0.00    +0.000 C 
ENDBRANCH  22  24
ENDBRANCH  19  22
BRANCH  21  26
ATOM     26  C   UNL     1       1.436   8.827  19.536  0.00  0.00    +0.000 C 
BRANCH  26  27
ATOM     27  C   UNL     1       1.146   9.495  18.168  0.00  0.00    +0.000 C 
ATOM     28  C   UNL     1      -0.329   9.777  17.856  0.00  0.00    +0.000 C 
ATOM     29  C   UNL     1      -0.990  10.637  18.926  0.00  0.00    +0.000 C 
ATOM     30  C   UNL     1      -0.258  11.956  19.182  0.00  0.00    +0.000 C 
ATOM     31  C   UNL     1       1.271  11.898  19.117  0.00  0.00    +0.000 C 
ATOM     32  C   UNL     1       1.847  10.884  18.120  0.00  0.00    +0.000 C 
ENDBRANCH  26  27
ENDBRANCH  21  26
ENDBRANCH  18  21
ENDBRANCH   1  18
TORSDOF 9
ENDMDL
MODEL 5
REMARK VINA RESULT:      -7.6      3.292      6.374
REMARK  Name = 
REMARK  11 active torsions:
REMARK  status: ('A' for Active; 'I' for Inactive)
REMARK    1  A    between atoms: C_1  and  C_2
REMARK    2  A    between atoms: C_2  and  C_3
REMARK    3  A    between atoms: C_2  and  C_4
REMARK    4  A    between atoms: C_4  and  C_5
REMARK    5  A    between atoms: N_7  and  C_8
REMARK    6  A    between atoms: N_7  and  C_25
REMARK    7  A    between atoms: C_8  and  C_9
REMARK    8  A    between atoms: C_9  and  N_10
REMARK    9  A    between atoms: C_16  and  C_17
REMARK   10  A    between atoms: C_21  and  O_22
REMARK   11  A    between atoms: C_25  and  C_26
REMARK                            x       y       z     vdW  Elec       q    Type
REMARK                         _______ _______ _______ _____ _____    ______ ____
ROOT
ATOM      1  C   UNL     1       1.917   8.206  20.151  0.00  0.00    +0.000 C 
ENDROOT
BRANCH   1   2
ATOM      2  N   UNL     1       0.928   9.171  19.657  0.00  0.00    +0.000 NA
ATOM      3  C   UNL     1       1.222  10.613  19.754  0.00  0.00    +0.000 C 
ATOM      4  C   UNL     1       0.045  11.167  18.943  0.00  0.00    +0.000 C 
ATOM      5  C   UNL     1      -1.063  10.132  19.150  0.00  0.00    +0.000 C 
ATOM      6  C   UNL     1      -0.456   9.071  20.077  0.00  0.00    +0.000 C 
ATOM      7  C   UNL     1      -0.605   9.368  21.575  0.00  0.00    +0.000 C 
ATOM      8  C   UNL     1       0.007  10.702  22.068  0.00  0.00    +0.000 C 
ATOM      9  C   UNL     1       1.177  11.201  21.181  0.00  0.00    +0.000 C 
BRANCH   8  10
ATOM     10  C   UNL     1      -0.983  11.793  22.496  0.00  0.00    +0.000 A 
ATOM     11  C   UNL     1      -0.622  13.147  22.335  0.00  0.00    +0.000 A 
ATOM     12  C   UNL     1      -1.439  14.184  22.811  0.00  0.00    +0.000 A 
ATOM     13  C   UNL     1      -2.636  13.900  23.444  0.00  0.00    +0.000 A 
ATOM     14  C   UNL     1      -3.016  12.575  23.596  0.00  0.00    +0.000 A 
ATOM     15  C   UNL     1      -2.207  11.534  23.132  0.00  0.00    +0.000 A 
BRANCH  14  16
ATOM     16  O   UNL     1      -4.184  12.237  24.222  0.00  0.00    +0.000 OA
ATOM     17  H   UNL     1      -4.925  12.595  23.707  0.00  0.00    +0.000 HD
ENDBRANCH  14  16
ENDBRANCH   8  10
ENDBRANCH   1   2
BRANCH   1  18
ATOM     18  C   UNL     1       2.658   7.329  19.048  0.00  0.00    +0.000 C 
BRANCH  18  21
ATOM     19  C   UNL     1       4.630   5.644  18.771  0.00  0.00    +0.000 C 
ATOM     20  O   UNL     1       5.075   4.496  18.893  0.00  0.00    +0.000 OA
ATOM     21  N   UNL     1       3.410   6.059  19.372  0.00  0.00    +0.000 N 
BRANCH  19  22
ATOM     22  C   UNL     1       5.359   6.647  17.927  0.00  0.00    +0.000 C 
BRANCH  22  24
ATOM     23  C   UNL     1       6.934   5.673  16.304  0.00  0.00    +0.000 C 
ATOM     24  C   UNL     1       6.844   6.441  17.630  0.00  0.00    +0.000 C 
ATOM     25  C   UNL     1       7.590   7.770  17.504  0.00  0.00    +0.000 C 
ENDBRANCH  22  24
ENDBRANCH  19  22
BRANCH  21  26
ATOM     26  C   UNL     1       2.675   4.862  19.875  0.00  0.00    +0.000 C 
BRANCH  26  27
ATOM     27  C   UNL     1       1.371   4.295  19.258  0.00  0.00    +0.000 C 
ATOM     28  C   UNL     1       1.353   4.163  17.729  0.00  0.00    +0.000 C 
ATOM     29  C   UNL     1       2.505   3.310  17.211  0.00  0.00    +0.000 C 
ATOM     30  C   UNL     1       2.563   1.919  17.847  0.00  0.00    +0.000 C 
ATOM     31  C   UNL     1       2.194   1.844  19.332  0.00  0.00    +0.000 C 
ATOM     32  C   UNL     1       1.137   2.854  19.796  0.00  0.00    +0.000 C 
ENDBRANCH  26  27
ENDBRANCH  21  26
ENDBRANCH  18  21
ENDBRANCH   1  18
TORSDOF 9
ENDMDL
MODEL 6
REMARK VINA RESULT:      -7.6      3.698      6.449
REMARK  Name = 
REMARK  11 active torsions:
REMARK  status: ('A' for Active; 'I' for Inactive)
REMARK    1  A    between atoms: C_1  and  C_2
REMARK    2  A    between atoms: C_2  and  C_3
REMARK    3  A    between atoms: C_2  and  C_4
REMARK    4  A    between atoms: C_4  and  C_5
REMARK    5  A    between atoms: N_7  and  C_8
REMARK    6  A    between atoms: N_7  and  C_25
REMARK    7  A    between atoms: C_8  and  C_9
REMARK    8  A    between atoms: C_9  and  N_10
REMARK    9  A    between atoms: C_16  and  C_17
REMARK   10  A    between atoms: C_21  and  O_22
REMARK   11  A    between atoms: C_25  and  C_26
REMARK                            x       y       z     vdW  Elec       q    Type
REMARK                         _______ _______ _______ _____ _____    ______ ____
ROOT
ATOM      1  C   UNL     1       2.011   8.491  19.449  0.00  0.00    +0.000 C 
ENDROOT
BRANCH   1   2
ATOM      2  N   UNL     1       0.931   9.428  19.121  0.00  0.00    +0.000 NA
ATOM      3  C   UNL     1       1.171  10.876  19.258  0.00  0.00    +0.000 C 
ATOM      4  C   UNL     1      -0.115  11.408  18.615  0.00  0.00    +0.000 C 
ATOM      5  C   UNL     1      -1.146  10.312  18.894  0.00  0.00    +0.000 C 
ATOM      6  C   UNL     1      -0.390   9.241  19.691  0.00  0.00    +0.000 C 
ATOM      7  C   UNL     1      -0.376   9.462  21.209  0.00  0.00    +0.000 C 
ATOM      8  C   UNL     1       0.231  10.801  21.697  0.00  0.00    +0.000 C 
ATOM      9  C   UNL     1       1.267  11.396  20.708  0.00  0.00    +0.000 C 
BRANCH   8  10
ATOM     10  C   UNL     1      -0.749  11.821  22.290  0.00  0.00    +0.000 A 
ATOM     11  C   UNL     1      -0.400  13.188  22.284  0.00  0.00    +0.000 A 
ATOM     12  C   UNL     1      -1.205  14.150  22.913  0.00  0.00    +0.000 A 
ATOM     13  C   UNL     1      -2.378  13.780  23.547  0.00  0.00    +0.000 A 
ATOM     14  C   UNL     1      -2.745  12.442  23.548  0.00  0.00    +0.000 A 
ATOM     15  C   UNL     1      -1.948  11.473  22.932  0.00  0.00    +0.000 A 
BRANCH  14  16
ATOM     16  O   UNL     1      -3.888  12.019  24.168  0.00  0.00    +0.000 OA
ATOM     17  H   UNL     1      -4.568  12.703  24.064  0.00  0.00    +0.000 HD
ENDBRANCH  14  16
ENDBRANCH   8  10
ENDBRANCH   1   2
BRANCH   1  18
ATOM     18  C   UNL     1       2.781   7.843  18.216  0.00  0.00    +0.000 C 
BRANCH  18  21
ATOM     19  C   UNL     1       4.465   5.947  17.602  0.00  0.00    +0.000 C 
ATOM     20  O   UNL     1       4.693   4.747  17.411  0.00  0.00    +0.000 OA
ATOM     21  N   UNL     1       3.263   6.410  18.203  0.00  0.00    +0.000 N 
BRANCH  19  22
ATOM     22  C   UNL     1       5.454   6.982  17.153  0.00  0.00    +0.000 C 
BRANCH  22  24
ATOM     23  C   UNL     1       7.607   8.130  17.493  0.00  0.00    +0.000 C 
ATOM     24  C   UNL     1       6.945   6.748  17.394  0.00  0.00    +0.000 C 
ATOM     25  C   UNL     1       7.198   5.966  18.683  0.00  0.00    +0.000 C 
ENDBRANCH  22  24
ENDBRANCH  19  22
BRANCH  21  26
ATOM     26  C   UNL     1       2.280   5.290  18.269  0.00  0.00    +0.000 C 
BRANCH  26  27
ATOM     27  C   UNL     1       1.701   4.692  19.576  0.00  0.00    +0.000 C 
ATOM     28  C   UNL     1       0.725   3.521  19.406  0.00  0.00    +0.000 C 
ATOM     29  C   UNL     1       1.337   2.371  18.616  0.00  0.00    +0.000 C 
ATOM     30  C   UNL     1       2.653   1.860  19.209  0.00  0.00    +0.000 C 
ATOM     31  C   UNL     1       3.577   2.926  19.806  0.00  0.00    +0.000 C 
ATOM     32  C   UNL     1       2.867   4.129  20.440  0.00  0.00    +0.000 C 
ENDBRANCH  26  27
ENDBRANCH  21  26
ENDBRANCH  18  21
ENDBRANCH   1  18
TORSDOF 9
ENDMDL
MODEL 7
REMARK VINA RESULT:      -7.5      1.759      7.847
REMARK  Name = 
REMARK  11 active torsions:
REMARK  status: ('A' for Active; 'I' for Inactive)
REMARK    1  A    between atoms: C_1  and  C_2
REMARK    2  A    between atoms: C_2  and  C_3
REMARK    3  A    between atoms: C_2  and  C_4
REMARK    4  A    between atoms: C_4  and  C_5
REMARK    5  A    between atoms: N_7  and  C_8
REMARK    6  A    between atoms: N_7  and  C_25
REMARK    7  A    between atoms: C_8  and  C_9
REMARK    8  A    between atoms: C_9  and  N_10
REMARK    9  A    between atoms: C_16  and  C_17
REMARK   10  A    between atoms: C_21  and  O_22
REMARK   11  A    between atoms: C_25  and  C_26
REMARK                            x       y       z     vdW  Elec       q    Type
REMARK                         _______ _______ _______ _____ _____    ______ ____
ROOT
ATOM      1  C   UNL     1       4.511   5.472  19.441  0.00  0.00    +0.000 C 
ENDROOT
BRANCH   1   2
ATOM      2  N   UNL     1       5.732   5.787  18.690  0.00  0.00    +0.000 NA
ATOM      3  C   UNL     1       5.663   6.764  17.587  0.00  0.00    +0.000 C 
ATOM      4  C   UNL     1       7.160   6.908  17.284  0.00  0.00    +0.000 C 
ATOM      5  C   UNL     1       7.746   5.551  17.674  0.00  0.00    +0.000 C 
ATOM      6  C   UNL     1       6.551   4.717  18.154  0.00  0.00    +0.000 C 
ATOM      7  C   UNL     1       5.814   3.956  17.044  0.00  0.00    +0.000 C 
ATOM      8  C   UNL     1       5.242   4.818  15.892  0.00  0.00    +0.000 C 
ATOM      9  C   UNL     1       4.932   6.276  16.318  0.00  0.00    +0.000 C 
BRANCH   8  10
ATOM     10  C   UNL     1       5.929   4.680  14.528  0.00  0.00    +0.000 A 
ATOM     11  C   UNL     1       5.474   3.692  13.629  0.00  0.00    +0.000 A 
ATOM     12  C   UNL     1       6.137   3.446  12.417  0.00  0.00    +0.000 A 
ATOM     13  C   UNL     1       7.254   4.183  12.064  0.00  0.00    +0.000 A 
ATOM     14  C   UNL     1       7.705   5.170  12.927  0.00  0.00    +0.000 A 
ATOM     15  C   UNL     1       7.058   5.419  14.141  0.00  0.00    +0.000 A 
BRANCH  14  16
ATOM     16  O   UNL     1       8.809   5.922  12.634  0.00  0.00    +0.000 OA
ATOM     17  H   UNL     1       8.531   6.685  12.103  0.00  0.00    +0.000 HD
ENDBRANCH  14  16
ENDBRANCH   8  10
ENDBRANCH   1   2
BRANCH   1  18
ATOM     18  C   UNL     1       3.219   6.329  19.078  0.00  0.00    +0.000 C 
BRANCH  18  21
ATOM     19  C   UNL     1       1.345   7.578  20.395  0.00  0.00    +0.000 C 
ATOM     20  O   UNL     1       0.502   7.583  21.299  0.00  0.00    +0.000 OA
ATOM     21  N   UNL     1       1.994   6.389  19.960  0.00  0.00    +0.000 N 
BRANCH  19  22
ATOM     22  C   UNL     1       1.754   8.865  19.740  0.00  0.00    +0.000 C 
BRANCH  22  24
ATOM     23  C   UNL     1      -0.371   9.959  19.146  0.00  0.00    +0.000 C 
ATOM     24  C   UNL     1       0.915  10.122  19.969  0.00  0.00    +0.000 C 
ATOM     25  C   UNL     1       0.558  10.308  21.444  0.00  0.00    +0.000 C 
ENDBRANCH  22  24
ENDBRANCH  19  22
BRANCH  21  26
ATOM     26  C   UNL     1       1.716   5.292  20.932  0.00  0.00    +0.000 C 
BRANCH  26  27
ATOM     27  C   UNL     1       0.871   4.029  20.627  0.00  0.00    +0.000 C 
ATOM     28  C   UNL     1       0.978   3.476  19.200  0.00  0.00    +0.000 C 
ATOM     29  C   UNL     1       2.417   3.160  18.811  0.00  0.00    +0.000 C 
ATOM     30  C   UNL     1       3.114   2.207  19.785  0.00  0.00    +0.000 C 
ATOM     31  C   UNL     1       2.769   2.391  21.266  0.00  0.00    +0.000 C 
ATOM     32  C   UNL     1       1.339   2.868  21.552  0.00  0.00    +0.000 C 
ENDBRANCH  26  27
ENDBRANCH  21  26
ENDBRANCH  18  21
ENDBRANCH   1  18
TORSDOF 9
ENDMDL
MODEL 8
REMARK VINA RESULT:      -7.5      1.873      7.974
REMARK  Name = 
REMARK  11 active torsions:
REMARK  status: ('A' for Active; 'I' for Inactive)
REMARK    1  A    between atoms: C_1  and  C_2
REMARK    2  A    between atoms: C_2  and  C_3
REMARK    3  A    between atoms: C_2  and  C_4
REMARK    4  A    between atoms: C_4  and  C_5
REMARK    5  A    between atoms: N_7  and  C_8
REMARK    6  A    between atoms: N_7  and  C_25
REMARK    7  A    between atoms: C_8  and  C_9
REMARK    8  A    between atoms: C_9  and  N_10
REMARK    9  A    between atoms: C_16  and  C_17
REMARK   10  A    between atoms: C_21  and  O_22
REMARK   11  A    between atoms: C_25  and  C_26
REMARK                            x       y       z     vdW  Elec       q    Type
REMARK                         _______ _______ _______ _____ _____    ______ ____
ROOT
ATOM      1  C   UNL     1       4.805   4.956  19.550  0.00  0.00    +0.000 C 
ENDROOT
BRANCH   1   2
ATOM      2  N   UNL     1       5.764   5.691  18.718  0.00  0.00    +0.000 NA
ATOM      3  C   UNL     1       5.263   6.502  17.592  0.00  0.00    +0.000 C 
ATOM      4  C   UNL     1       6.563   7.213  17.196  0.00  0.00    +0.000 C 
ATOM      5  C   UNL     1       7.659   6.222  17.591  0.00  0.00    +0.000 C 
ATOM      6  C   UNL     1       6.918   5.008  18.166  0.00  0.00    +0.000 C 
ATOM      7  C   UNL     1       6.500   3.961  17.127  0.00  0.00    +0.000 C 
ATOM      8  C   UNL     1       5.582   4.464  15.985  0.00  0.00    +0.000 C 
ATOM      9  C   UNL     1       4.734   5.699  16.385  0.00  0.00    +0.000 C 
BRANCH   8  10
ATOM     10  C   UNL     1       6.208   4.540  14.587  0.00  0.00    +0.000 A 
ATOM     11  C   UNL     1       5.703   3.708  13.565  0.00  0.00    +0.000 A 
ATOM     12  C   UNL     1       6.309   3.654  12.301  0.00  0.00    +0.000 A 
ATOM     13  C   UNL     1       7.418   4.433  12.019  0.00  0.00    +0.000 A 
ATOM     14  C   UNL     1       7.917   5.270  13.006  0.00  0.00    +0.000 A 
ATOM     15  C   UNL     1       7.327   5.327  14.272  0.00  0.00    +0.000 A 
BRANCH  14  16
ATOM     16  O   UNL     1       9.015   6.054  12.785  0.00  0.00    +0.000 OA
ATOM     17  H   UNL     1       9.264   6.479  13.621  0.00  0.00    +0.000 HD
ENDBRANCH  14  16
ENDBRANCH   8  10
ENDBRANCH   1   2
BRANCH   1  18
ATOM     18  C   UNL     1       3.441   5.706  19.884  0.00  0.00    +0.000 C 
BRANCH  18  21
ATOM     19  C   UNL     1       1.864   4.597  18.127  0.00  0.00    +0.000 C 
ATOM     20  O   UNL     1       1.020   4.714  17.231  0.00  0.00    +0.000 OA
ATOM     21  N   UNL     1       2.238   5.679  18.970  0.00  0.00    +0.000 N 
BRANCH  19  22
ATOM     22  C   UNL     1       2.571   3.289  18.329  0.00  0.00    +0.000 C 
BRANCH  22  24
ATOM     23  C   UNL     1       2.114   2.584  20.644  0.00  0.00    +0.000 C 
ATOM     24  C   UNL     1       1.907   2.201  19.172  0.00  0.00    +0.000 C 
ATOM     25  C   UNL     1       0.411   2.087  18.879  0.00  0.00    +0.000 C 
ENDBRANCH  22  24
ENDBRANCH  19  22
BRANCH  21  26
ATOM     26  C   UNL     1       1.693   6.951  18.413  0.00  0.00    +0.000 C 
BRANCH  26  27
ATOM     27  C   UNL     1       2.233   8.367  18.737  0.00  0.00    +0.000 C 
ATOM     28  C   UNL     1       1.707   9.506  17.855  0.00  0.00    +0.000 C 
ATOM     29  C   UNL     1       0.185   9.590  17.871  0.00  0.00    +0.000 C 
ATOM     30  C   UNL     1      -0.401   9.717  19.278  0.00  0.00    +0.000 C 
ATOM     31  C   UNL     1       0.308   8.917  20.375  0.00  0.00    +0.000 C 
ATOM     32  C   UNL     1       1.822   8.749  20.188  0.00  0.00    +0.000 C 
ENDBRANCH  26  27
ENDBRANCH  21  26
ENDBRANCH  18  21
ENDBRANCH   1  18
TORSDOF 9
ENDMDL
MODEL 9
REMARK VINA RESULT:      -7.5      0.908      4.218
REMARK  Name = 
REMARK  11 active torsions:
REMARK  status: ('A' for Active; 'I' for Inactive)
REMARK    1  A    between atoms: C_1  and  C_2
REMARK    2  A    between atoms: C_2  and  C_3
REMARK    3  A    between atoms: C_2  and  C_4
REMARK    4  A    between atoms: C_4  and  C_5
REMARK    5  A    between atoms: N_7  and  C_8
REMARK    6  A    between atoms: N_7  and  C_25
REMARK    7  A    between atoms: C_8  and  C_9
REMARK    8  A    between atoms: C_9  and  N_10
REMARK    9  A    between atoms: C_16  and  C_17
REMARK   10  A    between atoms: C_21  and  O_22
REMARK   11  A    between atoms: C_25  and  C_26
REMARK                            x       y       z     vdW  Elec       q    Type
REMARK                         _______ _______ _______ _____ _____    ______ ____
ROOT
ATOM      1  C   UNL     1       4.098   2.765  17.987  0.00  0.00    +0.000 C 
ENDROOT
BRANCH   1   2
ATOM      2  N   UNL     1       2.791   3.107  18.559  0.00  0.00    +0.000 NA
ATOM      3  C   UNL     1       1.895   4.010  17.812  0.00  0.00    +0.000 C 
ATOM      4  C   UNL     1       0.633   3.883  18.673  0.00  0.00    +0.000 C 
ATOM      5  C   UNL     1       1.171   3.585  20.073  0.00  0.00    +0.000 C 
ATOM      6  C   UNL     1       2.698   3.582  19.926  0.00  0.00    +0.000 C 
ATOM      7  C   UNL     1       3.361   4.956  20.084  0.00  0.00    +0.000 C 
ATOM      8  C   UNL     1       2.885   6.057  19.104  0.00  0.00    +0.000 C 
ATOM      9  C   UNL     1       2.335   5.489  17.770  0.00  0.00    +0.000 C 
BRANCH   8  10
ATOM     10  C   UNL     1       2.055   7.197  19.707  0.00  0.00    +0.000 A 
ATOM     11  C   UNL     1       1.403   6.991  20.941  0.00  0.00    +0.000 A 
ATOM     12  C   UNL     1       0.540   7.956  21.483  0.00  0.00    +0.000 A 
ATOM     13  C   UNL     1       0.317   9.150  20.821  0.00  0.00    +0.000 A 
ATOM     14  C   UNL     1       0.963   9.377  19.614  0.00  0.00    +0.000 A 
ATOM     15  C   UNL     1       1.818   8.421  19.061  0.00  0.00    +0.000 A 
BRANCH  14  16
ATOM     16  O   UNL     1       0.772  10.535  18.913  0.00  0.00    +0.000 OA
ATOM     17  H   UNL     1       1.628  10.980  18.811  0.00  0.00    +0.000 HD
ENDBRANCH  14  16
ENDBRANCH   8  10
ENDBRANCH   1   2
BRANCH   1  18
ATOM     18  C   UNL     1       4.446   3.424  16.580  0.00  0.00    +0.000 C 
BRANCH  18  21
ATOM     19  C   UNL     1       6.248   4.626  15.126  0.00  0.00    +0.000 C 
ATOM     20  O   UNL     1       7.340   5.200  15.044  0.00  0.00    +0.000 OA
ATOM     21  N   UNL     1       5.618   4.355  16.372  0.00  0.00    +0.000 N 
BRANCH  19  22
ATOM     22  C   UNL     1       5.557   4.144  13.885  0.00  0.00    +0.000 C 
BRANCH  22  24
ATOM     23  C   UNL     1       5.382   2.786  11.837  0.00  0.00    +0.000 C 
ATOM     24  C   UNL     1       6.376   3.479  12.780  0.00  0.00    +0.000 C 
ATOM     25  C   UNL     1       7.202   4.497  11.992  0.00  0.00    +0.000 C 
ENDBRANCH  22  24
ENDBRANCH  19  22
BRANCH  21  26
ATOM     26  C   UNL     1       6.588   4.596  17.479  0.00  0.00    +0.000 C 
BRANCH  26  27
ATOM     27  C   UNL     1       6.338   5.526  18.693  0.00  0.00    +0.000 C 
ATOM     28  C   UNL     1       7.590   6.050  19.409  0.00  0.00    +0.000 C 
ATOM     29  C   UNL     1       8.528   6.788  18.462  0.00  0.00    +0.000 C 
ATOM     30  C   UNL     1       7.851   7.934  17.707  0.00  0.00    +0.000 C 
ATOM     31  C   UNL     1       6.403   7.688  17.274  0.00  0.00    +0.000 C 
ATOM     32  C   UNL     1       5.579   6.798  18.213  0.00  0.00    +0.000 C 
ENDBRANCH  26  27
ENDBRANCH  21  26
ENDBRANCH  18  21
ENDBRANCH   1  18
TORSDOF 9
ENDMDL
