MODEL 1
REMARK VINA RESULT:      -7.8      0.000      0.000
REMARK  Name = 
REMARK  16 active torsions:
REMARK  status: ('A' for Active; 'I' for Inactive)
REMARK    1  A    between atoms: C_1  and  C_2
REMARK    2  A    between atoms: C_2  and  O_3
REMARK    3  A    between atoms: O_3  and  C_4
REMARK    4  A    between atoms: C_9  and  C_10
REMARK    5  A    between atoms: N_12  and  C_13
REMARK    6  A    between atoms: C_13  and  C_14
REMARK    7  A    between atoms: C_13  and  C_31
REMARK    8  A    between atoms: N_16  and  C_17
REMARK    9  A    between atoms: C_19  and  S_20
REMARK   10  A    between atoms: S_20  and  N_23
REMARK   11  A    between atoms: N_23  and  C_24
REMARK   12  A    between atoms: N_23  and  C_25
REMARK   13  A    between atoms: C_28  and  O_29
REMARK   14  A    between atoms: O_29  and  C_30
REMARK   15  A    between atoms: C_31  and  C_32
REMARK   16  A    between atoms: C_31  and  C_33
REMARK                            x       y       z     vdW  Elec       q    Type
REMARK                         _______ _______ _______ _____ _____    ______ ____
ROOT
ATOM      1  C   UNL     1       1.922   7.784  19.361  0.00  0.00    +0.000 C 
ATOM      2  O   UNL     1       2.072   8.167  18.194  0.00  0.00    +0.000 OA
ATOM      3  N   UNL     1       2.394   6.548  19.793  0.00  0.00    +0.000 N 
ATOM      4  H   UNL     1       1.867   6.155  20.561  0.00  0.00    +0.000 HD
ENDROOT
BRANCH   3   5
ATOM      5  C   UNL     1       3.054   5.569  18.939  0.00  0.00    +0.000 A 
ATOM      6  C   UNL     1       4.283   5.962  18.369  0.00  0.00    +0.000 A 
ATOM      7  C   UNL     1       5.068   5.068  17.622  0.00  0.00    +0.000 A 
ATOM      8  C   UNL     1       4.632   3.781  17.352  0.00  0.00    +0.000 A 
ATOM      9  C   UNL     1       3.390   3.374  17.830  0.00  0.00    +0.000 A 
ATOM     10  C   UNL     1       2.591   4.274  18.591  0.00  0.00    +0.000 A 
BRANCH   7  11
ATOM     11  S   UNL     1       6.623   5.611  16.913  0.00  0.00    +0.000 S 
ATOM     12  O   UNL     1       7.484   4.447  16.820  0.00  0.00    +0.000 OA
ATOM     13  O   UNL     1       6.309   6.398  15.740  0.00  0.00    +0.000 OA
BRANCH  11  14
ATOM     14  N   UNL     1       7.275   6.641  18.100  0.00  0.00    +0.000 NA
ATOM     15  C   UNL     1       8.030   5.997  19.185  0.00  0.00    +0.000 C 
ATOM     16  C   UNL     1       7.863   7.910  17.637  0.00  0.00    +0.000 C 
ENDBRANCH  11  14
ENDBRANCH   7  11
BRANCH  10  17
ATOM     17  O   UNL     1       1.343   3.768  18.844  0.00  0.00    +0.000 OA
ATOM     18  C   UNL     1       1.326   2.899  19.972  0.00  0.00    +0.000 C 
ENDBRANCH  10  17
ENDBRANCH   3   5
BRANCH   1  19
ATOM     19  C   UNL     1       1.154   8.773  20.383  0.00  0.00    +0.000 C 
BRANCH  19  22
ATOM     20  C   UNL     1      -0.067  10.605  18.968  0.00  0.00    +0.000 C 
ATOM     21  O   UNL     1       0.893  11.331  18.727  0.00  0.00    +0.000 OA
ATOM     22  N   UNL     1      -0.008   9.479  19.767  0.00  0.00    +0.000 N 
ATOM     23  H   UNL     1      -0.902   9.019  19.918  0.00  0.00    +0.000 HD
BRANCH  20  29
ATOM     24  C   UNL     1      -2.401  11.634  18.842  0.00  0.00    +0.000 A 
ATOM     25  C   UNL     1      -3.732  11.527  18.414  0.00  0.00    +0.000 A 
ATOM     26  C   UNL     1      -4.058  10.709  17.336  0.00  0.00    +0.000 A 
ATOM     27  C   UNL     1      -3.046  10.036  16.654  0.00  0.00    +0.000 A 
ATOM     28  C   UNL     1      -1.722  10.088  17.127  0.00  0.00    +0.000 A 
ATOM     29  C   UNL     1      -1.401  10.826  18.281  0.00  0.00    +0.000 A 
BRANCH  24  30
ATOM     30  O   UNL     1      -2.113  12.446  19.906  0.00  0.00    +0.000 OA
BRANCH  30  32
ATOM     31  C   UNL     1      -2.902  12.796  22.123  0.00  0.00    +0.000 C 
ATOM     32  C   UNL     1      -3.287  12.803  20.654  0.00  0.00    +0.000 C 
ENDBRANCH  30  32
ENDBRANCH  24  30
ENDBRANCH  20  29
ENDBRANCH  19  22
BRANCH  19  33
ATOM     33  C   UNL     1       1.024   8.708  21.941  0.00  0.00    +0.000 C 
ATOM     34  C   UNL     1       2.010   9.481  22.810  0.00  0.00    +0.000 C 
ATOM     35  C   UNL     1      -0.405   8.969  22.446  0.00  0.00    +0.000 C 
ENDBRANCH  19  33
ENDBRANCH   1  19
TORSDOF 10
ENDMDL
MODEL 2
REMARK VINA RESULT:      -7.7      1.154      1.389
REMARK  Name = 
REMARK  16 active torsions:
REMARK  status: ('A' for Active; 'I' for Inactive)
REMARK    1  A    between atoms: C_1  and  C_2
REMARK    2  A    between atoms: C_2  and  O_3
REMARK    3  A    between atoms: O_3  and  C_4
REMARK    4  A    between atoms: C_9  and  C_10
REMARK    5  A    between atoms: N_12  and  C_13
REMARK    6  A    between atoms: C_13  and  C_14
REMARK    7  A    between atoms: C_13  and  C_31
REMARK    8  A    between atoms: N_16  and  C_17
REMARK    9  A    between atoms: C_19  and  S_20
REMARK   10  A    between atoms: S_20  and  N_23
REMARK   11  A    between atoms: N_23  and  C_24
REMARK   12  A    between atoms: N_23  and  C_25
REMARK   13  A    between atoms: C_28  and  O_29
REMARK   14  A    between atoms: O_29  and  C_30
REMARK   15  A    between atoms: C_31  and  C_32
REMARK   16  A    between atoms: C_31  and  C_33
REMARK                            x       y       z     vdW  Elec       q    Type
REMARK                         _______ _______ _______ _____ _____    ______ ____
ROOT
ATOM      1  C   UNL     1       1.849   7.851  19.656  0.00  0.00    +0.000 C 
ATOM      2  O   UNL     1       1.990   8.127  18.458  0.00  0.00    +0.000 OA
ATOM      3  N   UNL     1       2.360   6.678  20.203  0.00  0.00    +0.000 N 
ATOM      4  H   UNL     1       1.843   6.340  21.003  0.00  0.00    +0.000 HD
ENDROOT
BRANCH   3   5
ATOM      5  C   UNL     1       3.057   5.646  19.445  0.00  0.00    +0.000 A 
ATOM      6  C   UNL     1       4.333   5.987  18.950  0.00  0.00    +0.000 A 
ATOM      7  C   UNL     1       5.149   5.043  18.304  0.00  0.00    +0.000 A 
ATOM      8  C   UNL     1       4.703   3.753  18.062  0.00  0.00    +0.000 A 
ATOM      9  C   UNL     1       3.420   3.395  18.467  0.00  0.00    +0.000 A 
ATOM     10  C   UNL     1       2.590   4.346  19.124  0.00  0.00    +0.000 A 
BRANCH   7  11
ATOM     11  S   UNL     1       6.763   5.520  17.687  0.00  0.00    +0.000 S 
ATOM     12  O   UNL     1       7.055   6.839  18.217  0.00  0.00    +0.000 OA
ATOM     13  O   UNL     1       7.659   4.409  17.926  0.00  0.00    +0.000 OA
BRANCH  11  14
ATOM     14  N   UNL     1       6.528   5.679  16.010  0.00  0.00    +0.000 NA
ATOM     15  C   UNL     1       6.909   4.525  15.182  0.00  0.00    +0.000 C 
ATOM     16  C   UNL     1       5.293   6.347  15.566  0.00  0.00    +0.000 C 
ENDBRANCH  11  14
ENDBRANCH   7  11
BRANCH  10  17
ATOM     17  O   UNL     1       1.316   3.877  19.308  0.00  0.00    +0.000 OA
ATOM     18  C   UNL     1       1.070   2.668  18.597  0.00  0.00    +0.000 C 
ENDBRANCH  10  17
ENDBRANCH   3   5
BRANCH   1  19
ATOM     19  C   UNL     1       1.042   8.904  20.580  0.00  0.00    +0.000 C 
BRANCH  19  22
ATOM     20  C   UNL     1      -0.109  10.642  18.997  0.00  0.00    +0.000 C 
ATOM     21  O   UNL     1       0.865  11.345  18.746  0.00  0.00    +0.000 OA
ATOM     22  N   UNL     1      -0.089   9.572  19.872  0.00  0.00    +0.000 N 
ATOM     23  H   UNL     1      -0.991   9.127  20.018  0.00  0.00    +0.000 HD
BRANCH  20  29
ATOM     24  C   UNL     1      -2.395  11.731  18.664  0.00  0.00    +0.000 A 
ATOM     25  C   UNL     1      -3.717  11.619  18.209  0.00  0.00    +0.000 A 
ATOM     26  C   UNL     1      -4.046  10.681  17.235  0.00  0.00    +0.000 A 
ATOM     27  C   UNL     1      -3.043   9.888  16.678  0.00  0.00    +0.000 A 
ATOM     28  C   UNL     1      -1.731   9.952  17.184  0.00  0.00    +0.000 A 
ATOM     29  C   UNL     1      -1.413  10.821  18.243  0.00  0.00    +0.000 A 
BRANCH  24  30
ATOM     30  O   UNL     1      -2.103  12.662  19.624  0.00  0.00    +0.000 OA
BRANCH  30  32
ATOM     31  C   UNL     1      -2.762  12.626  21.909  0.00  0.00    +0.000 C 
ATOM     32  C   UNL     1      -3.220  12.919  20.492  0.00  0.00    +0.000 C 
ENDBRANCH  30  32
ENDBRANCH  24  30
ENDBRANCH  20  29
ENDBRANCH  19  22
BRANCH  19  33
ATOM     33  C   UNL     1       0.847   8.939  22.132  0.00  0.00    +0.000 C 
ATOM     34  C   UNL     1       1.990   9.412  23.023  0.00  0.00    +0.000 C 
ATOM     35  C   UNL     1      -0.453   9.635  22.568  0.00  0.00    +0.000 C 
ENDBRANCH  19  33
ENDBRANCH   1  19
TORSDOF 10
ENDMDL
MODEL 3
REMARK VINA RESULT:      -7.5      1.487      1.810
REMARK  Name = 
REMARK  16 active torsions:
REMARK  status: ('A' for Active; 'I' for Inactive)
REMARK    1  A    between atoms: C_1  and  C_2
REMARK    2  A    between atoms: C_2  and  O_3
REMARK    3  A    between atoms: O_3  and  C_4
REMARK    4  A    between atoms: C_9  and  C_10
REMARK    5  A    between atoms: N_12  and  C_13
REMARK    6  A    between atoms: C_13  and  C_14
REMARK    7  A    between atoms: C_13  and  C_31
REMARK    8  A    between atoms: N_16  and  C_17
REMARK    9  A    between atoms: C_19  and  S_20
REMARK   10  A    between atoms: S_20  and  N_23
REMARK   11  A    between atoms: N_23  and  C_24
REMARK   12  A    between atoms: N_23  and  C_25
REMARK   13  A    between atoms: C_28  and  O_29
REMARK   14  A    between atoms: O_29  and  C_30
REMARK   15  A    between atoms: C_31  and  C_32
REMARK   16  A    between atoms: C_31  and  C_33
REMARK                            x       y       z     vdW  Elec       q    Type
REMARK                         _______ _______ _______ _____ _____    ______ ____
ROOT
ATOM      1  C   UNL     1       1.363   8.827  19.144  0.00  0.00    +0.000 C 
ATOM      2  O   UNL     1       1.296   8.928  17.913  0.00  0.00    +0.000 OA
ATOM      3  N   UNL     1       1.997   7.750  19.758  0.00  0.00    +0.000 N 
ATOM      4  H   UNL     1       1.631   7.527  20.673  0.00  0.00    +0.000 HD
ENDROOT
BRANCH   3   5
ATOM      5  C   UNL     1       2.593   6.626  19.047  0.00  0.00    +0.000 A 
ATOM      6  C   UNL     1       3.648   6.933  18.161  0.00  0.00    +0.000 A 
ATOM      7  C   UNL     1       4.376   5.926  17.506  0.00  0.00    +0.000 A 
ATOM      8  C   UNL     1       4.041   4.588  17.647  0.00  0.00    +0.000 A 
ATOM      9  C   UNL     1       2.959   4.244  18.452  0.00  0.00    +0.000 A 
ATOM     10  C   UNL     1       2.219   5.260  19.121  0.00  0.00    +0.000 A 
BRANCH   7  11
ATOM     11  S   UNL     1       5.708   6.361  16.387  0.00  0.00    +0.000 S 
ATOM     12  O   UNL     1       5.104   6.728  15.120  0.00  0.00    +0.000 OA
ATOM     13  O   UNL     1       6.576   7.281  17.090  0.00  0.00    +0.000 OA
BRANCH  11  14
ATOM     14  N   UNL     1       6.541   4.896  16.156  0.00  0.00    +0.000 NA
ATOM     15  C   UNL     1       6.885   4.549  14.770  0.00  0.00    +0.000 C 
ATOM     16  C   UNL     1       7.593   4.562  17.132  0.00  0.00    +0.000 C 
ENDBRANCH  11  14
ENDBRANCH   7  11
BRANCH  10  17
ATOM     17  O   UNL     1       1.101   4.761  19.737  0.00  0.00    +0.000 OA
ATOM     18  C   UNL     1       1.231   3.384  20.073  0.00  0.00    +0.000 C 
ENDBRANCH  10  17
ENDBRANCH   3   5
BRANCH   1  19
ATOM     19  C   UNL     1       0.686   9.995  20.032  0.00  0.00    +0.000 C 
BRANCH  19  22
ATOM     20  C   UNL     1      -0.839  11.627  18.667  0.00  0.00    +0.000 C 
ATOM     21  O   UNL     1      -0.008  12.491  18.406  0.00  0.00    +0.000 OA
ATOM     22  N   UNL     1      -0.587  10.519  19.455  0.00  0.00    +0.000 N 
ATOM     23  H   UNL     1      -1.396   9.928  19.627  0.00  0.00    +0.000 HD
BRANCH  20  29
ATOM     24  C   UNL     1      -3.373  11.932  18.748  0.00  0.00    +0.000 A 
ATOM     25  C   UNL     1      -4.636  11.578  18.253  0.00  0.00    +0.000 A 
ATOM     26  C   UNL     1      -4.763  11.049  16.971  0.00  0.00    +0.000 A 
ATOM     27  C   UNL     1      -3.632  10.923  16.166  0.00  0.00    +0.000 A 
ATOM     28  C   UNL     1      -2.358  11.213  16.688  0.00  0.00    +0.000 A 
ATOM     29  C   UNL     1      -2.210  11.645  18.019  0.00  0.00    +0.000 A 
BRANCH  24  30
ATOM     30  O   UNL     1      -3.281  12.449  20.013  0.00  0.00    +0.000 OA
BRANCH  30  32
ATOM     31  C   UNL     1      -4.590  12.761  21.975  0.00  0.00    +0.000 C 
ATOM     32  C   UNL     1      -4.532  12.987  20.475  0.00  0.00    +0.000 C 
ENDBRANCH  30  32
ENDBRANCH  24  30
ENDBRANCH  20  29
ENDBRANCH  19  22
BRANCH  19  33
ATOM     33  C   UNL     1       0.772  10.270  21.571  0.00  0.00    +0.000 C 
ATOM     34  C   UNL     1      -0.412  10.909  22.287  0.00  0.00    +0.000 C 
ATOM     35  C   UNL     1       1.256   9.056  22.381  0.00  0.00    +0.000 C 
ENDBRANCH  19  33
ENDBRANCH   1  19
TORSDOF 10
ENDMDL
MODEL 4
REMARK VINA RESULT:      -7.3      2.897      3.959
REMARK  Name = 
REMARK  16 active torsions:
REMARK  status: ('A' for Active; 'I' for Inactive)
REMARK    1  A    between atoms: C_1  and  C_2
REMARK    2  A    between atoms: C_2  and  O_3
REMARK    3  A    between atoms: O_3  and  C_4
REMARK    4  A    between atoms: C_9  and  C_10
REMARK    5  A    between atoms: N_12  and  C_13
REMARK    6  A    between atoms: C_13  and  C_14
REMARK    7  A    between atoms: C_13  and  C_31
REMARK    8  A    between atoms: N_16  and  C_17
REMARK    9  A    between atoms: C_19  and  S_20
REMARK   10  A    between atoms: S_20  and  N_23
REMARK   11  A    between atoms: N_23  and  C_24
REMARK   12  A    between atoms: N_23  and  C_25
REMARK   13  A    between atoms: C_28  and  O_29
REMARK   14  A    between atoms: O_29  and  C_30
REMARK   15  A    between atoms: C_31  and  C_32
REMARK   16  A    between atoms: C_31  and  C_33
REMARK                            x       y       z     vdW  Elec       q    Type
REMARK                         _______ _______ _______ _____ _____    ______ ____
ROOT
ATOM      1  C   UNL     1       1.267   9.183  19.983  0.00  0.00    +0.000 C 
ATOM      2  O   UNL     1       1.653   8.844  21.108  0.00  0.00    +0.000 OA
ATOM      3  N   UNL     1       1.630   8.477  18.840  0.00  0.00    +0.000 N 
ATOM      4  H   UNL     1       1.655   9.041  18.001  0.00  0.00    +0.000 HD
ENDROOT
BRANCH   3   5
ATOM      5  C   UNL     1       2.519   7.322  18.827  0.00  0.00    +0.000 A 
ATOM      6  C   UNL     1       3.542   7.330  17.855  0.00  0.00    +0.000 A 
ATOM      7  C   UNL     1       4.529   6.331  17.816  0.00  0.00    +0.000 A 
ATOM      8  C   UNL     1       4.497   5.254  18.688  0.00  0.00    +0.000 A 
ATOM      9  C   UNL     1       3.463   5.166  19.615  0.00  0.00    +0.000 A 
ATOM     10  C   UNL     1       2.461   6.177  19.661  0.00  0.00    +0.000 A 
BRANCH   7  11
ATOM     11  S   UNL     1       5.809   6.379  16.562  0.00  0.00    +0.000 S 
ATOM     12  O   UNL     1       5.155   6.604  15.286  0.00  0.00    +0.000 OA
ATOM     13  O   UNL     1       6.841   7.275  17.035  0.00  0.00    +0.000 OA
BRANCH  11  14
ATOM     14  N   UNL     1       6.428   4.794  16.551  0.00  0.00    +0.000 NA
ATOM     15  C   UNL     1       6.404   4.089  15.261  0.00  0.00    +0.000 C 
ATOM     16  C   UNL     1       7.645   4.545  17.343  0.00  0.00    +0.000 C 
ENDBRANCH  11  14
ENDBRANCH   7  11
BRANCH  10  17
ATOM     17  O   UNL     1       1.442   5.853  20.518  0.00  0.00    +0.000 OA
ATOM     18  C   UNL     1       1.162   4.457  20.531  0.00  0.00    +0.000 C 
ENDBRANCH  10  17
ENDBRANCH   3   5
BRANCH   1  19
ATOM     19  C   UNL     1       0.317  10.486  19.876  0.00  0.00    +0.000 C 
BRANCH  19  22
ATOM     20  C   UNL     1       1.934  12.159  18.678  0.00  0.00    +0.000 C 
ATOM     21  O   UNL     1       2.344  11.423  17.786  0.00  0.00    +0.000 OA
ATOM     22  N   UNL     1       1.072  11.759  19.681  0.00  0.00    +0.000 N 
ATOM     23  H   UNL     1       0.874  12.470  20.380  0.00  0.00    +0.000 HD
BRANCH  20  29
ATOM     24  C   UNL     1       1.270  14.614  18.917  0.00  0.00    +0.000 A 
ATOM     25  C   UNL     1       1.470  15.948  18.537  0.00  0.00    +0.000 A 
ATOM     26  C   UNL     1       2.698  16.354  18.022  0.00  0.00    +0.000 A 
ATOM     27  C   UNL     1       3.743  15.435  17.935  0.00  0.00    +0.000 A 
ATOM     28  C   UNL     1       3.521  14.082  18.252  0.00  0.00    +0.000 A 
ATOM     29  C   UNL     1       2.252  13.642  18.670  0.00  0.00    +0.000 A 
BRANCH  24  30
ATOM     30  O   UNL     1       0.050  14.246  19.419  0.00  0.00    +0.000 OA
BRANCH  30  32
ATOM     31  C   UNL     1      -1.109  15.190  21.269  0.00  0.00    +0.000 C 
ATOM     32  C   UNL     1      -0.744  15.379  19.808  0.00  0.00    +0.000 C 
ENDBRANCH  30  32
ENDBRANCH  24  30
ENDBRANCH  20  29
ENDBRANCH  19  22
BRANCH  19  33
ATOM     33  C   UNL     1      -1.162  10.617  19.380  0.00  0.00    +0.000 C 
ATOM     34  C   UNL     1      -1.979  11.844  19.769  0.00  0.00    +0.000 C 
ATOM     35  C   UNL     1      -1.326  10.359  17.873  0.00  0.00    +0.000 C 
ENDBRANCH  19  33
ENDBRANCH   1  19
TORSDOF 10
ENDMDL
MODEL 5
REMARK VINA RESULT:      -7.3      1.146      1.334
REMARK  Name = 
REMARK  16 active torsions:
REMARK  status: ('A' for Active; 'I' for Inactive)
REMARK    1  A    between atoms: C_1  and  C_2
REMARK    2  A    between atoms: C_2  and  O_3
REMARK    3  A    between atoms: O_3  and  C_4
REMARK    4  A    between atoms: C_9  and  C_10
REMARK    5  A    between atoms: N_12  and  C_13
REMARK    6  A    between atoms: C_13  and  C_14
REMARK    7  A    between atoms: C_13  and  C_31
REMARK    8  A    between atoms: N_16  and  C_17
REMARK    9  A    between atoms: C_19  and  S_20
REMARK   10  A    between atoms: S_20  and  N_23
REMARK   11  A    between atoms: N_23  and  C_24
REMARK   12  A    between atoms: N_23  and  C_25
REMARK   13  A    between atoms: C_28  and  O_29
REMARK   14  A    between atoms: O_29  and  C_30
REMARK   15  A    between atoms: C_31  and  C_32
REMARK   16  A    between atoms: C_31  and  C_33
REMARK                            x       y       z     vdW  Elec       q    Type
REMARK                         _______ _______ _______ _____ _____    ______ ____
ROOT
ATOM      1  C   UNL     1       1.977   7.761  19.634  0.00  0.00    +0.000 C 
ATOM      2  O   UNL     1       2.030   8.033  18.429  0.00  0.00    +0.000 OA
ATOM      3  N   UNL     1       2.603   6.634  20.159  0.00  0.00    +0.000 N 
ATOM      4  H   UNL     1       2.159   6.269  20.990  0.00  0.00    +0.000 HD
ENDROOT
BRANCH   3   5
ATOM      5  C   UNL     1       3.328   5.646  19.369  0.00  0.00    +0.000 A 
ATOM      6  C   UNL     1       4.682   5.934  19.096  0.00  0.00    +0.000 A 
ATOM      7  C   UNL     1       5.515   5.010  18.443  0.00  0.00    +0.000 A 
ATOM      8  C   UNL     1       5.021   3.802  17.975  0.00  0.00    +0.000 A 
ATOM      9  C   UNL     1       3.672   3.509  18.156  0.00  0.00    +0.000 A 
ATOM     10  C   UNL     1       2.824   4.440  18.819  0.00  0.00    +0.000 A 
BRANCH   7  11
ATOM     11  S   UNL     1       7.229   5.418  18.113  0.00  0.00    +0.000 S 
ATOM     12  O   UNL     1       7.793   5.940  19.344  0.00  0.00    +0.000 OA
ATOM     13  O   UNL     1       7.822   4.277  17.450  0.00  0.00    +0.000 OA
BRANCH  11  14
ATOM     14  N   UNL     1       7.135   6.704  17.004  0.00  0.00    +0.000 NA
ATOM     15  C   UNL     1       5.937   6.751  16.153  0.00  0.00    +0.000 C 
ATOM     16  C   UNL     1       7.586   8.027  17.471  0.00  0.00    +0.000 C 
ENDBRANCH  11  14
ENDBRANCH   7  11
BRANCH  10  17
ATOM     17  O   UNL     1       1.508   4.063  18.771  0.00  0.00    +0.000 OA
ATOM     18  C   UNL     1       1.346   2.681  18.469  0.00  0.00    +0.000 C 
ENDBRANCH  10  17
ENDBRANCH   3   5
BRANCH   1  19
ATOM     19  C   UNL     1       1.152   8.763  20.597  0.00  0.00    +0.000 C 
BRANCH  19  22
ATOM     20  C   UNL     1       0.034  10.552  19.048  0.00  0.00    +0.000 C 
ATOM     21  O   UNL     1       1.022  11.240  18.807  0.00  0.00    +0.000 OA
ATOM     22  N   UNL     1       0.033   9.467  19.903  0.00  0.00    +0.000 N 
ATOM     23  H   UNL     1      -0.878   9.037  20.042  0.00  0.00    +0.000 HD
BRANCH  20  29
ATOM     24  C   UNL     1      -2.262  11.637  18.778  0.00  0.00    +0.000 A 
ATOM     25  C   UNL     1      -3.580  11.545  18.306  0.00  0.00    +0.000 A 
ATOM     26  C   UNL     1      -3.891  10.677  17.264  0.00  0.00    +0.000 A 
ATOM     27  C   UNL     1      -2.876   9.937  16.658  0.00  0.00    +0.000 A 
ATOM     28  C   UNL     1      -1.569   9.979  17.177  0.00  0.00    +0.000 A 
ATOM     29  C   UNL     1      -1.267  10.772  18.299  0.00  0.00    +0.000 A 
BRANCH  24  30
ATOM     30  O   UNL     1      -1.987  12.500  19.805  0.00  0.00    +0.000 OA
BRANCH  30  32
ATOM     31  C   UNL     1      -0.431  14.169  20.475  0.00  0.00    +0.000 C 
ATOM     32  C   UNL     1      -1.337  13.699  19.351  0.00  0.00    +0.000 C 
ENDBRANCH  30  32
ENDBRANCH  24  30
ENDBRANCH  20  29
ENDBRANCH  19  22
BRANCH  19  33
ATOM     33  C   UNL     1       0.926   8.716  22.145  0.00  0.00    +0.000 C 
ATOM     34  C   UNL     1       1.954   9.353  23.073  0.00  0.00    +0.000 C 
ATOM     35  C   UNL     1      -0.483   9.163  22.570  0.00  0.00    +0.000 C 
ENDBRANCH  19  33
ENDBRANCH   1  19
TORSDOF 10
ENDMDL
MODEL 6
REMARK VINA RESULT:      -7.2      1.999      3.097
REMARK  Name = 
REMARK  16 active torsions:
REMARK  status: ('A' for Active; 'I' for Inactive)
REMARK    1  A    between atoms: C_1  and  C_2
REMARK    2  A    between atoms: C_2  and  O_3
REMARK    3  A    between atoms: O_3  and  C_4
REMARK    4  A    between atoms: C_9  and  C_10
REMARK    5  A    between atoms: N_12  and  C_13
REMARK    6  A    between atoms: C_13  and  C_14
REMARK    7  A    between atoms: C_13  and  C_31
REMARK    8  A    between atoms: N_16  and  C_17
REMARK    9  A    between atoms: C_19  and  S_20
REMARK   10  A    between atoms: S_20  and  N_23
REMARK   11  A    between atoms: N_23  and  C_24
REMARK   12  A    between atoms: N_23  and  C_25
REMARK   13  A    between atoms: C_28  and  O_29
REMARK   14  A    between atoms: O_29  and  C_30
REMARK   15  A    between atoms: C_31  and  C_32
REMARK   16  A    between atoms: C_31  and  C_33
REMARK                            x       y       z     vdW  Elec       q    Type
REMARK                         _______ _______ _______ _____ _____    ______ ____
ROOT
ATOM      1  C   UNL     1       1.421   9.312  18.273  0.00  0.00    +0.000 C 
ATOM      2  O   UNL     1       0.710   8.728  17.446  0.00  0.00    +0.000 OA
ATOM      3  N   UNL     1       2.526   8.697  18.853  0.00  0.00    +0.000 N 
ATOM      4  H   UNL     1       2.751   9.044  19.776  0.00  0.00    +0.000 HD
ENDROOT
BRANCH   3   5
ATOM      5  C   UNL     1       2.934   7.320  18.602  0.00  0.00    +0.000 A 
ATOM      6  C   UNL     1       3.851   7.120  17.548  0.00  0.00    +0.000 A 
ATOM      7  C   UNL     1       4.405   5.857  17.283  0.00  0.00    +0.000 A 
ATOM      8  C   UNL     1       4.018   4.737  18.002  0.00  0.00    +0.000 A 
ATOM      9  C   UNL     1       3.060   4.874  19.002  0.00  0.00    +0.000 A 
ATOM     10  C   UNL     1       2.496   6.152  19.277  0.00  0.00    +0.000 A 
BRANCH   7  11
ATOM     11  S   UNL     1       5.565   5.648  15.932  0.00  0.00    +0.000 S 
ATOM     12  O   UNL     1       5.404   4.296  15.432  0.00  0.00    +0.000 OA
ATOM     13  O   UNL     1       5.410   6.787  15.054  0.00  0.00    +0.000 OA
BRANCH  11  14
ATOM     14  N   UNL     1       7.088   5.743  16.684  0.00  0.00    +0.000 NA
ATOM     15  C   UNL     1       7.402   7.003  17.372  0.00  0.00    +0.000 C 
ATOM     16  C   UNL     1       7.560   4.542  17.395  0.00  0.00    +0.000 C 
ENDBRANCH  11  14
ENDBRANCH   7  11
BRANCH  10  17
ATOM     17  O   UNL     1       1.463   6.078  20.175  0.00  0.00    +0.000 OA
ATOM     18  C   UNL     1       1.130   4.736  20.513  0.00  0.00    +0.000 C 
ENDBRANCH  10  17
ENDBRANCH   3   5
BRANCH   1  19
ATOM     19  C   UNL     1       1.027  10.830  18.665  0.00  0.00    +0.000 C 
BRANCH  19  22
ATOM     20  C   UNL     1      -1.287  12.034  18.452  0.00  0.00    +0.000 C 
ATOM     21  O   UNL     1      -0.915  13.067  17.904  0.00  0.00    +0.000 OA
ATOM     22  N   UNL     1      -0.438  11.029  18.873  0.00  0.00    +0.000 N 
ATOM     23  H   UNL     1      -0.895  10.264  19.363  0.00  0.00    +0.000 HD
BRANCH  20  29
ATOM     24  C   UNL     1      -3.463  10.986  17.619  0.00  0.00    +0.000 A 
ATOM     25  C   UNL     1      -4.863  11.028  17.559  0.00  0.00    +0.000 A 
ATOM     26  C   UNL     1      -5.586  11.694  18.544  0.00  0.00    +0.000 A 
ATOM     27  C   UNL     1      -4.912  12.276  19.617  0.00  0.00    +0.000 A 
ATOM     28  C   UNL     1      -3.505  12.294  19.639  0.00  0.00    +0.000 A 
ATOM     29  C   UNL     1      -2.764  11.717  18.592  0.00  0.00    +0.000 A 
BRANCH  24  30
ATOM     30  O   UNL     1      -2.779  10.324  16.634  0.00  0.00    +0.000 OA
BRANCH  30  32
ATOM     31  C   UNL     1      -3.141   9.854  14.331  0.00  0.00    +0.000 C 
ATOM     32  C   UNL     1      -2.922  10.957  15.351  0.00  0.00    +0.000 C 
ENDBRANCH  30  32
ENDBRANCH  24  30
ENDBRANCH  20  29
ENDBRANCH  19  22
BRANCH  19  33
ATOM     33  C   UNL     1       1.864  11.932  19.397  0.00  0.00    +0.000 C 
ATOM     34  C   UNL     1       2.367  13.137  18.611  0.00  0.00    +0.000 C 
ATOM     35  C   UNL     1       1.223  12.416  20.707  0.00  0.00    +0.000 C 
ENDBRANCH  19  33
ENDBRANCH   1  19
TORSDOF 10
ENDMDL
MODEL 7
REMARK VINA RESULT:      -7.2      2.308      3.125
REMARK  Name = 
REMARK  16 active torsions:
REMARK  status: ('A' for Active; 'I' for Inactive)
REMARK    1  A    between atoms: C_1  and  C_2
REMARK    2  A    between atoms: C_2  and  O_3
REMARK    3  A    between atoms: O_3  and  C_4
REMARK    4  A    between atoms: C_9  and  C_10
REMARK    5  A    between atoms: N_12  and  C_13
REMARK    6  A    between atoms: C_13  and  C_14
REMARK    7  A    between atoms: C_13  and  C_31
REMARK    8  A    between atoms: N_16  and  C_17
REMARK    9  A    between atoms: C_19  and  S_20
REMARK   10  A    between atoms: S_20  and  N_23
REMARK   11  A    between atoms: N_23  and  C_24
REMARK   12  A    between atoms: N_23  and  C_25
REMARK   13  A    between atoms: C_28  and  O_29
REMARK   14  A    between atoms: O_29  and  C_30
REMARK   15  A    between atoms: C_31  and  C_32
REMARK   16  A    between atoms: C_31  and  C_33
REMARK                            x       y       z     vdW  Elec       q    Type
REMARK                         _______ _______ _______ _____ _____    ______ ____
ROOT
ATOM      1  C   UNL     1       1.890   8.046  19.262  0.00  0.00    +0.000 C 
ATOM      2  O   UNL     1       1.545   8.226  18.088  0.00  0.00    +0.000 OA
ATOM      3  N   UNL     1       2.605   6.917  19.652  0.00  0.00    +0.000 N 
ATOM      4  H   UNL     1       2.451   6.646  20.613  0.00  0.00    +0.000 HD
ENDROOT
BRANCH   3   5
ATOM      5  C   UNL     1       2.977   5.825  18.761  0.00  0.00    +0.000 A 
ATOM      6  C   UNL     1       4.017   6.090  17.845  0.00  0.00    +0.000 A 
ATOM      7  C   UNL     1       4.541   5.086  17.014  0.00  0.00    +0.000 A 
ATOM      8  C   UNL     1       4.009   3.806  17.009  0.00  0.00    +0.000 A 
ATOM      9  C   UNL     1       2.932   3.520  17.843  0.00  0.00    +0.000 A 
ATOM     10  C   UNL     1       2.398   4.533  18.689  0.00  0.00    +0.000 A 
BRANCH   7  11
ATOM     11  S   UNL     1       5.861   5.468  15.862  0.00  0.00    +0.000 S 
ATOM     12  O   UNL     1       6.108   4.274  15.077  0.00  0.00    +0.000 OA
ATOM     13  O   UNL     1       5.522   6.721  15.221  0.00  0.00    +0.000 OA
BRANCH  11  14
ATOM     14  N   UNL     1       7.215   5.718  16.861  0.00  0.00    +0.000 NA
ATOM     15  C   UNL     1       7.410   7.082  17.374  0.00  0.00    +0.000 C 
ATOM     16  C   UNL     1       7.528   4.663  17.842  0.00  0.00    +0.000 C 
ENDBRANCH  11  14
ENDBRANCH   7  11
BRANCH  10  17
ATOM     17  O   UNL     1       1.251   4.126  19.319  0.00  0.00    +0.000 OA
ATOM     18  C   UNL     1       1.079   2.713  19.281  0.00  0.00    +0.000 C 
ENDBRANCH  10  17
ENDBRANCH   3   5
BRANCH   1  19
ATOM     19  C   UNL     1       1.481   9.173  20.347  0.00  0.00    +0.000 C 
BRANCH  19  22
ATOM     20  C   UNL     1       1.199  11.505  19.193  0.00  0.00    +0.000 C 
ATOM     21  O   UNL     1       0.152  11.294  18.590  0.00  0.00    +0.000 OA
ATOM     22  N   UNL     1       1.869  10.556  19.942  0.00  0.00    +0.000 N 
ATOM     23  H   UNL     1       2.754  10.870  20.331  0.00  0.00    +0.000 HD
BRANCH  20  29
ATOM     24  C   UNL     1       1.635  13.709  20.408  0.00  0.00    +0.000 A 
ATOM     25  C   UNL     1       1.831  15.096  20.334  0.00  0.00    +0.000 A 
ATOM     26  C   UNL     1       2.302  15.675  19.159  0.00  0.00    +0.000 A 
ATOM     27  C   UNL     1       2.624  14.862  18.073  0.00  0.00    +0.000 A 
ATOM     28  C   UNL     1       2.362  13.481  18.124  0.00  0.00    +0.000 A 
ATOM     29  C   UNL     1       1.785  12.902  19.270  0.00  0.00    +0.000 A 
BRANCH  24  30
ATOM     30  O   UNL     1       1.170  13.169  21.577  0.00  0.00    +0.000 OA
BRANCH  30  32
ATOM     31  C   UNL     1      -1.148  12.682  21.791  0.00  0.00    +0.000 C 
ATOM     32  C   UNL     1      -0.083  13.746  21.984  0.00  0.00    +0.000 C 
ENDBRANCH  30  32
ENDBRANCH  24  30
ENDBRANCH  20  29
ENDBRANCH  19  22
BRANCH  19  33
ATOM     33  C   UNL     1       0.320   9.187  21.396  0.00  0.00    +0.000 C 
ATOM     34  C   UNL     1      -0.675   8.033  21.432  0.00  0.00    +0.000 C 
ATOM     35  C   UNL     1       0.794   9.488  22.828  0.00  0.00    +0.000 C 
ENDBRANCH  19  33
ENDBRANCH   1  19
TORSDOF 10
ENDMDL
MODEL 8
REMARK VINA RESULT:      -7.2      3.022      4.345
REMARK  Name = 
REMARK  16 active torsions:
REMARK  status: ('A' for Active; 'I' for Inactive)
REMARK    1  A    between atoms: C_1  and  C_2
REMARK    2  A    between atoms: C_2  and  O_3
REMARK    3  A    between atoms: O_3  and  C_4
REMARK    4  A    between atoms: C_9  and  C_10
REMARK    5  A    between atoms: N_12  and  C_13
REMARK    6  A    between atoms: C_13  and  C_14
REMARK    7  A    between atoms: C_13  and  C_31
REMARK    8  A    between atoms: N_16  and  C_17
REMARK    9  A    between atoms: C_19  and  S_20
REMARK   10  A    between atoms: S_20  and  N_23
REMARK   11  A    between atoms: N_23  and  C_24
REMARK   12  A    between atoms: N_23  and  C_25
REMARK   13  A    between atoms: C_28  and  O_29
REMARK   14  A    between atoms: O_29  and  C_30
REMARK   15  A    between atoms: C_31  and  C_32
REMARK   16  A    between atoms: C_31  and  C_33
REMARK                            x       y       z     vdW  Elec       q    Type
REMARK                         _______ _______ _______ _____ _____    ______ ____
ROOT
ATOM      1  C   UNL     1       1.140   9.136  19.822  0.00  0.00    +0.000 C 
ATOM      2  O   UNL     1       1.593   8.929  20.954  0.00  0.00    +0.000 OA
ATOM      3  N   UNL     1       1.506   8.351  18.731  0.00  0.00    +0.000 N 
ATOM      4  H   UNL     1       1.459   8.835  17.845  0.00  0.00    +0.000 HD
ENDROOT
BRANCH   3   5
ATOM      5  C   UNL     1       2.472   7.261  18.782  0.00  0.00    +0.000 A 
ATOM      6  C   UNL     1       3.487   7.277  17.801  0.00  0.00    +0.000 A 
ATOM      7  C   UNL     1       4.539   6.347  17.815  0.00  0.00    +0.000 A 
ATOM      8  C   UNL     1       4.587   5.328  18.754  0.00  0.00    +0.000 A 
ATOM      9  C   UNL     1       3.566   5.229  19.695  0.00  0.00    +0.000 A 
ATOM     10  C   UNL     1       2.498   6.170  19.687  0.00  0.00    +0.000 A 
BRANCH   7  11
ATOM     11  S   UNL     1       5.806   6.402  16.547  0.00  0.00    +0.000 S 
ATOM     12  O   UNL     1       5.138   6.628  15.280  0.00  0.00    +0.000 OA
ATOM     13  O   UNL     1       6.840   7.302  17.012  0.00  0.00    +0.000 OA
BRANCH  11  14
ATOM     14  N   UNL     1       6.430   4.820  16.526  0.00  0.00    +0.000 NA
ATOM     15  C   UNL     1       6.383   4.113  15.238  0.00  0.00    +0.000 C 
ATOM     16  C   UNL     1       7.664   4.576  17.294  0.00  0.00    +0.000 C 
ENDBRANCH  11  14
ENDBRANCH   7  11
BRANCH  10  17
ATOM     17  O   UNL     1       1.508   5.832  20.573  0.00  0.00    +0.000 OA
ATOM     18  C   UNL     1       1.314   4.425  20.665  0.00  0.00    +0.000 C 
ENDBRANCH  10  17
ENDBRANCH   3   5
BRANCH   1  19
ATOM     19  C   UNL     1       0.098  10.358  19.641  0.00  0.00    +0.000 C 
BRANCH  19  22
ATOM     20  C   UNL     1       1.025  12.564  20.700  0.00  0.00    +0.000 C 
ATOM     21  O   UNL     1       0.634  12.402  21.852  0.00  0.00    +0.000 OA
ATOM     22  N   UNL     1       0.748  11.701  19.657  0.00  0.00    +0.000 N 
ATOM     23  H   UNL     1       1.094  12.006  18.751  0.00  0.00    +0.000 HD
BRANCH  20  29
ATOM     24  C   UNL     1       1.791  14.507  19.230  0.00  0.00    +0.000 A 
ATOM     25  C   UNL     1       2.848  15.268  18.711  0.00  0.00    +0.000 A 
ATOM     26  C   UNL     1       4.068  15.322  19.380  0.00  0.00    +0.000 A 
ATOM     27  C   UNL     1       4.215  14.655  20.595  0.00  0.00    +0.000 A 
ATOM     28  C   UNL     1       3.178  13.836  21.080  0.00  0.00    +0.000 A 
ATOM     29  C   UNL     1       1.981  13.690  20.355  0.00  0.00    +0.000 A 
BRANCH  24  30
ATOM     30  O   UNL     1       0.604  14.474  18.549  0.00  0.00    +0.000 OA
BRANCH  30  32
ATOM     31  C   UNL     1      -0.397  16.626  18.403  0.00  0.00    +0.000 C 
ATOM     32  C   UNL     1      -0.397  15.308  19.156  0.00  0.00    +0.000 C 
ENDBRANCH  30  32
ENDBRANCH  24  30
ENDBRANCH  20  29
ENDBRANCH  19  22
BRANCH  19  33
ATOM     33  C   UNL     1      -1.288  10.401  18.915  0.00  0.00    +0.000 C 
ATOM     34  C   UNL     1      -2.146  11.657  19.010  0.00  0.00    +0.000 C 
ATOM     35  C   UNL     1      -1.224   9.944  17.448  0.00  0.00    +0.000 C 
ENDBRANCH  19  33
ENDBRANCH   1  19
TORSDOF 10
ENDMDL
MODEL 9
REMARK VINA RESULT:      -7.2      2.072      3.632
REMARK  Name = 
REMARK  16 active torsions:
REMARK  status: ('A' for Active; 'I' for Inactive)
REMARK    1  A    between atoms: C_1  and  C_2
REMARK    2  A    between atoms: C_2  and  O_3
REMARK    3  A    between atoms: O_3  and  C_4
REMARK    4  A    between atoms: C_9  and  C_10
REMARK    5  A    between atoms: N_12  and  C_13
REMARK    6  A    between atoms: C_13  and  C_14
REMARK    7  A    between atoms: C_13  and  C_31
REMARK    8  A    between atoms: N_16  and  C_17
REMARK    9  A    between atoms: C_19  and  S_20
REMARK   10  A    between atoms: S_20  and  N_23
REMARK   11  A    between atoms: N_23  and  C_24
REMARK   12  A    between atoms: N_23  and  C_25
REMARK   13  A    between atoms: C_28  and  O_29
REMARK   14  A    between atoms: O_29  and  C_30
REMARK   15  A    between atoms: C_31  and  C_32
REMARK   16  A    between atoms: C_31  and  C_33
REMARK                            x       y       z     vdW  Elec       q    Type
REMARK                         _______ _______ _______ _____ _____    ______ ____
ROOT
ATOM      1  C   UNL     1       1.483   8.732  18.919  0.00  0.00    +0.000 C 
ATOM      2  O   UNL     1       1.331   8.806  17.694  0.00  0.00    +0.000 OA
ATOM      3  N   UNL     1       2.180   7.680  19.509  0.00  0.00    +0.000 N 
ATOM      4  H   UNL     1       1.881   7.469  20.451  0.00  0.00    +0.000 HD
ENDROOT
BRANCH   3   5
ATOM      5  C   UNL     1       2.750   6.554  18.781  0.00  0.00    +0.000 A 
ATOM      6  C   UNL     1       2.198   5.285  19.057  0.00  0.00    +0.000 A 
ATOM      7  C   UNL     1       2.584   4.141  18.339  0.00  0.00    +0.000 A 
ATOM      8  C   UNL     1       3.578   4.199  17.375  0.00  0.00    +0.000 A 
ATOM      9  C   UNL     1       4.204   5.416  17.122  0.00  0.00    +0.000 A 
ATOM     10  C   UNL     1       3.815   6.579  17.845  0.00  0.00    +0.000 A 
BRANCH   7  11
ATOM     11  S   UNL     1       1.858   2.548  18.725  0.00  0.00    +0.000 S 
ATOM     12  O   UNL     1       0.420   2.733  18.790  0.00  0.00    +0.000 OA
ATOM     13  O   UNL     1       2.441   1.580  17.822  0.00  0.00    +0.000 OA
BRANCH  11  14
ATOM     14  N   UNL     1       2.407   2.221  20.301  0.00  0.00    +0.000 NA
ATOM     15  C   UNL     1       3.846   2.396  20.544  0.00  0.00    +0.000 C 
ATOM     16  C   UNL     1       1.556   2.675  21.416  0.00  0.00    +0.000 C 
ENDBRANCH  11  14
ENDBRANCH   7  11
BRANCH  10  17
ATOM     17  O   UNL     1       4.636   7.646  17.585  0.00  0.00    +0.000 OA
ATOM     18  C   UNL     1       5.929   7.245  17.145  0.00  0.00    +0.000 C 
ENDBRANCH  10  17
ENDBRANCH   3   5
BRANCH   1  19
ATOM     19  C   UNL     1       0.842   9.904  19.830  0.00  0.00    +0.000 C 
BRANCH  19  22
ATOM     20  C   UNL     1      -0.714  11.570  18.546  0.00  0.00    +0.000 C 
ATOM     21  O   UNL     1       0.108  12.448  18.299  0.00  0.00    +0.000 OA
ATOM     22  N   UNL     1      -0.443  10.439  19.292  0.00  0.00    +0.000 N 
ATOM     23  H   UNL     1      -1.245   9.838  19.458  0.00  0.00    +0.000 HD
BRANCH  20  29
ATOM     24  C   UNL     1      -3.252  11.829  18.685  0.00  0.00    +0.000 A 
ATOM     25  C   UNL     1      -4.517  11.481  18.192  0.00  0.00    +0.000 A 
ATOM     26  C   UNL     1      -4.657  11.023  16.885  0.00  0.00    +0.000 A 
ATOM     27  C   UNL     1      -3.539  10.960  16.055  0.00  0.00    +0.000 A 
ATOM     28  C   UNL     1      -2.261  11.242  16.572  0.00  0.00    +0.000 A 
ATOM     29  C   UNL     1      -2.096  11.602  17.922  0.00  0.00    +0.000 A 
BRANCH  24  30
ATOM     30  O   UNL     1      -3.146  12.276  19.976  0.00  0.00    +0.000 OA
BRANCH  30  32
ATOM     31  C   UNL     1      -4.731  12.721  21.692  0.00  0.00    +0.000 C 
ATOM     32  C   UNL     1      -4.217  13.165  20.334  0.00  0.00    +0.000 C 
ENDBRANCH  30  32
ENDBRANCH  24  30
ENDBRANCH  20  29
ENDBRANCH  19  22
BRANCH  19  33
ATOM     33  C   UNL     1       0.978  10.175  21.365  0.00  0.00    +0.000 C 
ATOM     34  C   UNL     1      -0.083  11.007  22.077  0.00  0.00    +0.000 C 
ATOM     35  C   UNL     1       1.258   8.906  22.187  0.00  0.00    +0.000 C 
ENDBRANCH  19  33
ENDBRANCH   1  19
TORSDOF 10
ENDMDL
