MODEL 1
REMARK VINA RESULT:      -8.1      0.000      0.000
REMARK  Name = 
REMARK  3 active torsions:
REMARK  status: ('A' for Active; 'I' for Inactive)
REMARK    1  A    between atoms: N_11  and  C_12
REMARK    2  A    between atoms: N_21  and  C_22
REMARK    3  A    between atoms: C_22  and  C_23
REMARK                            x       y       z     vdW  Elec       q    Type
REMARK                         _______ _______ _______ _____ _____    ______ ____
ROOT
ATOM      1  O   UNL     1       4.309   7.238  16.732  0.00  0.00    +0.000 OA
ATOM      2  C   UNL     1       4.193   6.152  17.272  0.00  0.00    +0.000 A 
ATOM      3  C   UNL     1       3.434   5.881  18.396  0.00  0.00    +0.000 A 
ATOM      4  C   UNL     1       2.585   6.642  19.214  0.00  0.00    +0.000 A 
ATOM      5  N   UNL     1       1.984   6.014  20.289  0.00  0.00    +0.000 N 
ATOM      6  C   UNL     1       2.182   4.648  20.520  0.00  0.00    +0.000 A 
ATOM      7  O   UNL     1       1.632   4.091  21.457  0.00  0.00    +0.000 OA
ATOM      8  C   UNL     1       3.002   3.889  19.670  0.00  0.00    +0.000 A 
ATOM      9  C   UNL     1       3.609   4.546  18.615  0.00  0.00    +0.000 A 
ATOM     10  N   UNL     1       4.392   4.014  17.660  0.00  0.00    +0.000 N 
ATOM     11  N   UNL     1       4.742   4.979  16.814  0.00  0.00    +0.000 N 
ATOM     12  C   UNL     1       1.106   6.763  21.205  0.00  0.00    +0.000 C 
ATOM     13  C   UNL     1       1.239   8.280  21.035  0.00  0.00    +0.000 C 
ATOM     14  N   UNL     1       1.108   8.615  19.615  0.00  0.00    +0.000 NA
ATOM     15  C   UNL     1       2.280   8.089  18.871  0.00  0.00    +0.000 C 
ATOM     16  H   UNL     1       4.671   3.011  17.602  0.00  0.00    +0.000 HD
ENDROOT
BRANCH  11  17
ATOM     17  C   UNL     1       5.515   4.781  15.601  0.00  0.00    +0.000 A 
ATOM     18  C   UNL     1       5.008   3.978  14.559  0.00  0.00    +0.000 A 
ATOM     19  C   UNL     1       5.757   3.751  13.399  0.00  0.00    +0.000 A 
ATOM     20  C   UNL     1       7.030   4.303  13.268  0.00  0.00    +0.000 A 
ATOM     21  C   UNL     1       7.558   5.086  14.290  0.00  0.00    +0.000 A 
ATOM     22  C   UNL     1       6.817   5.337  15.451  0.00  0.00    +0.000 A 
ATOM     23 CL   UNL     1       7.634   6.264  16.705  0.00  0.00    +0.000 Cl
ENDBRANCH  11  17
BRANCH  14  24
ATOM     24  C   UNL     1       0.995  10.073  19.381  0.00  0.00    +0.000 C 
BRANCH  24  25
ATOM     25  C   UNL     1      -0.380  10.504  18.911  0.00  0.00    +0.000 A 
ATOM     26  C   UNL     1      -1.089  11.488  19.623  0.00  0.00    +0.000 A 
ATOM     27  C   UNL     1      -2.342  11.921  19.182  0.00  0.00    +0.000 A 
ATOM     28  C   UNL     1      -2.904  11.377  18.025  0.00  0.00    +0.000 A 
ATOM     29  C   UNL     1      -2.213  10.395  17.310  0.00  0.00    +0.000 A 
ATOM     30  C   UNL     1      -0.955   9.957  17.749  0.00  0.00    +0.000 A 
ENDBRANCH  24  25
ENDBRANCH  14  24
TORSDOF 3
ENDMDL
MODEL 2
REMARK VINA RESULT:      -8.0      2.717      4.613
REMARK  Name = 
REMARK  3 active torsions:
REMARK  status: ('A' for Active; 'I' for Inactive)
REMARK    1  A    between atoms: N_11  and  C_12
REMARK    2  A    between atoms: N_21  and  C_22
REMARK    3  A    between atoms: C_22  and  C_23
REMARK                            x       y       z     vdW  Elec       q    Type
REMARK                         _______ _______ _______ _____ _____    ______ ____
ROOT
ATOM      1  O   UNL     1       1.277   8.568  17.513  0.00  0.00    +0.000 OA
ATOM      2  C   UNL     1       1.568   8.331  18.673  0.00  0.00    +0.000 A 
ATOM      3  C   UNL     1       1.021   8.940  19.787  0.00  0.00    +0.000 A 
ATOM      4  C   UNL     1       0.022   9.906  19.988  0.00  0.00    +0.000 A 
ATOM      5  N   UNL     1      -0.260  10.289  21.286  0.00  0.00    +0.000 N 
ATOM      6  C   UNL     1       0.398   9.692  22.366  0.00  0.00    +0.000 A 
ATOM      7  O   UNL     1       0.131  10.015  23.512  0.00  0.00    +0.000 OA
ATOM      8  C   UNL     1       1.366   8.698  22.154  0.00  0.00    +0.000 A 
ATOM      9  C   UNL     1       1.646   8.348  20.845  0.00  0.00    +0.000 A 
ATOM     10  N   UNL     1       2.497   7.400  20.414  0.00  0.00    +0.000 N 
ATOM     11  N   UNL     1       2.446   7.359  19.085  0.00  0.00    +0.000 N 
ATOM     12  C   UNL     1      -1.275  11.321  21.563  0.00  0.00    +0.000 C 
ATOM     13  C   UNL     1      -1.669  12.108  20.309  0.00  0.00    +0.000 C 
ATOM     14  N   UNL     1      -2.000  11.165  19.238  0.00  0.00    +0.000 NA
ATOM     15  C   UNL     1      -0.772  10.447  18.813  0.00  0.00    +0.000 C 
ATOM     16  H   UNL     1       3.091   6.802  21.028  0.00  0.00    +0.000 HD
ENDROOT
BRANCH  11  17
ATOM     17  C   UNL     1       3.158   6.404  18.256  0.00  0.00    +0.000 A 
ATOM     18  C   UNL     1       4.222   6.830  17.435  0.00  0.00    +0.000 A 
ATOM     19  C   UNL     1       4.894   5.925  16.605  0.00  0.00    +0.000 A 
ATOM     20  C   UNL     1       4.504   4.587  16.565  0.00  0.00    +0.000 A 
ATOM     21  C   UNL     1       3.445   4.147  17.355  0.00  0.00    +0.000 A 
ATOM     22  C   UNL     1       2.772   5.034  18.202  0.00  0.00    +0.000 A 
ATOM     23 CL   UNL     1       1.395   4.372  19.078  0.00  0.00    +0.000 Cl
ENDBRANCH  11  17
BRANCH  14  24
ATOM     24  C   UNL     1      -2.610  11.828  18.063  0.00  0.00    +0.000 C 
BRANCH  24  25
ATOM     25  C   UNL     1      -4.119  11.935  18.147  0.00  0.00    +0.000 A 
ATOM     26  C   UNL     1      -4.741  12.112  19.396  0.00  0.00    +0.000 A 
ATOM     27  C   UNL     1      -6.130  12.247  19.486  0.00  0.00    +0.000 A 
ATOM     28  C   UNL     1      -6.913  12.209  18.330  0.00  0.00    +0.000 A 
ATOM     29  C   UNL     1      -6.308  12.029  17.083  0.00  0.00    +0.000 A 
ATOM     30  C   UNL     1      -4.916  11.893  16.989  0.00  0.00    +0.000 A 
ENDBRANCH  24  25
ENDBRANCH  14  24
TORSDOF 3
ENDMDL
MODEL 3
REMARK VINA RESULT:      -7.9      0.863      1.300
REMARK  Name = 
REMARK  3 active torsions:
REMARK  status: ('A' for Active; 'I' for Inactive)
REMARK    1  A    between atoms: N_11  and  C_12
REMARK    2  A    between atoms: N_21  and  C_22
REMARK    3  A    between atoms: C_22  and  C_23
REMARK                            x       y       z     vdW  Elec       q    Type
REMARK                         _______ _______ _______ _____ _____    ______ ____
ROOT
ATOM      1  O   UNL     1       4.638   6.857  15.948  0.00  0.00    +0.000 OA
ATOM      2  C   UNL     1       4.524   5.752  16.449  0.00  0.00    +0.000 A 
ATOM      3  C   UNL     1       3.823   5.453  17.603  0.00  0.00    +0.000 A 
ATOM      4  C   UNL     1       3.041   6.199  18.499  0.00  0.00    +0.000 A 
ATOM      5  N   UNL     1       2.486   5.542  19.580  0.00  0.00    +0.000 N 
ATOM      6  C   UNL     1       2.659   4.163  19.744  0.00  0.00    +0.000 A 
ATOM      7  O   UNL     1       2.148   3.581  20.687  0.00  0.00    +0.000 OA
ATOM      8  C   UNL     1       3.409   3.420  18.819  0.00  0.00    +0.000 A 
ATOM      9  C   UNL     1       3.973   4.105  17.757  0.00  0.00    +0.000 A 
ATOM     10  N   UNL     1       4.687   3.595  16.739  0.00  0.00    +0.000 N 
ATOM     11  N   UNL     1       5.015   4.586  15.914  0.00  0.00    +0.000 N 
ATOM     12  C   UNL     1       1.681   6.273  20.575  0.00  0.00    +0.000 C 
ATOM     13  C   UNL     1       1.845   7.792  20.459  0.00  0.00    +0.000 C 
ATOM     14  N   UNL     1       1.643   8.189  19.063  0.00  0.00    +0.000 NA
ATOM     15  C   UNL     1       2.756   7.666  18.233  0.00  0.00    +0.000 C 
ATOM     16  H   UNL     1       4.935   2.589  16.625  0.00  0.00    +0.000 HD
ENDROOT
BRANCH  11  17
ATOM     17  C   UNL     1       5.712   4.420  14.652  0.00  0.00    +0.000 A 
ATOM     18  C   UNL     1       5.144   3.640  13.623  0.00  0.00    +0.000 A 
ATOM     19  C   UNL     1       5.822   3.444  12.414  0.00  0.00    +0.000 A 
ATOM     20  C   UNL     1       7.083   4.003  12.219  0.00  0.00    +0.000 A 
ATOM     21  C   UNL     1       7.671   4.764  13.226  0.00  0.00    +0.000 A 
ATOM     22  C   UNL     1       7.001   4.984  14.435  0.00  0.00    +0.000 A 
ATOM     23 CL   UNL     1       7.891   5.884  15.660  0.00  0.00    +0.000 Cl
ENDBRANCH  11  17
BRANCH  14  24
ATOM     24  C   UNL     1       1.556   9.658  18.895  0.00  0.00    +0.000 C 
BRANCH  24  25
ATOM     25  C   UNL     1       0.141  10.159  18.688  0.00  0.00    +0.000 A 
ATOM     26  C   UNL     1      -0.633   9.657  17.626  0.00  0.00    +0.000 A 
ATOM     27  C   UNL     1      -1.952  10.083  17.444  0.00  0.00    +0.000 A 
ATOM     28  C   UNL     1      -2.514  11.015  18.319  0.00  0.00    +0.000 A 
ATOM     29  C   UNL     1      -1.754  11.526  19.375  0.00  0.00    +0.000 A 
ATOM     30  C   UNL     1      -0.431  11.101  19.562  0.00  0.00    +0.000 A 
ENDBRANCH  24  25
ENDBRANCH  14  24
TORSDOF 3
ENDMDL
MODEL 4
REMARK VINA RESULT:      -7.9      2.640      4.209
REMARK  Name = 
REMARK  3 active torsions:
REMARK  status: ('A' for Active; 'I' for Inactive)
REMARK    1  A    between atoms: N_11  and  C_12
REMARK    2  A    between atoms: N_21  and  C_22
REMARK    3  A    between atoms: C_22  and  C_23
REMARK                            x       y       z     vdW  Elec       q    Type
REMARK                         _______ _______ _______ _____ _____    ______ ____
ROOT
ATOM      1  O   UNL     1       1.792   8.468  17.547  0.00  0.00    +0.000 OA
ATOM      2  C   UNL     1       1.950   8.106  18.700  0.00  0.00    +0.000 A 
ATOM      3  C   UNL     1       1.426   8.719  19.823  0.00  0.00    +0.000 A 
ATOM      4  C   UNL     1       0.588   9.824  20.037  0.00  0.00    +0.000 A 
ATOM      5  N   UNL     1       0.273  10.158  21.341  0.00  0.00    +0.000 N 
ATOM      6  C   UNL     1       0.738   9.384  22.409  0.00  0.00    +0.000 A 
ATOM      7  O   UNL     1       0.440   9.667  23.558  0.00  0.00    +0.000 OA
ATOM      8  C   UNL     1       1.543   8.257  22.179  0.00  0.00    +0.000 A 
ATOM      9  C   UNL     1       1.862   7.957  20.867  0.00  0.00    +0.000 A 
ATOM     10  N   UNL     1       2.576   6.911  20.415  0.00  0.00    +0.000 N 
ATOM     11  N   UNL     1       2.622   6.972  19.087  0.00  0.00    +0.000 N 
ATOM     12  C   UNL     1      -0.577  11.325  21.636  0.00  0.00    +0.000 C 
ATOM     13  C   UNL     1      -0.738  12.253  20.427  0.00  0.00    +0.000 C 
ATOM     14  N   UNL     1      -1.136  11.457  19.263  0.00  0.00    +0.000 NA
ATOM     15  C   UNL     1      -0.014  10.573  18.861  0.00  0.00    +0.000 C 
ATOM     16  H   UNL     1       3.014   6.179  21.015  0.00  0.00    +0.000 HD
ENDROOT
BRANCH  11  17
ATOM     17  C   UNL     1       3.229   5.970  18.230  0.00  0.00    +0.000 A 
ATOM     18  C   UNL     1       4.324   6.307  17.408  0.00  0.00    +0.000 A 
ATOM     19  C   UNL     1       4.897   5.359  16.552  0.00  0.00    +0.000 A 
ATOM     20  C   UNL     1       4.375   4.068  16.486  0.00  0.00    +0.000 A 
ATOM     21  C   UNL     1       3.284   3.717  17.276  0.00  0.00    +0.000 A 
ATOM     22  C   UNL     1       2.708   4.647  18.149  0.00  0.00    +0.000 A 
ATOM     23 CL   UNL     1       1.278   4.106  19.023  0.00  0.00    +0.000 Cl
ENDBRANCH  11  17
BRANCH  14  24
ATOM     24  C   UNL     1      -1.536  12.295  18.110  0.00  0.00    +0.000 C 
BRANCH  24  25
ATOM     25  C   UNL     1      -2.552  11.629  17.204  0.00  0.00    +0.000 A 
ATOM     26  C   UNL     1      -3.921  11.685  17.525  0.00  0.00    +0.000 A 
ATOM     27  C   UNL     1      -4.873  11.105  16.681  0.00  0.00    +0.000 A 
ATOM     28  C   UNL     1      -4.471  10.464  15.507  0.00  0.00    +0.000 A 
ATOM     29  C   UNL     1      -3.114  10.397  15.179  0.00  0.00    +0.000 A 
ATOM     30  C   UNL     1      -2.155  10.977  16.022  0.00  0.00    +0.000 A 
ENDBRANCH  24  25
ENDBRANCH  14  24
TORSDOF 3
ENDMDL
MODEL 5
REMARK VINA RESULT:      -7.6      3.082      4.711
REMARK  Name = 
REMARK  3 active torsions:
REMARK  status: ('A' for Active; 'I' for Inactive)
REMARK    1  A    between atoms: N_11  and  C_12
REMARK    2  A    between atoms: N_21  and  C_22
REMARK    3  A    between atoms: C_22  and  C_23
REMARK                            x       y       z     vdW  Elec       q    Type
REMARK                         _______ _______ _______ _____ _____    ______ ____
ROOT
ATOM      1  O   UNL     1       2.370   9.016  17.557  0.00  0.00    +0.000 OA
ATOM      2  C   UNL     1       2.196   8.438  18.616  0.00  0.00    +0.000 A 
ATOM      3  C   UNL     1       1.467   8.914  19.690  0.00  0.00    +0.000 A 
ATOM      4  C   UNL     1       0.711  10.073  19.928  0.00  0.00    +0.000 A 
ATOM      5  N   UNL     1       0.111  10.215  21.164  0.00  0.00    +0.000 N 
ATOM      6  C   UNL     1       0.215   9.207  22.130  0.00  0.00    +0.000 A 
ATOM      7  O   UNL     1      -0.335   9.325  23.212  0.00  0.00    +0.000 OA
ATOM      8  C   UNL     1       0.940   8.035  21.865  0.00  0.00    +0.000 A 
ATOM      9  C   UNL     1       1.550   7.926  20.627  0.00  0.00    +0.000 A 
ATOM     10  N   UNL     1       2.251   6.885  20.147  0.00  0.00    +0.000 N 
ATOM     11  N   UNL     1       2.637   7.170  18.906  0.00  0.00    +0.000 N 
ATOM     12  C   UNL     1      -0.670  11.422  21.489  0.00  0.00    +0.000 C 
ATOM     13  C   UNL     1      -0.432  12.560  20.492  0.00  0.00    +0.000 C 
ATOM     14  N   UNL     1      -0.597  12.045  19.130  0.00  0.00    +0.000 NA
ATOM     15  C   UNL     1       0.500  11.094  18.824  0.00  0.00    +0.000 C 
ATOM     16  H   UNL     1       2.452   6.005  20.669  0.00  0.00    +0.000 HD
ENDROOT
BRANCH  11  17
ATOM     17  C   UNL     1       3.341   6.257  18.025  0.00  0.00    +0.000 A 
ATOM     18  C   UNL     1       4.457   6.702  17.286  0.00  0.00    +0.000 A 
ATOM     19  C   UNL     1       5.124   5.841  16.407  0.00  0.00    +0.000 A 
ATOM     20  C   UNL     1       4.679   4.532  16.234  0.00  0.00    +0.000 A 
ATOM     21  C   UNL     1       3.570   4.076  16.941  0.00  0.00    +0.000 A 
ATOM     22  C   UNL     1       2.900   4.917  17.836  0.00  0.00    +0.000 A 
ATOM     23 CL   UNL     1       1.459   4.247  18.596  0.00  0.00    +0.000 Cl
ENDBRANCH  11  17
BRANCH  14  24
ATOM     24  C   UNL     1      -0.611  13.120  18.112  0.00  0.00    +0.000 C 
BRANCH  24  25
ATOM     25  C   UNL     1       0.205  14.335  18.506  0.00  0.00    +0.000 A 
ATOM     26  C   UNL     1       1.611  14.278  18.466  0.00  0.00    +0.000 A 
ATOM     27  C   UNL     1       2.376  15.401  18.793  0.00  0.00    +0.000 A 
ATOM     28  C   UNL     1       1.749  16.593  19.163  0.00  0.00    +0.000 A 
ATOM     29  C   UNL     1       0.354  16.661  19.213  0.00  0.00    +0.000 A 
ATOM     30  C   UNL     1      -0.418  15.537  18.886  0.00  0.00    +0.000 A 
ENDBRANCH  24  25
ENDBRANCH  14  24
TORSDOF 3
ENDMDL
MODEL 6
REMARK VINA RESULT:      -7.5      3.080      4.837
REMARK  Name = 
REMARK  3 active torsions:
REMARK  status: ('A' for Active; 'I' for Inactive)
REMARK    1  A    between atoms: N_11  and  C_12
REMARK    2  A    between atoms: N_21  and  C_22
REMARK    3  A    between atoms: C_22  and  C_23
REMARK                            x       y       z     vdW  Elec       q    Type
REMARK                         _______ _______ _______ _____ _____    ______ ____
ROOT
ATOM      1  O   UNL     1       2.009   8.757  17.697  0.00  0.00    +0.000 OA
ATOM      2  C   UNL     1       1.910   8.305  18.825  0.00  0.00    +0.000 A 
ATOM      3  C   UNL     1       1.391   8.967  19.922  0.00  0.00    +0.000 A 
ATOM      4  C   UNL     1       0.814  10.231  20.124  0.00  0.00    +0.000 A 
ATOM      5  N   UNL     1       0.404  10.561  21.402  0.00  0.00    +0.000 N 
ATOM      6  C   UNL     1       0.516   9.640  22.449  0.00  0.00    +0.000 A 
ATOM      7  O   UNL     1       0.132   9.926  23.572  0.00  0.00    +0.000 OA
ATOM      8  C   UNL     1       1.057   8.364  22.225  0.00  0.00    +0.000 A 
ATOM      9  C   UNL     1       1.480   8.066  20.942  0.00  0.00    +0.000 A 
ATOM     10  N   UNL     1       1.985   6.903  20.495  0.00  0.00    +0.000 N 
ATOM     11  N   UNL     1       2.233   7.022  19.194  0.00  0.00    +0.000 N 
ATOM     12  C   UNL     1      -0.180  11.884  21.689  0.00  0.00    +0.000 C 
ATOM     13  C   UNL     1       0.057  12.887  20.555  0.00  0.00    +0.000 C 
ATOM     14  N   UNL     1      -0.347  12.276  19.285  0.00  0.00    +0.000 NA
ATOM     15  C   UNL     1       0.581  11.167  18.952  0.00  0.00    +0.000 C 
ATOM     16  H   UNL     1       2.148   6.055  21.080  0.00  0.00    +0.000 HD
ENDROOT
BRANCH  11  17
ATOM     17  C   UNL     1       2.703   5.949  18.336  0.00  0.00    +0.000 A 
ATOM     18  C   UNL     1       1.938   4.774  18.185  0.00  0.00    +0.000 A 
ATOM     19  C   UNL     1       2.396   3.718  17.387  0.00  0.00    +0.000 A 
ATOM     20  C   UNL     1       3.630   3.809  16.745  0.00  0.00    +0.000 A 
ATOM     21  C   UNL     1       4.409   4.953  16.892  0.00  0.00    +0.000 A 
ATOM     22  C   UNL     1       3.961   6.024  17.673  0.00  0.00    +0.000 A 
ATOM     23 CL   UNL     1       5.080   7.372  17.852  0.00  0.00    +0.000 Cl
ENDBRANCH  11  17
BRANCH  14  24
ATOM     24  C   UNL     1      -0.369  13.247  18.167  0.00  0.00    +0.000 C 
BRANCH  24  25
ATOM     25  C   UNL     1       0.389  14.526  18.464  0.00  0.00    +0.000 A 
ATOM     26  C   UNL     1       1.795  14.530  18.435  0.00  0.00    +0.000 A 
ATOM     27  C   UNL     1       2.508  15.710  18.672  0.00  0.00    +0.000 A 
ATOM     28  C   UNL     1       1.825  16.898  18.941  0.00  0.00    +0.000 A 
ATOM     29  C   UNL     1       0.428  16.906  18.978  0.00  0.00    +0.000 A 
ATOM     30  C   UNL     1      -0.291  15.726  18.741  0.00  0.00    +0.000 A 
ENDBRANCH  24  25
ENDBRANCH  14  24
TORSDOF 3
ENDMDL
MODEL 7
REMARK VINA RESULT:      -7.5      4.947      8.292
REMARK  Name = 
REMARK  3 active torsions:
REMARK  status: ('A' for Active; 'I' for Inactive)
REMARK    1  A    between atoms: N_11  and  C_12
REMARK    2  A    between atoms: N_21  and  C_22
REMARK    3  A    between atoms: C_22  and  C_23
REMARK                            x       y       z     vdW  Elec       q    Type
REMARK                         _______ _______ _______ _____ _____    ______ ____
ROOT
ATOM      1  O   UNL     1      -1.741  10.723  19.001  0.00  0.00    +0.000 OA
ATOM      2  C   UNL     1      -1.018  11.336  19.768  0.00  0.00    +0.000 A 
ATOM      3  C   UNL     1      -1.385  12.431  20.529  0.00  0.00    +0.000 A 
ATOM      4  C   UNL     1      -2.583  13.138  20.718  0.00  0.00    +0.000 A 
ATOM      5  N   UNL     1      -2.569  14.220  21.578  0.00  0.00    +0.000 N 
ATOM      6  C   UNL     1      -1.406  14.565  22.274  0.00  0.00    +0.000 A 
ATOM      7  O   UNL     1      -1.402  15.507  23.050  0.00  0.00    +0.000 OA
ATOM      8  C   UNL     1      -0.225  13.825  22.106  0.00  0.00    +0.000 A 
ATOM      9  C   UNL     1      -0.259  12.760  21.224  0.00  0.00    +0.000 A 
ATOM     10  N   UNL     1       0.733  11.896  20.943  0.00  0.00    +0.000 N 
ATOM     11  N   UNL     1       0.279  11.001  20.069  0.00  0.00    +0.000 N 
ATOM     12  C   UNL     1      -3.785  15.024  21.797  0.00  0.00    +0.000 C 
ATOM     13  C   UNL     1      -4.867  14.748  20.748  0.00  0.00    +0.000 C 
ATOM     14  N   UNL     1      -5.074  13.301  20.644  0.00  0.00    +0.000 NA
ATOM     15  C   UNL     1      -3.866  12.669  20.056  0.00  0.00    +0.000 C 
ATOM     16  H   UNL     1       1.692  11.931  21.350  0.00  0.00    +0.000 HD
ENDROOT
BRANCH  11  17
ATOM     17  C   UNL     1       1.029   9.854  19.590  0.00  0.00    +0.000 A 
ATOM     18  C   UNL     1       1.497   9.817  18.261  0.00  0.00    +0.000 A 
ATOM     19  C   UNL     1       2.192   8.702  17.776  0.00  0.00    +0.000 A 
ATOM     20  C   UNL     1       2.413   7.601  18.601  0.00  0.00    +0.000 A 
ATOM     21  C   UNL     1       1.946   7.609  19.912  0.00  0.00    +0.000 A 
ATOM     22  C   UNL     1       1.264   8.721  20.419  0.00  0.00    +0.000 A 
ATOM     23 CL   UNL     1       0.646   8.567  22.061  0.00  0.00    +0.000 Cl
ENDBRANCH  11  17
BRANCH  14  24
ATOM     24  C   UNL     1      -6.256  12.951  19.825  0.00  0.00    +0.000 C 
BRANCH  24  25
ATOM     25  C   UNL     1      -6.739  11.530  20.037  0.00  0.00    +0.000 A 
ATOM     26  C   UNL     1      -7.430  11.193  21.216  0.00  0.00    +0.000 A 
ATOM     27  C   UNL     1      -7.912   9.895  21.410  0.00  0.00    +0.000 A 
ATOM     28  C   UNL     1      -7.710   8.920  20.432  0.00  0.00    +0.000 A 
ATOM     29  C   UNL     1      -7.021   9.240  19.259  0.00  0.00    +0.000 A 
ATOM     30  C   UNL     1      -6.536  10.540  19.059  0.00  0.00    +0.000 A 
ENDBRANCH  24  25
ENDBRANCH  14  24
TORSDOF 3
ENDMDL
MODEL 8
REMARK VINA RESULT:      -7.5      2.402      3.953
REMARK  Name = 
REMARK  3 active torsions:
REMARK  status: ('A' for Active; 'I' for Inactive)
REMARK    1  A    between atoms: N_11  and  C_12
REMARK    2  A    between atoms: N_21  and  C_22
REMARK    3  A    between atoms: C_22  and  C_23
REMARK                            x       y       z     vdW  Elec       q    Type
REMARK                         _______ _______ _______ _____ _____    ______ ____
ROOT
ATOM      1  O   UNL     1       1.671   8.271  17.522  0.00  0.00    +0.000 OA
ATOM      2  C   UNL     1       1.863   7.934  18.678  0.00  0.00    +0.000 A 
ATOM      3  C   UNL     1       1.434   8.613  19.803  0.00  0.00    +0.000 A 
ATOM      4  C   UNL     1       0.677   9.775  20.020  0.00  0.00    +0.000 A 
ATOM      5  N   UNL     1       0.448  10.168  21.325  0.00  0.00    +0.000 N 
ATOM      6  C   UNL     1       0.916   9.398  22.396  0.00  0.00    +0.000 A 
ATOM      7  O   UNL     1       0.693   9.734  23.547  0.00  0.00    +0.000 OA
ATOM      8  C   UNL     1       1.637   8.215  22.165  0.00  0.00    +0.000 A 
ATOM      9  C   UNL     1       1.872   7.856  20.850  0.00  0.00    +0.000 A 
ATOM     10  N   UNL     1       2.497   6.754  20.401  0.00  0.00    +0.000 N 
ATOM     11  N   UNL     1       2.481   6.772  19.070  0.00  0.00    +0.000 N 
ATOM     12  C   UNL     1      -0.312  11.395  21.622  0.00  0.00    +0.000 C 
ATOM     13  C   UNL     1      -0.474  12.295  20.392  0.00  0.00    +0.000 C 
ATOM     14  N   UNL     1      -0.978  11.491  19.275  0.00  0.00    +0.000 NA
ATOM     15  C   UNL     1       0.067  10.525  18.850  0.00  0.00    +0.000 C 
ATOM     16  H   UNL     1       2.917   6.015  21.003  0.00  0.00    +0.000 HD
ENDROOT
BRANCH  11  17
ATOM     17  C   UNL     1       2.981   5.708  18.219  0.00  0.00    +0.000 A 
ATOM     18  C   UNL     1       2.283   4.487  18.124  0.00  0.00    +0.000 A 
ATOM     19  C   UNL     1       2.773   3.440  17.333  0.00  0.00    +0.000 A 
ATOM     20  C   UNL     1       3.974   3.587  16.642  0.00  0.00    +0.000 A 
ATOM     21  C   UNL     1       4.689   4.778  16.734  0.00  0.00    +0.000 A 
ATOM     22  C   UNL     1       4.207   5.840  17.507  0.00  0.00    +0.000 A 
ATOM     23 CL   UNL     1       5.250   7.255  17.612  0.00  0.00    +0.000 Cl
ENDBRANCH  11  17
BRANCH  14  24
ATOM     24  C   UNL     1      -1.381  12.317  18.114  0.00  0.00    +0.000 C 
BRANCH  24  25
ATOM     25  C   UNL     1      -2.497  11.701  17.294  0.00  0.00    +0.000 A 
ATOM     26  C   UNL     1      -3.819  11.735  17.771  0.00  0.00    +0.000 A 
ATOM     27  C   UNL     1      -4.864  11.203  17.010  0.00  0.00    +0.000 A 
ATOM     28  C   UNL     1      -4.601  10.631  15.763  0.00  0.00    +0.000 A 
ATOM     29  C   UNL     1      -3.290  10.586  15.279  0.00  0.00    +0.000 A 
ATOM     30  C   UNL     1      -2.240  11.119  16.040  0.00  0.00    +0.000 A 
ENDBRANCH  24  25
ENDBRANCH  14  24
TORSDOF 3
ENDMDL
MODEL 9
REMARK VINA RESULT:      -7.5      1.600      2.022
REMARK  Name = 
REMARK  3 active torsions:
REMARK  status: ('A' for Active; 'I' for Inactive)
REMARK    1  A    between atoms: N_11  and  C_12
REMARK    2  A    between atoms: N_21  and  C_22
REMARK    3  A    between atoms: C_22  and  C_23
REMARK                            x       y       z     vdW  Elec       q    Type
REMARK                         _______ _______ _______ _____ _____    ______ ____
ROOT
ATOM      1  O   UNL     1       5.122   7.010  15.566  0.00  0.00    +0.000 OA
ATOM      2  C   UNL     1       5.047   5.885  16.027  0.00  0.00    +0.000 A 
ATOM      3  C   UNL     1       4.314   5.511  17.138  0.00  0.00    +0.000 A 
ATOM      4  C   UNL     1       3.456   6.185  18.022  0.00  0.00    +0.000 A 
ATOM      5  N   UNL     1       2.891   5.463  19.057  0.00  0.00    +0.000 N 
ATOM      6  C   UNL     1       3.131   4.091  19.185  0.00  0.00    +0.000 A 
ATOM      7  O   UNL     1       2.612   3.451  20.086  0.00  0.00    +0.000 OA
ATOM      8  C   UNL     1       3.959   3.420  18.270  0.00  0.00    +0.000 A 
ATOM      9  C   UNL     1       4.529   4.169  17.257  0.00  0.00    +0.000 A 
ATOM     10  N   UNL     1       5.312   3.731  16.256  0.00  0.00    +0.000 N 
ATOM     11  N   UNL     1       5.621   4.765  15.477  0.00  0.00    +0.000 N 
ATOM     12  C   UNL     1       2.007   6.118  20.037  0.00  0.00    +0.000 C 
ATOM     13  C   UNL     1       2.094   7.646  19.977  0.00  0.00    +0.000 C 
ATOM     14  N   UNL     1       1.930   8.079  18.586  0.00  0.00    +0.000 NA
ATOM     15  C   UNL     1       3.105   7.643  17.790  0.00  0.00    +0.000 C 
ATOM     16  H   UNL     1       5.618   2.744  16.121  0.00  0.00    +0.000 HD
ENDROOT
BRANCH  11  17
ATOM     17  C   UNL     1       6.379   4.678  14.243  0.00  0.00    +0.000 A 
ATOM     18  C   UNL     1       7.601   5.370  14.109  0.00  0.00    +0.000 A 
ATOM     19  C   UNL     1       8.325   5.322  12.912  0.00  0.00    +0.000 A 
ATOM     20  C   UNL     1       7.834   4.601  11.824  0.00  0.00    +0.000 A 
ATOM     21  C   UNL     1       6.623   3.923  11.928  0.00  0.00    +0.000 A 
ATOM     22  C   UNL     1       5.894   3.947  13.122  0.00  0.00    +0.000 A 
ATOM     23 CL   UNL     1       4.336   3.125  13.093  0.00  0.00    +0.000 Cl
ENDBRANCH  11  17
BRANCH  14  24
ATOM     24  C   UNL     1       1.772   9.546  18.461  0.00  0.00    +0.000 C 
BRANCH  24  25
ATOM     25  C   UNL     1       0.327  10.002  18.486  0.00  0.00    +0.000 A 
ATOM     26  C   UNL     1      -0.119  10.866  19.503  0.00  0.00    +0.000 A 
ATOM     27  C   UNL     1      -1.440  11.322  19.520  0.00  0.00    +0.000 A 
ATOM     28  C   UNL     1      -2.331  10.922  18.522  0.00  0.00    +0.000 A 
ATOM     29  C   UNL     1      -1.903  10.060  17.509  0.00  0.00    +0.000 A 
ATOM     30  C   UNL     1      -0.579   9.599  17.488  0.00  0.00    +0.000 A 
ENDBRANCH  24  25
ENDBRANCH  14  24
TORSDOF 3
ENDMDL
