MODEL 1
REMARK VINA RESULT:      -8.3      0.000      0.000
REMARK  Name = 
REMARK  7 active torsions:
REMARK  status: ('A' for Active; 'I' for Inactive)
REMARK    1  A    between atoms: C_1  and  C_2
REMARK    2  A    between atoms: C_3  and  N_4
REMARK    3  A    between atoms: N_4  and  C_5
REMARK    4  A    between atoms: C_8  and  S_9
REMARK    5  A    between atoms: S_9  and  N_12
REMARK    6  A    between atoms: N_23  and  C_24
REMARK    7  A    between atoms: N_30  and  C_31
REMARK                            x       y       z     vdW  Elec       q    Type
REMARK                         _______ _______ _______ _____ _____    ______ ____
ROOT
ATOM      1  N   UNL     1       0.914  11.183  19.508  0.00  0.00    +0.000 N 
ATOM      2  H   UNL     1       1.290  11.745  18.736  0.00  0.00    +0.000 HD
ENDROOT
BRANCH   1   5
ATOM      3  C   UNL     1      -1.806  10.794  17.871  0.00  0.00    +0.000 C 
ATOM      4  C   UNL     1      -1.561  11.445  19.191  0.00  0.00    +0.000 A 
ATOM      5  C   UNL     1      -0.365  11.621  19.777  0.00  0.00    +0.000 A 
ATOM      6  C   UNL     1      -0.656  12.448  21.006  0.00  0.00    +0.000 A 
ATOM      7  O   UNL     1       0.212  12.786  21.799  0.00  0.00    +0.000 OA
ATOM      8  N   UNL     1      -2.042  12.685  21.009  0.00  0.00    +0.000 N 
ATOM      9  N   UNL     1      -2.618  11.929  19.967  0.00  0.00    +0.000 N 
ATOM     10  C   UNL     1      -3.901  12.331  19.400  0.00  0.00    +0.000 C 
BRANCH   8  11
ATOM     11  C   UNL     1      -2.753  13.108  22.152  0.00  0.00    +0.000 A 
ATOM     12  C   UNL     1      -3.167  14.443  22.255  0.00  0.00    +0.000 A 
ATOM     13  C   UNL     1      -3.949  14.862  23.336  0.00  0.00    +0.000 A 
ATOM     14  C   UNL     1      -4.297  13.957  24.338  0.00  0.00    +0.000 A 
ATOM     15  C   UNL     1      -3.855  12.638  24.266  0.00  0.00    +0.000 A 
ATOM     16  C   UNL     1      -3.090  12.216  23.179  0.00  0.00    +0.000 A 
ENDBRANCH   8  11
ENDBRANCH   1   5
BRANCH   1  17
ATOM     17  C   UNL     1       1.285   9.833  19.265  0.00  0.00    +0.000 A 
ATOM     18  C   UNL     1       1.746   9.415  18.007  0.00  0.00    +0.000 A 
ATOM     19  C   UNL     1       2.296   8.138  17.831  0.00  0.00    +0.000 A 
ATOM     20  C   UNL     1       2.425   7.271  18.920  0.00  0.00    +0.000 A 
ATOM     21  C   UNL     1       1.905   7.636  20.165  0.00  0.00    +0.000 A 
ATOM     22  C   UNL     1       1.356   8.913  20.335  0.00  0.00    +0.000 A 
ATOM     23 CL   UNL     1       0.763   9.330  21.907  0.00  0.00    +0.000 Cl
BRANCH  20  24
ATOM     24  S   UNL     1       3.131   5.651  18.697  0.00  0.00    +0.000 S 
ATOM     25  O   UNL     1       3.714   5.637  17.373  0.00  0.00    +0.000 OA
ATOM     26  O   UNL     1       3.942   5.384  19.866  0.00  0.00    +0.000 OA
BRANCH  24  27
ATOM     27  N   UNL     1       1.840   4.570  18.698  0.00  0.00    +0.000 NA
ATOM     28  C   UNL     1       1.245   4.094  19.971  0.00  0.00    +0.000 C 
ATOM     29  C   UNL     1       1.816   2.727  20.363  0.00  0.00    +0.000 C 
ATOM     30  O   UNL     1       1.702   1.764  19.304  0.00  0.00    +0.000 OA
ATOM     31  C   UNL     1       2.302   2.220  18.082  0.00  0.00    +0.000 C 
ATOM     32  C   UNL     1       1.703   3.552  17.630  0.00  0.00    +0.000 C 
ENDBRANCH  24  27
ENDBRANCH  20  24
ENDBRANCH   1  17
TORSDOF 5
ENDMDL
MODEL 2
REMARK VINA RESULT:      -8.3      1.069      1.482
REMARK  Name = 
REMARK  7 active torsions:
REMARK  status: ('A' for Active; 'I' for Inactive)
REMARK    1  A    between atoms: C_1  and  C_2
REMARK    2  A    between atoms: C_3  and  N_4
REMARK    3  A    between atoms: N_4  and  C_5
REMARK    4  A    between atoms: C_8  and  S_9
REMARK    5  A    between atoms: S_9  and  N_12
REMARK    6  A    between atoms: N_23  and  C_24
REMARK    7  A    between atoms: N_30  and  C_31
REMARK                            x       y       z     vdW  Elec       q    Type
REMARK                         _______ _______ _______ _____ _____    ______ ____
ROOT
ATOM      1  N   UNL     1       0.778  10.958  18.881  0.00  0.00    +0.000 N 
ATOM      2  H   UNL     1       1.135  11.336  17.995  0.00  0.00    +0.000 HD
ENDROOT
BRANCH   1   5
ATOM      3  C   UNL     1      -1.896  10.087  17.356  0.00  0.00    +0.000 C 
ATOM      4  C   UNL     1      -1.701  11.026  18.499  0.00  0.00    +0.000 A 
ATOM      5  C   UNL     1      -0.523  11.384  19.038  0.00  0.00    +0.000 A 
ATOM      6  C   UNL     1      -0.870  12.449  20.050  0.00  0.00    +0.000 A 
ATOM      7  O   UNL     1      -0.030  12.996  20.752  0.00  0.00    +0.000 OA
ATOM      8  N   UNL     1      -2.265  12.616  19.992  0.00  0.00    +0.000 N 
ATOM      9  N   UNL     1      -2.791  11.621  19.142  0.00  0.00    +0.000 N 
ATOM     10  C   UNL     1      -4.081  11.826  18.492  0.00  0.00    +0.000 C 
BRANCH   8  11
ATOM     11  C   UNL     1      -3.013  13.249  21.008  0.00  0.00    +0.000 A 
ATOM     12  C   UNL     1      -3.395  12.520  22.142  0.00  0.00    +0.000 A 
ATOM     13  C   UNL     1      -4.059  13.150  23.199  0.00  0.00    +0.000 A 
ATOM     14  C   UNL     1      -4.373  14.505  23.118  0.00  0.00    +0.000 A 
ATOM     15  C   UNL     1      -4.034  15.230  21.977  0.00  0.00    +0.000 A 
ATOM     16  C   UNL     1      -3.357  14.606  20.929  0.00  0.00    +0.000 A 
ENDBRANCH   8  11
ENDBRANCH   1   5
BRANCH   1  17
ATOM     17  C   UNL     1       1.216   9.609  18.968  0.00  0.00    +0.000 A 
ATOM     18  C   UNL     1       1.823   8.963  17.880  0.00  0.00    +0.000 A 
ATOM     19  C   UNL     1       2.429   7.709  18.035  0.00  0.00    +0.000 A 
ATOM     20  C   UNL     1       2.467   7.097  19.291  0.00  0.00    +0.000 A 
ATOM     21  C   UNL     1       1.805   7.685  20.372  0.00  0.00    +0.000 A 
ATOM     22  C   UNL     1       1.201   8.938  20.211  0.00  0.00    +0.000 A 
ATOM     23 CL   UNL     1       0.429   9.641  21.592  0.00  0.00    +0.000 Cl
BRANCH  20  24
ATOM     24  S   UNL     1       3.245   5.506  19.489  0.00  0.00    +0.000 S 
ATOM     25  O   UNL     1       4.672   5.737  19.420  0.00  0.00    +0.000 OA
ATOM     26  O   UNL     1       2.649   4.892  20.655  0.00  0.00    +0.000 OA
BRANCH  24  27
ATOM     27  N   UNL     1       2.809   4.598  18.139  0.00  0.00    +0.000 NA
ATOM     28  C   UNL     1       1.435   4.058  17.995  0.00  0.00    +0.000 C 
ATOM     29  C   UNL     1       1.374   2.595  18.449  0.00  0.00    +0.000 C 
ATOM     30  O   UNL     1       2.361   1.780  17.800  0.00  0.00    +0.000 OA
ATOM     31  C   UNL     1       3.691   2.295  17.965  0.00  0.00    +0.000 C 
ATOM     32  C   UNL     1       3.799   3.732  17.457  0.00  0.00    +0.000 C 
ENDBRANCH  24  27
ENDBRANCH  20  24
ENDBRANCH   1  17
TORSDOF 5
ENDMDL
MODEL 3
REMARK VINA RESULT:      -8.0      1.832      2.465
REMARK  Name = 
REMARK  7 active torsions:
REMARK  status: ('A' for Active; 'I' for Inactive)
REMARK    1  A    between atoms: C_1  and  C_2
REMARK    2  A    between atoms: C_3  and  N_4
REMARK    3  A    between atoms: N_4  and  C_5
REMARK    4  A    between atoms: C_8  and  S_9
REMARK    5  A    between atoms: S_9  and  N_12
REMARK    6  A    between atoms: N_23  and  C_24
REMARK    7  A    between atoms: N_30  and  C_31
REMARK                            x       y       z     vdW  Elec       q    Type
REMARK                         _______ _______ _______ _____ _____    ______ ____
ROOT
ATOM      1  N   UNL     1       1.132  10.972  19.544  0.00  0.00    +0.000 N 
ATOM      2  H   UNL     1       1.582  11.606  18.873  0.00  0.00    +0.000 HD
ENDROOT
BRANCH   1   5
ATOM      3  C   UNL     1      -1.506  10.504  17.796  0.00  0.00    +0.000 C 
ATOM      4  C   UNL     1      -1.328  11.195  19.106  0.00  0.00    +0.000 A 
ATOM      5  C   UNL     1      -0.162  11.402  19.741  0.00  0.00    +0.000 A 
ATOM      6  C   UNL     1      -0.518  12.260  20.931  0.00  0.00    +0.000 A 
ATOM      7  O   UNL     1       0.309  12.631  21.752  0.00  0.00    +0.000 OA
ATOM      8  N   UNL     1      -1.905  12.481  20.864  0.00  0.00    +0.000 N 
ATOM      9  N   UNL     1      -2.425  11.688  19.819  0.00  0.00    +0.000 N 
ATOM     10  C   UNL     1      -3.684  12.059  19.182  0.00  0.00    +0.000 C 
BRANCH   8  11
ATOM     11  C   UNL     1      -2.673  12.928  21.960  0.00  0.00    +0.000 A 
ATOM     12  C   UNL     1      -3.244  14.208  21.929  0.00  0.00    +0.000 A 
ATOM     13  C   UNL     1      -4.080  14.636  22.965  0.00  0.00    +0.000 A 
ATOM     14  C   UNL     1      -4.327  13.801  24.054  0.00  0.00    +0.000 A 
ATOM     15  C   UNL     1      -3.731  12.544  24.114  0.00  0.00    +0.000 A 
ATOM     16  C   UNL     1      -2.910  12.109  23.072  0.00  0.00    +0.000 A 
ENDBRANCH   8  11
ENDBRANCH   1   5
BRANCH   1  17
ATOM     17  C   UNL     1       1.513   9.649  19.192  0.00  0.00    +0.000 A 
ATOM     18  C   UNL     1       2.030   9.348  17.923  0.00  0.00    +0.000 A 
ATOM     19  C   UNL     1       2.587   8.090  17.653  0.00  0.00    +0.000 A 
ATOM     20  C   UNL     1       2.664   7.124  18.661  0.00  0.00    +0.000 A 
ATOM     21  C   UNL     1       2.088   7.374  19.909  0.00  0.00    +0.000 A 
ATOM     22  C   UNL     1       1.533   8.632  20.173  0.00  0.00    +0.000 A 
ATOM     23 CL   UNL     1       0.868   8.904  21.748  0.00  0.00    +0.000 Cl
BRANCH  20  24
ATOM     24  S   UNL     1       3.379   5.528  18.320  0.00  0.00    +0.000 S 
ATOM     25  O   UNL     1       3.926   5.048  19.570  0.00  0.00    +0.000 OA
ATOM     26  O   UNL     1       2.376   4.765  17.608  0.00  0.00    +0.000 OA
BRANCH  24  27
ATOM     27  N   UNL     1       4.667   5.804  17.271  0.00  0.00    +0.000 NA
ATOM     28  C   UNL     1       4.845   4.982  16.049  0.00  0.00    +0.000 C 
ATOM     29  C   UNL     1       5.859   3.858  16.291  0.00  0.00    +0.000 C 
ATOM     30  O   UNL     1       7.102   4.347  16.815  0.00  0.00    +0.000 OA
ATOM     31  C   UNL     1       6.925   5.121  18.012  0.00  0.00    +0.000 C 
ATOM     32  C   UNL     1       5.969   6.291  17.783  0.00  0.00    +0.000 C 
ENDBRANCH  24  27
ENDBRANCH  20  24
ENDBRANCH   1  17
TORSDOF 5
ENDMDL
MODEL 4
REMARK VINA RESULT:      -7.8      1.673      2.514
REMARK  Name = 
REMARK  7 active torsions:
REMARK  status: ('A' for Active; 'I' for Inactive)
REMARK    1  A    between atoms: C_1  and  C_2
REMARK    2  A    between atoms: C_3  and  N_4
REMARK    3  A    between atoms: N_4  and  C_5
REMARK    4  A    between atoms: C_8  and  S_9
REMARK    5  A    between atoms: S_9  and  N_12
REMARK    6  A    between atoms: N_23  and  C_24
REMARK    7  A    between atoms: N_30  and  C_31
REMARK                            x       y       z     vdW  Elec       q    Type
REMARK                         _______ _______ _______ _____ _____    ______ ____
ROOT
ATOM      1  N   UNL     1       1.025  10.982  19.532  0.00  0.00    +0.000 N 
ATOM      2  H   UNL     1       1.437  11.525  18.764  0.00  0.00    +0.000 HD
ENDROOT
BRANCH   1   5
ATOM      3  C   UNL     1      -1.698  10.629  17.890  0.00  0.00    +0.000 C 
ATOM      4  C   UNL     1      -1.437  11.318  19.188  0.00  0.00    +0.000 A 
ATOM      5  C   UNL     1      -0.239  11.473  19.777  0.00  0.00    +0.000 A 
ATOM      6  C   UNL     1      -0.508  12.353  20.973  0.00  0.00    +0.000 A 
ATOM      7  O   UNL     1       0.366  12.689  21.760  0.00  0.00    +0.000 OA
ATOM      8  N   UNL     1      -1.885  12.639  20.958  0.00  0.00    +0.000 N 
ATOM      9  N   UNL     1      -2.482  11.866  19.940  0.00  0.00    +0.000 N 
ATOM     10  C   UNL     1      -3.746  12.291  19.349  0.00  0.00    +0.000 C 
BRANCH   8  11
ATOM     11  C   UNL     1      -2.588  13.126  22.080  0.00  0.00    +0.000 A 
ATOM     12  C   UNL     1      -3.071  12.226  23.039  0.00  0.00    +0.000 A 
ATOM     13  C   UNL     1      -3.692  12.693  24.201  0.00  0.00    +0.000 A 
ATOM     14  C   UNL     1      -3.863  14.062  24.400  0.00  0.00    +0.000 A 
ATOM     15  C   UNL     1      -3.423  14.964  23.433  0.00  0.00    +0.000 A 
ATOM     16  C   UNL     1      -2.788  14.499  22.281  0.00  0.00    +0.000 A 
ENDBRANCH   8  11
ENDBRANCH   1   5
BRANCH   1  17
ATOM     17  C   UNL     1       1.345   9.617  19.301  0.00  0.00    +0.000 A 
ATOM     18  C   UNL     1       1.697   9.153  18.025  0.00  0.00    +0.000 A 
ATOM     19  C   UNL     1       2.202   7.857  17.845  0.00  0.00    +0.000 A 
ATOM     20  C   UNL     1       2.394   7.018  18.946  0.00  0.00    +0.000 A 
ATOM     21  C   UNL     1       1.980   7.431  20.216  0.00  0.00    +0.000 A 
ATOM     22  C   UNL     1       1.477   8.726  20.390  0.00  0.00    +0.000 A 
ATOM     23 CL   UNL     1       1.015   9.201  21.989  0.00  0.00    +0.000 Cl
BRANCH  20  24
ATOM     24  S   UNL     1       3.044   5.375  18.718  0.00  0.00    +0.000 S 
ATOM     25  O   UNL     1       3.036   4.747  20.021  0.00  0.00    +0.000 OA
ATOM     26  O   UNL     1       2.320   4.790  17.609  0.00  0.00    +0.000 OA
BRANCH  24  27
ATOM     27  N   UNL     1       4.651   5.565  18.252  0.00  0.00    +0.000 NA
ATOM     28  C   UNL     1       5.074   6.722  17.425  0.00  0.00    +0.000 C 
ATOM     29  C   UNL     1       5.152   6.333  15.944  0.00  0.00    +0.000 C 
ATOM     30  O   UNL     1       5.964   5.170  15.727  0.00  0.00    +0.000 OA
ATOM     31  C   UNL     1       5.534   4.047  16.511  0.00  0.00    +0.000 C 
ATOM     32  C   UNL     1       5.511   4.385  18.002  0.00  0.00    +0.000 C 
ENDBRANCH  24  27
ENDBRANCH  20  24
ENDBRANCH   1  17
TORSDOF 5
ENDMDL
MODEL 5
REMARK VINA RESULT:      -7.8      1.865      2.593
REMARK  Name = 
REMARK  7 active torsions:
REMARK  status: ('A' for Active; 'I' for Inactive)
REMARK    1  A    between atoms: C_1  and  C_2
REMARK    2  A    between atoms: C_3  and  N_4
REMARK    3  A    between atoms: N_4  and  C_5
REMARK    4  A    between atoms: C_8  and  S_9
REMARK    5  A    between atoms: S_9  and  N_12
REMARK    6  A    between atoms: N_23  and  C_24
REMARK    7  A    between atoms: N_30  and  C_31
REMARK                            x       y       z     vdW  Elec       q    Type
REMARK                         _______ _______ _______ _____ _____    ______ ____
ROOT
ATOM      1  N   UNL     1       1.546  10.251  19.172  0.00  0.00    +0.000 N 
ATOM      2  H   UNL     1       2.000  10.744  18.394  0.00  0.00    +0.000 HD
ENDROOT
BRANCH   1   5
ATOM      3  C   UNL     1      -1.205  10.016  17.556  0.00  0.00    +0.000 C 
ATOM      4  C   UNL     1      -0.889  10.743  18.821  0.00  0.00    +0.000 A 
ATOM      5  C   UNL     1       0.321  10.841  19.398  0.00  0.00    +0.000 A 
ATOM      6  C   UNL     1       0.122  11.790  20.554  0.00  0.00    +0.000 A 
ATOM      7  O   UNL     1       1.023  12.100  21.321  0.00  0.00    +0.000 OA
ATOM      8  N   UNL     1      -1.232  12.171  20.530  0.00  0.00    +0.000 N 
ATOM      9  N   UNL     1      -1.888  11.396  19.550  0.00  0.00    +0.000 N 
ATOM     10  C   UNL     1      -3.123  11.882  18.945  0.00  0.00    +0.000 C 
BRANCH   8  11
ATOM     11  C   UNL     1      -1.892  12.757  21.631  0.00  0.00    +0.000 A 
ATOM     12  C   UNL     1      -2.049  14.149  21.682  0.00  0.00    +0.000 A 
ATOM     13  C   UNL     1      -2.776  14.742  22.719  0.00  0.00    +0.000 A 
ATOM     14  C   UNL     1      -3.325  13.952  23.728  0.00  0.00    +0.000 A 
ATOM     15  C   UNL     1      -3.139  12.572  23.708  0.00  0.00    +0.000 A 
ATOM     16  C   UNL     1      -2.428  11.978  22.665  0.00  0.00    +0.000 A 
ENDBRANCH   8  11
ENDBRANCH   1   5
BRANCH   1  17
ATOM     17  C   UNL     1       1.764   8.861  18.974  0.00  0.00    +0.000 A 
ATOM     18  C   UNL     1       2.084   8.342  17.710  0.00  0.00    +0.000 A 
ATOM     19  C   UNL     1       2.492   7.009  17.562  0.00  0.00    +0.000 A 
ATOM     20  C   UNL     1       2.619   6.184  18.683  0.00  0.00    +0.000 A 
ATOM     21  C   UNL     1       2.235   6.656  19.941  0.00  0.00    +0.000 A 
ATOM     22  C   UNL     1       1.828   7.988  20.083  0.00  0.00    +0.000 A 
ATOM     23 CL   UNL     1       1.401   8.534  21.669  0.00  0.00    +0.000 Cl
BRANCH  20  24
ATOM     24  S   UNL     1       3.146   4.493  18.496  0.00  0.00    +0.000 S 
ATOM     25  O   UNL     1       3.110   3.903  19.816  0.00  0.00    +0.000 OA
ATOM     26  O   UNL     1       2.368   3.931  17.412  0.00  0.00    +0.000 OA
BRANCH  24  27
ATOM     27  N   UNL     1       4.756   4.553  18.007  0.00  0.00    +0.000 NA
ATOM     28  C   UNL     1       5.686   5.565  18.566  0.00  0.00    +0.000 C 
ATOM     29  C   UNL     1       5.816   6.766  17.622  0.00  0.00    +0.000 C 
ATOM     30  O   UNL     1       6.161   6.375  16.285  0.00  0.00    +0.000 OA
ATOM     31  C   UNL     1       5.243   5.415  15.741  0.00  0.00    +0.000 C 
ATOM     32  C   UNL     1       5.143   4.174  16.627  0.00  0.00    +0.000 C 
ENDBRANCH  24  27
ENDBRANCH  20  24
ENDBRANCH   1  17
TORSDOF 5
ENDMDL
MODEL 6
REMARK VINA RESULT:      -7.7      1.605      2.069
REMARK  Name = 
REMARK  7 active torsions:
REMARK  status: ('A' for Active; 'I' for Inactive)
REMARK    1  A    between atoms: C_1  and  C_2
REMARK    2  A    between atoms: C_3  and  N_4
REMARK    3  A    between atoms: N_4  and  C_5
REMARK    4  A    between atoms: C_8  and  S_9
REMARK    5  A    between atoms: S_9  and  N_12
REMARK    6  A    between atoms: N_23  and  C_24
REMARK    7  A    between atoms: N_30  and  C_31
REMARK                            x       y       z     vdW  Elec       q    Type
REMARK                         _______ _______ _______ _____ _____    ______ ____
ROOT
ATOM      1  N   UNL     1       1.064  10.585  19.694  0.00  0.00    +0.000 N 
ATOM      2  H   UNL     1       1.388  10.811  18.746  0.00  0.00    +0.000 HD
ENDROOT
BRANCH   1   5
ATOM      3  C   UNL     1      -1.594  10.331  17.933  0.00  0.00    +0.000 C 
ATOM      4  C   UNL     1      -1.359  11.036  19.226  0.00  0.00    +0.000 A 
ATOM      5  C   UNL     1      -0.183  11.145  19.867  0.00  0.00    +0.000 A 
ATOM      6  C   UNL     1      -0.462  12.066  21.031  0.00  0.00    +0.000 A 
ATOM      7  O   UNL     1       0.392  12.376  21.850  0.00  0.00    +0.000 OA
ATOM      8  N   UNL     1      -1.820  12.419  20.944  0.00  0.00    +0.000 N 
ATOM      9  N   UNL     1      -2.408  11.653  19.916  0.00  0.00    +0.000 N 
ATOM     10  C   UNL     1      -3.620  12.128  19.257  0.00  0.00    +0.000 C 
BRANCH   8  11
ATOM     11  C   UNL     1      -2.548  12.969  22.021  0.00  0.00    +0.000 A 
ATOM     12  C   UNL     1      -2.866  14.333  22.016  0.00  0.00    +0.000 A 
ATOM     13  C   UNL     1      -3.662  14.879  23.028  0.00  0.00    +0.000 A 
ATOM     14  C   UNL     1      -4.120  14.072  24.069  0.00  0.00    +0.000 A 
ATOM     15  C   UNL     1      -3.774  12.723  24.105  0.00  0.00    +0.000 A 
ATOM     16  C   UNL     1      -2.995  12.174  23.086  0.00  0.00    +0.000 A 
ENDBRANCH   8  11
ENDBRANCH   1   5
BRANCH   1  17
ATOM     17  C   UNL     1       1.395   9.225  19.938  0.00  0.00    +0.000 A 
ATOM     18  C   UNL     1       1.021   8.581  21.127  0.00  0.00    +0.000 A 
ATOM     19  C   UNL     1       1.173   7.196  21.274  0.00  0.00    +0.000 A 
ATOM     20  C   UNL     1       1.672   6.427  20.218  0.00  0.00    +0.000 A 
ATOM     21  C   UNL     1       2.121   7.055  19.052  0.00  0.00    +0.000 A 
ATOM     22  C   UNL     1       1.966   8.439  18.911  0.00  0.00    +0.000 A 
ATOM     23 CL   UNL     1       2.502   9.162  17.433  0.00  0.00    +0.000 Cl
BRANCH  20  24
ATOM     24  S   UNL     1       1.858   4.665  20.402  0.00  0.00    +0.000 S 
ATOM     25  O   UNL     1       2.543   4.455  21.658  0.00  0.00    +0.000 OA
ATOM     26  O   UNL     1       0.557   4.080  20.160  0.00  0.00    +0.000 OA
BRANCH  24  27
ATOM     27  N   UNL     1       2.892   4.170  19.168  0.00  0.00    +0.000 NA
ATOM     28  C   UNL     1       2.356   3.609  17.903  0.00  0.00    +0.000 C 
ATOM     29  C   UNL     1       2.376   2.077  17.934  0.00  0.00    +0.000 C 
ATOM     30  O   UNL     1       3.671   1.555  18.266  0.00  0.00    +0.000 OA
ATOM     31  C   UNL     1       4.173   2.082  19.504  0.00  0.00    +0.000 C 
ATOM     32  C   UNL     1       4.228   3.609  19.478  0.00  0.00    +0.000 C 
ENDBRANCH  24  27
ENDBRANCH  20  24
ENDBRANCH   1  17
TORSDOF 5
ENDMDL
MODEL 7
REMARK VINA RESULT:      -7.7      1.127      1.648
REMARK  Name = 
REMARK  7 active torsions:
REMARK  status: ('A' for Active; 'I' for Inactive)
REMARK    1  A    between atoms: C_1  and  C_2
REMARK    2  A    between atoms: C_3  and  N_4
REMARK    3  A    between atoms: N_4  and  C_5
REMARK    4  A    between atoms: C_8  and  S_9
REMARK    5  A    between atoms: S_9  and  N_12
REMARK    6  A    between atoms: N_23  and  C_24
REMARK    7  A    between atoms: N_30  and  C_31
REMARK                            x       y       z     vdW  Elec       q    Type
REMARK                         _______ _______ _______ _____ _____    ______ ____
ROOT
ATOM      1  N   UNL     1       1.004  11.203  19.636  0.00  0.00    +0.000 N 
ATOM      2  H   UNL     1       1.433  11.829  18.944  0.00  0.00    +0.000 HD
ENDROOT
BRANCH   1   5
ATOM      3  C   UNL     1      -1.753  10.887  18.045  0.00  0.00    +0.000 C 
ATOM      4  C   UNL     1      -1.467  11.536  19.358  0.00  0.00    +0.000 A 
ATOM      5  C   UNL     1      -0.257  11.679  19.924  0.00  0.00    +0.000 A 
ATOM      6  C   UNL     1      -0.502  12.519  21.153  0.00  0.00    +0.000 A 
ATOM      7  O   UNL     1       0.388  12.835  21.930  0.00  0.00    +0.000 OA
ATOM      8  N   UNL     1      -1.881  12.798  21.178  0.00  0.00    +0.000 N 
ATOM      9  N   UNL     1      -2.497  12.054  20.150  0.00  0.00    +0.000 N 
ATOM     10  C   UNL     1      -3.776  12.491  19.602  0.00  0.00    +0.000 C 
BRANCH   8  11
ATOM     11  C   UNL     1      -2.560  13.246  22.331  0.00  0.00    +0.000 A 
ATOM     12  C   UNL     1      -3.182  12.315  23.173  0.00  0.00    +0.000 A 
ATOM     13  C   UNL     1      -3.784  12.729  24.366  0.00  0.00    +0.000 A 
ATOM     14  C   UNL     1      -3.797  14.080  24.709  0.00  0.00    +0.000 A 
ATOM     15  C   UNL     1      -3.217  15.018  23.858  0.00  0.00    +0.000 A 
ATOM     16  C   UNL     1      -2.601  14.604  22.677  0.00  0.00    +0.000 A 
ENDBRANCH   8  11
ENDBRANCH   1   5
BRANCH   1  17
ATOM     17  C   UNL     1       1.309   9.871  19.244  0.00  0.00    +0.000 A 
ATOM     18  C   UNL     1       1.682   9.562  17.927  0.00  0.00    +0.000 A 
ATOM     19  C   UNL     1       2.171   8.290  17.598  0.00  0.00    +0.000 A 
ATOM     20  C   UNL     1       2.327   7.318  18.590  0.00  0.00    +0.000 A 
ATOM     21  C   UNL     1       1.893   7.578  19.893  0.00  0.00    +0.000 A 
ATOM     22  C   UNL     1       1.404   8.850  20.216  0.00  0.00    +0.000 A 
ATOM     23 CL   UNL     1       0.916   9.133  21.852  0.00  0.00    +0.000 Cl
BRANCH  20  24
ATOM     24  S   UNL     1       2.957   5.705  18.174  0.00  0.00    +0.000 S 
ATOM     25  O   UNL     1       1.820   4.918  17.749  0.00  0.00    +0.000 OA
ATOM     26  O   UNL     1       4.086   5.913  17.292  0.00  0.00    +0.000 OA
BRANCH  24  27
ATOM     27  N   UNL     1       3.532   5.039  19.609  0.00  0.00    +0.000 NA
ATOM     28  C   UNL     1       4.810   4.285  19.643  0.00  0.00    +0.000 C 
ATOM     29  C   UNL     1       4.555   2.776  19.561  0.00  0.00    +0.000 C 
ATOM     30  O   UNL     1       3.620   2.325  20.552  0.00  0.00    +0.000 OA
ATOM     31  C   UNL     1       2.377   3.041  20.498  0.00  0.00    +0.000 C 
ATOM     32  C   UNL     1       2.593   4.547  20.645  0.00  0.00    +0.000 C 
ENDBRANCH  24  27
ENDBRANCH  20  24
ENDBRANCH   1  17
TORSDOF 5
ENDMDL
MODEL 8
REMARK VINA RESULT:      -7.6      1.840      3.066
REMARK  Name = 
REMARK  7 active torsions:
REMARK  status: ('A' for Active; 'I' for Inactive)
REMARK    1  A    between atoms: C_1  and  C_2
REMARK    2  A    between atoms: C_3  and  N_4
REMARK    3  A    between atoms: N_4  and  C_5
REMARK    4  A    between atoms: C_8  and  S_9
REMARK    5  A    between atoms: S_9  and  N_12
REMARK    6  A    between atoms: N_23  and  C_24
REMARK    7  A    between atoms: N_30  and  C_31
REMARK                            x       y       z     vdW  Elec       q    Type
REMARK                         _______ _______ _______ _____ _____    ______ ____
ROOT
ATOM      1  N   UNL     1       0.792  11.093  18.644  0.00  0.00    +0.000 N 
ATOM      2  H   UNL     1       0.912  11.301  17.646  0.00  0.00    +0.000 HD
ENDROOT
BRANCH   1   5
ATOM      3  C   UNL     1       0.290  13.709  20.415  0.00  0.00    +0.000 C 
ATOM      4  C   UNL     1      -0.683  12.799  19.743  0.00  0.00    +0.000 A 
ATOM      5  C   UNL     1      -0.382  11.677  19.068  0.00  0.00    +0.000 A 
ATOM      6  C   UNL     1      -1.717  11.065  18.721  0.00  0.00    +0.000 A 
ATOM      7  O   UNL     1      -1.826  10.028  18.081  0.00  0.00    +0.000 OA
ATOM      8  N   UNL     1      -2.699  11.919  19.255  0.00  0.00    +0.000 N 
ATOM      9  N   UNL     1      -2.054  13.072  19.750  0.00  0.00    +0.000 N 
ATOM     10  C   UNL     1      -2.698  13.880  20.780  0.00  0.00    +0.000 C 
BRANCH   8  11
ATOM     11  C   UNL     1      -4.051  11.893  18.852  0.00  0.00    +0.000 A 
ATOM     12  C   UNL     1      -4.365  11.822  17.488  0.00  0.00    +0.000 A 
ATOM     13  C   UNL     1      -5.695  11.706  17.072  0.00  0.00    +0.000 A 
ATOM     14  C   UNL     1      -6.723  11.692  18.014  0.00  0.00    +0.000 A 
ATOM     15  C   UNL     1      -6.424  11.804  19.370  0.00  0.00    +0.000 A 
ATOM     16  C   UNL     1      -5.096  11.902  19.787  0.00  0.00    +0.000 A 
ENDBRANCH   8  11
ENDBRANCH   1   5
BRANCH   1  17
ATOM     17  C   UNL     1       1.148   9.731  18.836  0.00  0.00    +0.000 A 
ATOM     18  C   UNL     1       1.663   8.953  17.788  0.00  0.00    +0.000 A 
ATOM     19  C   UNL     1       2.196   7.680  18.032  0.00  0.00    +0.000 A 
ATOM     20  C   UNL     1       2.251   7.179  19.336  0.00  0.00    +0.000 A 
ATOM     21  C   UNL     1       1.677   7.903  20.385  0.00  0.00    +0.000 A 
ATOM     22  C   UNL     1       1.147   9.174  20.135  0.00  0.00    +0.000 A 
ATOM     23 CL   UNL     1       0.483  10.046  21.475  0.00  0.00    +0.000 Cl
BRANCH  20  24
ATOM     24  S   UNL     1       2.935   5.563  19.647  0.00  0.00    +0.000 S 
ATOM     25  O   UNL     1       4.373   5.707  19.579  0.00  0.00    +0.000 OA
ATOM     26  O   UNL     1       2.296   5.063  20.845  0.00  0.00    +0.000 OA
BRANCH  24  27
ATOM     27  N   UNL     1       2.458   4.594  18.355  0.00  0.00    +0.000 NA
ATOM     28  C   UNL     1       1.316   3.655  18.488  0.00  0.00    +0.000 C 
ATOM     29  C   UNL     1       1.810   2.237  18.795  0.00  0.00    +0.000 C 
ATOM     30  O   UNL     1       2.793   1.784  17.853  0.00  0.00    +0.000 OA
ATOM     31  C   UNL     1       3.907   2.685  17.748  0.00  0.00    +0.000 C 
ATOM     32  C   UNL     1       3.450   4.095  17.375  0.00  0.00    +0.000 C 
ENDBRANCH  24  27
ENDBRANCH  20  24
ENDBRANCH   1  17
TORSDOF 5
ENDMDL
MODEL 9
REMARK VINA RESULT:      -7.5      3.653      9.678
REMARK  Name = 
REMARK  7 active torsions:
REMARK  status: ('A' for Active; 'I' for Inactive)
REMARK    1  A    between atoms: C_1  and  C_2
REMARK    2  A    between atoms: C_3  and  N_4
REMARK    3  A    between atoms: N_4  and  C_5
REMARK    4  A    between atoms: C_8  and  S_9
REMARK    5  A    between atoms: S_9  and  N_12
REMARK    6  A    between atoms: N_23  and  C_24
REMARK    7  A    between atoms: N_30  and  C_31
REMARK                            x       y       z     vdW  Elec       q    Type
REMARK                         _______ _______ _______ _____ _____    ______ ____
ROOT
ATOM      1  N   UNL     1       2.684   7.096  20.111  0.00  0.00    +0.000 N 
ATOM      2  H   UNL     1       2.320   6.731  20.998  0.00  0.00    +0.000 HD
ENDROOT
BRANCH   1   5
ATOM      3  C   UNL     1       1.190   4.311  19.618  0.00  0.00    +0.000 C 
ATOM      4  C   UNL     1       2.428   4.864  18.995  0.00  0.00    +0.000 A 
ATOM      5  C   UNL     1       3.025   6.025  19.312  0.00  0.00    +0.000 A 
ATOM      6  C   UNL     1       4.299   6.039  18.504  0.00  0.00    +0.000 A 
ATOM      7  O   UNL     1       5.092   6.969  18.531  0.00  0.00    +0.000 OA
ATOM      8  N   UNL     1       4.322   4.836  17.775  0.00  0.00    +0.000 N 
ATOM      9  N   UNL     1       3.085   4.185  17.963  0.00  0.00    +0.000 N 
ATOM     10  C   UNL     1       2.985   2.743  17.773  0.00  0.00    +0.000 C 
BRANCH   8  11
ATOM     11  C   UNL     1       5.151   4.627  16.652  0.00  0.00    +0.000 A 
ATOM     12  C   UNL     1       4.572   4.474  15.384  0.00  0.00    +0.000 A 
ATOM     13  C   UNL     1       5.377   4.354  14.247  0.00  0.00    +0.000 A 
ATOM     14  C   UNL     1       6.766   4.355  14.372  0.00  0.00    +0.000 A 
ATOM     15  C   UNL     1       7.350   4.465  15.631  0.00  0.00    +0.000 A 
ATOM     16  C   UNL     1       6.548   4.602  16.764  0.00  0.00    +0.000 A 
ENDBRANCH   8  11
ENDBRANCH   1   5
BRANCH   1  17
ATOM     17  C   UNL     1       1.845   8.175  19.723  0.00  0.00    +0.000 A 
ATOM     18  C   UNL     1       1.621   8.481  18.372  0.00  0.00    +0.000 A 
ATOM     19  C   UNL     1       0.642   9.412  17.999  0.00  0.00    +0.000 A 
ATOM     20  C   UNL     1      -0.152  10.026  18.972  0.00  0.00    +0.000 A 
ATOM     21  C   UNL     1       0.103   9.794  20.326  0.00  0.00    +0.000 A 
ATOM     22  C   UNL     1       1.082   8.864  20.693  0.00  0.00    +0.000 A 
ATOM     23 CL   UNL     1       1.332   8.583  22.383  0.00  0.00    +0.000 Cl
BRANCH  20  24
ATOM     24  S   UNL     1      -1.402  11.203  18.496  0.00  0.00    +0.000 S 
ATOM     25  O   UNL     1      -1.982  11.704  19.723  0.00  0.00    +0.000 OA
ATOM     26  O   UNL     1      -0.786  12.105  17.545  0.00  0.00    +0.000 OA
BRANCH  24  27
ATOM     27  N   UNL     1      -2.592  10.326  17.689  0.00  0.00    +0.000 NA
ATOM     28  C   UNL     1      -2.357   9.800  16.322  0.00  0.00    +0.000 C 
ATOM     29  C   UNL     1      -2.955  10.736  15.267  0.00  0.00    +0.000 C 
ATOM     30  O   UNL     1      -4.338  11.029  15.518  0.00  0.00    +0.000 OA
ATOM     31  C   UNL     1      -4.555  11.561  16.833  0.00  0.00    +0.000 C 
ATOM     32  C   UNL     1      -4.028  10.616  17.912  0.00  0.00    +0.000 C 
ENDBRANCH  24  27
ENDBRANCH  20  24
ENDBRANCH   1  17
TORSDOF 5
ENDMDL
