MODEL 1
REMARK VINA RESULT:      -8.1      0.000      0.000
REMARK  Name = 
REMARK  11 active torsions:
REMARK  status: ('A' for Active; 'I' for Inactive)
REMARK    1  A    between atoms: C_1  and  C_2
REMARK    2  A    between atoms: C_2  and  C_3
REMARK    3  A    between atoms: C_2  and  C_4
REMARK    4  A    between atoms: C_7  and  C_8
REMARK    5  A    between atoms: C_8  and  C_9
REMARK    6  A    between atoms: C_9  and  N_10
REMARK    7  A    between atoms: N_10  and  S_11
REMARK    8  A    between atoms: S_11  and  C_14
REMARK    9  A    between atoms: C_16  and  C_17
REMARK   10  A    between atoms: N_19  and  O_20
REMARK   11  A    between atoms: C_23  and  O_24
REMARK                            x       y       z     vdW  Elec       q    Type
REMARK                         _______ _______ _______ _____ _____    ______ ____
ROOT
ATOM      1  S   UNL     1       3.245   3.167  17.907  0.00  0.00    +0.000 S 
ATOM      2  O   UNL     1       3.513   2.079  18.819  0.00  0.00    +0.000 OA
ATOM      3  O   UNL     1       2.434   3.007  16.719  0.00  0.00    +0.000 OA
ENDROOT
BRANCH   1   4
ATOM      4  C   UNL     1       4.799   3.887  17.454  0.00  0.00    +0.000 A 
ATOM      5  C   UNL     1       5.176   3.994  16.110  0.00  0.00    +0.000 A 
ATOM      6  C   UNL     1       6.438   4.501  15.782  0.00  0.00    +0.000 A 
ATOM      7  C   UNL     1       7.308   4.924  16.793  0.00  0.00    +0.000 A 
ATOM      8  C   UNL     1       6.923   4.832  18.132  0.00  0.00    +0.000 A 
ATOM      9  C   UNL     1       5.670   4.311  18.461  0.00  0.00    +0.000 A 
BRANCH   6  10
ATOM     10  C   UNL     1       6.877   4.543  14.356  0.00  0.00    +0.000 C 
ATOM     11  N   UNL     1       6.396   3.600  13.476  0.00  0.00    +0.000 N 
ATOM     12  N   UNL     1       7.706   5.480  13.992  0.00  0.00    +0.000 NA
ATOM     13  H   UNL     1       6.374   2.654  13.835  0.00  0.00    +0.000 HD
ATOM     14  H   UNL     1       6.917   3.661  12.604  0.00  0.00    +0.000 HD
BRANCH  12  15
ATOM     15  O   UNL     1       8.005   5.376  12.621  0.00  0.00    +0.000 OA
ATOM     16  H   UNL     1       8.975   5.268  12.632  0.00  0.00    +0.000 HD
ENDBRANCH  12  15
ENDBRANCH   6  10
BRANCH   9  17
ATOM     17  O   UNL     1       5.308   4.222  19.772  0.00  0.00    +0.000 OA
ATOM     18  H   UNL     1       6.079   4.000  20.320  0.00  0.00    +0.000 HD
ENDBRANCH   9  17
ENDBRANCH   1   4
BRANCH   1  19
ATOM     19  N   UNL     1       2.477   4.344  18.860  0.00  0.00    +0.000 NA
ATOM     20  H   UNL     1       1.897   3.884  19.562  0.00  0.00    +0.000 HD
BRANCH  19  21
ATOM     21  C   UNL     1       1.895   5.487  18.138  0.00  0.00    +0.000 C 
BRANCH  21  22
ATOM     22  C   UNL     1       2.760   6.734  18.321  0.00  0.00    +0.000 C 
BRANCH  22  26
ATOM     23  C   UNL     1       0.799   9.630  20.877  0.00  0.00    +0.000 A 
ATOM     24  C   UNL     1       0.979   9.885  19.508  0.00  0.00    +0.000 A 
ATOM     25  C   UNL     1       1.598   8.948  18.679  0.00  0.00    +0.000 A 
ATOM     26  C   UNL     1       2.050   7.731  19.201  0.00  0.00    +0.000 A 
ATOM     27  C   UNL     1       1.895   7.479  20.567  0.00  0.00    +0.000 A 
ATOM     28  C   UNL     1       1.271   8.416  21.394  0.00  0.00    +0.000 A 
BRANCH  23  30
ATOM     29  C   UNL     1      -0.956  11.386  20.834  0.00  0.00    +0.000 C 
ATOM     30  C   UNL     1       0.030  10.628  21.725  0.00  0.00    +0.000 C 
ATOM     31  C   UNL     1      -0.696  10.008  22.923  0.00  0.00    +0.000 C 
ENDBRANCH  23  30
ENDBRANCH  22  26
ENDBRANCH  21  22
ENDBRANCH  19  21
ENDBRANCH   1  19
TORSDOF 9
ENDMDL
MODEL 2
REMARK VINA RESULT:      -8.0      0.853      1.192
REMARK  Name = 
REMARK  11 active torsions:
REMARK  status: ('A' for Active; 'I' for Inactive)
REMARK    1  A    between atoms: C_1  and  C_2
REMARK    2  A    between atoms: C_2  and  C_3
REMARK    3  A    between atoms: C_2  and  C_4
REMARK    4  A    between atoms: C_7  and  C_8
REMARK    5  A    between atoms: C_8  and  C_9
REMARK    6  A    between atoms: C_9  and  N_10
REMARK    7  A    between atoms: N_10  and  S_11
REMARK    8  A    between atoms: S_11  and  C_14
REMARK    9  A    between atoms: C_16  and  C_17
REMARK   10  A    between atoms: N_19  and  O_20
REMARK   11  A    between atoms: C_23  and  O_24
REMARK                            x       y       z     vdW  Elec       q    Type
REMARK                         _______ _______ _______ _____ _____    ______ ____
ROOT
ATOM      1  S   UNL     1       4.238   3.338  18.655  0.00  0.00    +0.000 S 
ATOM      2  O   UNL     1       4.868   2.675  19.774  0.00  0.00    +0.000 OA
ATOM      3  O   UNL     1       3.429   2.630  17.686  0.00  0.00    +0.000 OA
ENDROOT
BRANCH   1   4
ATOM      4  C   UNL     1       5.485   4.263  17.804  0.00  0.00    +0.000 A 
ATOM      5  C   UNL     1       5.647   4.144  16.418  0.00  0.00    +0.000 A 
ATOM      6  C   UNL     1       6.685   4.830  15.779  0.00  0.00    +0.000 A 
ATOM      7  C   UNL     1       7.541   5.654  16.519  0.00  0.00    +0.000 A 
ATOM      8  C   UNL     1       7.366   5.786  17.899  0.00  0.00    +0.000 A 
ATOM      9  C   UNL     1       6.341   5.087  18.540  0.00  0.00    +0.000 A 
BRANCH   6  10
ATOM     10  C   UNL     1       6.913   4.645  14.316  0.00  0.00    +0.000 C 
ATOM     11  N   UNL     1       6.269   3.621  13.660  0.00  0.00    +0.000 N 
ATOM     12  N   UNL     1       7.720   5.467  13.707  0.00  0.00    +0.000 NA
ATOM     13  H   UNL     1       6.258   2.738  14.154  0.00  0.00    +0.000 HD
ATOM     14  H   UNL     1       6.659   3.527  12.724  0.00  0.00    +0.000 HD
BRANCH  12  15
ATOM     15  O   UNL     1       7.811   5.154  12.338  0.00  0.00    +0.000 OA
ATOM     16  H   UNL     1       6.904   4.857  12.136  0.00  0.00    +0.000 HD
ENDBRANCH  12  15
ENDBRANCH   6  10
BRANCH   9  17
ATOM     17  O   UNL     1       6.184   5.219  19.887  0.00  0.00    +0.000 OA
ATOM     18  H   UNL     1       5.936   4.366  20.282  0.00  0.00    +0.000 HD
ENDBRANCH   9  17
ENDBRANCH   1   4
BRANCH   1  19
ATOM     19  N   UNL     1       3.230   4.506  19.362  0.00  0.00    +0.000 NA
ATOM     20  H   UNL     1       2.753   4.098  20.167  0.00  0.00    +0.000 HD
BRANCH  19  21
ATOM     21  C   UNL     1       2.427   5.321  18.435  0.00  0.00    +0.000 C 
BRANCH  21  22
ATOM     22  C   UNL     1       3.066   6.695  18.238  0.00  0.00    +0.000 C 
BRANCH  22  26
ATOM     23  C   UNL     1       0.558   9.820  19.885  0.00  0.00    +0.000 A 
ATOM     24  C   UNL     1       0.896   9.814  18.522  0.00  0.00    +0.000 A 
ATOM     25  C   UNL     1       1.693   8.800  17.986  0.00  0.00    +0.000 A 
ATOM     26  C   UNL     1       2.168   7.767  18.802  0.00  0.00    +0.000 A 
ATOM     27  C   UNL     1       1.853   7.779  20.164  0.00  0.00    +0.000 A 
ATOM     28  C   UNL     1       1.052   8.791  20.697  0.00  0.00    +0.000 A 
BRANCH  23  30
ATOM     29  C   UNL     1      -0.293  10.935  21.935  0.00  0.00    +0.000 C 
ATOM     30  C   UNL     1      -0.395  10.880  20.409  0.00  0.00    +0.000 C 
ATOM     31  C   UNL     1      -0.182  12.272  19.807  0.00  0.00    +0.000 C 
ENDBRANCH  23  30
ENDBRANCH  22  26
ENDBRANCH  21  22
ENDBRANCH  19  21
ENDBRANCH   1  19
TORSDOF 9
ENDMDL
MODEL 3
REMARK VINA RESULT:      -7.9      1.066      1.796
REMARK  Name = 
REMARK  11 active torsions:
REMARK  status: ('A' for Active; 'I' for Inactive)
REMARK    1  A    between atoms: C_1  and  C_2
REMARK    2  A    between atoms: C_2  and  C_3
REMARK    3  A    between atoms: C_2  and  C_4
REMARK    4  A    between atoms: C_7  and  C_8
REMARK    5  A    between atoms: C_8  and  C_9
REMARK    6  A    between atoms: C_9  and  N_10
REMARK    7  A    between atoms: N_10  and  S_11
REMARK    8  A    between atoms: S_11  and  C_14
REMARK    9  A    between atoms: C_16  and  C_17
REMARK   10  A    between atoms: N_19  and  O_20
REMARK   11  A    between atoms: C_23  and  O_24
REMARK                            x       y       z     vdW  Elec       q    Type
REMARK                         _______ _______ _______ _____ _____    ______ ____
ROOT
ATOM      1  S   UNL     1       4.351   3.408  18.830  0.00  0.00    +0.000 S 
ATOM      2  O   UNL     1       5.034   2.593  19.808  0.00  0.00    +0.000 OA
ATOM      3  O   UNL     1       3.387   2.865  17.898  0.00  0.00    +0.000 OA
ENDROOT
BRANCH   1   4
ATOM      4  C   UNL     1       5.580   4.313  17.929  0.00  0.00    +0.000 A 
ATOM      5  C   UNL     1       5.679   4.197  16.537  0.00  0.00    +0.000 A 
ATOM      6  C   UNL     1       6.702   4.866  15.857  0.00  0.00    +0.000 A 
ATOM      7  C   UNL     1       7.606   5.668  16.563  0.00  0.00    +0.000 A 
ATOM      8  C   UNL     1       7.494   5.795  17.950  0.00  0.00    +0.000 A 
ATOM      9  C   UNL     1       6.483   5.115  18.631  0.00  0.00    +0.000 A 
BRANCH   6  10
ATOM     10  C   UNL     1       6.863   4.683  14.385  0.00  0.00    +0.000 C 
ATOM     11  N   UNL     1       7.751   5.484  13.702  0.00  0.00    +0.000 N 
ATOM     12  N   UNL     1       6.154   3.764  13.794  0.00  0.00    +0.000 NA
ATOM     13  H   UNL     1       7.728   6.463  13.959  0.00  0.00    +0.000 HD
ATOM     14  H   UNL     1       7.616   5.353  12.701  0.00  0.00    +0.000 HD
BRANCH  12  15
ATOM     15  O   UNL     1       6.437   3.724  12.416  0.00  0.00    +0.000 OA
ATOM     16  H   UNL     1       6.344   4.661  12.162  0.00  0.00    +0.000 HD
ENDBRANCH  12  15
ENDBRANCH   6  10
BRANCH   9  17
ATOM     17  O   UNL     1       6.388   5.242  19.985  0.00  0.00    +0.000 OA
ATOM     18  H   UNL     1       6.588   6.155  20.251  0.00  0.00    +0.000 HD
ENDBRANCH   9  17
ENDBRANCH   1   4
BRANCH   1  19
ATOM     19  N   UNL     1       3.529   4.578  19.746  0.00  0.00    +0.000 NA
ATOM     20  H   UNL     1       3.327   4.199  20.672  0.00  0.00    +0.000 HD
BRANCH  19  21
ATOM     21  C   UNL     1       2.452   5.306  19.057  0.00  0.00    +0.000 C 
BRANCH  21  22
ATOM     22  C   UNL     1       2.992   6.587  18.421  0.00  0.00    +0.000 C 
BRANCH  22  26
ATOM     23  C   UNL     1       0.567   9.947  19.683  0.00  0.00    +0.000 A 
ATOM     24  C   UNL     1       0.986   8.976  20.607  0.00  0.00    +0.000 A 
ATOM     25  C   UNL     1       1.780   7.900  20.206  0.00  0.00    +0.000 A 
ATOM     26  C   UNL     1       2.174   7.771  18.869  0.00  0.00    +0.000 A 
ATOM     27  C   UNL     1       1.743   8.722  17.940  0.00  0.00    +0.000 A 
ATOM     28  C   UNL     1       0.953   9.801  18.344  0.00  0.00    +0.000 A 
BRANCH  23  30
ATOM     29  C   UNL     1      -0.173  11.184  21.705  0.00  0.00    +0.000 C 
ATOM     30  C   UNL     1      -0.206  11.157  20.176  0.00  0.00    +0.000 C 
ATOM     31  C   UNL     1       0.282  12.493  19.605  0.00  0.00    +0.000 C 
ENDBRANCH  23  30
ENDBRANCH  22  26
ENDBRANCH  21  22
ENDBRANCH  19  21
ENDBRANCH   1  19
TORSDOF 9
ENDMDL
MODEL 4
REMARK VINA RESULT:      -7.8      0.983      1.424
REMARK  Name = 
REMARK  11 active torsions:
REMARK  status: ('A' for Active; 'I' for Inactive)
REMARK    1  A    between atoms: C_1  and  C_2
REMARK    2  A    between atoms: C_2  and  C_3
REMARK    3  A    between atoms: C_2  and  C_4
REMARK    4  A    between atoms: C_7  and  C_8
REMARK    5  A    between atoms: C_8  and  C_9
REMARK    6  A    between atoms: C_9  and  N_10
REMARK    7  A    between atoms: N_10  and  S_11
REMARK    8  A    between atoms: S_11  and  C_14
REMARK    9  A    between atoms: C_16  and  C_17
REMARK   10  A    between atoms: N_19  and  O_20
REMARK   11  A    between atoms: C_23  and  O_24
REMARK                            x       y       z     vdW  Elec       q    Type
REMARK                         _______ _______ _______ _____ _____    ______ ____
ROOT
ATOM      1  S   UNL     1       3.379   3.081  17.821  0.00  0.00    +0.000 S 
ATOM      2  O   UNL     1       3.660   1.738  18.274  0.00  0.00    +0.000 OA
ATOM      3  O   UNL     1       2.370   3.373  16.826  0.00  0.00    +0.000 OA
ENDROOT
BRANCH   1   4
ATOM      4  C   UNL     1       4.913   3.814  17.322  0.00  0.00    +0.000 A 
ATOM      5  C   UNL     1       5.230   3.962  15.966  0.00  0.00    +0.000 A 
ATOM      6  C   UNL     1       6.477   4.478  15.598  0.00  0.00    +0.000 A 
ATOM      7  C   UNL     1       7.392   4.869  16.582  0.00  0.00    +0.000 A 
ATOM      8  C   UNL     1       7.066   4.736  17.934  0.00  0.00    +0.000 A 
ATOM      9  C   UNL     1       5.829   4.206  18.302  0.00  0.00    +0.000 A 
BRANCH   6  10
ATOM     10  C   UNL     1       6.853   4.563  14.156  0.00  0.00    +0.000 C 
ATOM     11  N   UNL     1       7.750   5.526  13.752  0.00  0.00    +0.000 N 
ATOM     12  N   UNL     1       6.316   3.715  13.325  0.00  0.00    +0.000 NA
ATOM     13  H   UNL     1       7.605   6.442  14.158  0.00  0.00    +0.000 HD
ATOM     14  H   UNL     1       7.766   5.561  12.735  0.00  0.00    +0.000 HD
BRANCH  12  15
ATOM     15  O   UNL     1       6.787   3.933  12.017  0.00  0.00    +0.000 OA
ATOM     16  H   UNL     1       6.833   4.906  11.976  0.00  0.00    +0.000 HD
ENDBRANCH  12  15
ENDBRANCH   6  10
BRANCH   9  17
ATOM     17  O   UNL     1       5.525   4.076  19.624  0.00  0.00    +0.000 OA
ATOM     18  H   UNL     1       6.323   3.856  20.133  0.00  0.00    +0.000 HD
ENDBRANCH   9  17
ENDBRANCH   1   4
BRANCH   1  19
ATOM     19  N   UNL     1       2.928   3.921  19.226  0.00  0.00    +0.000 NA
ATOM     20  H   UNL     1       2.601   3.255  19.926  0.00  0.00    +0.000 HD
BRANCH  19  21
ATOM     21  C   UNL     1       2.136   5.145  19.026  0.00  0.00    +0.000 C 
BRANCH  21  22
ATOM     22  C   UNL     1       3.021   6.384  19.161  0.00  0.00    +0.000 C 
BRANCH  22  26
ATOM     23  C   UNL     1       0.654  10.012  19.108  0.00  0.00    +0.000 A 
ATOM     24  C   UNL     1       1.201   9.494  17.923  0.00  0.00    +0.000 A 
ATOM     25  C   UNL     1       1.952   8.317  17.935  0.00  0.00    +0.000 A 
ATOM     26  C   UNL     1       2.172   7.630  19.134  0.00  0.00    +0.000 A 
ATOM     27  C   UNL     1       1.650   8.152  20.321  0.00  0.00    +0.000 A 
ATOM     28  C   UNL     1       0.894   9.327  20.306  0.00  0.00    +0.000 A 
BRANCH  23  30
ATOM     29  C   UNL     1      -1.534  10.870  18.305  0.00  0.00    +0.000 C 
ATOM     30  C   UNL     1      -0.243  11.236  19.040  0.00  0.00    +0.000 C 
ATOM     31  C   UNL     1      -0.560  11.861  20.403  0.00  0.00    +0.000 C 
ENDBRANCH  23  30
ENDBRANCH  22  26
ENDBRANCH  21  22
ENDBRANCH  19  21
ENDBRANCH   1  19
TORSDOF 9
ENDMDL
MODEL 5
REMARK VINA RESULT:      -7.8      5.385      7.644
REMARK  Name = 
REMARK  11 active torsions:
REMARK  status: ('A' for Active; 'I' for Inactive)
REMARK    1  A    between atoms: C_1  and  C_2
REMARK    2  A    between atoms: C_2  and  C_3
REMARK    3  A    between atoms: C_2  and  C_4
REMARK    4  A    between atoms: C_7  and  C_8
REMARK    5  A    between atoms: C_8  and  C_9
REMARK    6  A    between atoms: C_9  and  N_10
REMARK    7  A    between atoms: N_10  and  S_11
REMARK    8  A    between atoms: S_11  and  C_14
REMARK    9  A    between atoms: C_16  and  C_17
REMARK   10  A    between atoms: N_19  and  O_20
REMARK   11  A    between atoms: C_23  and  O_24
REMARK                            x       y       z     vdW  Elec       q    Type
REMARK                         _______ _______ _______ _____ _____    ______ ____
ROOT
ATOM      1  S   UNL     1       7.198   5.303  18.670  0.00  0.00    +0.000 S 
ATOM      2  O   UNL     1       8.117   4.455  17.947  0.00  0.00    +0.000 OA
ATOM      3  O   UNL     1       7.336   5.573  20.085  0.00  0.00    +0.000 OA
ENDROOT
BRANCH   1   4
ATOM      4  C   UNL     1       5.557   4.718  18.350  0.00  0.00    +0.000 A 
ATOM      5  C   UNL     1       4.650   4.514  19.398  0.00  0.00    +0.000 A 
ATOM      6  C   UNL     1       3.385   3.984  19.126  0.00  0.00    +0.000 A 
ATOM      7  C   UNL     1       3.018   3.684  17.810  0.00  0.00    +0.000 A 
ATOM      8  C   UNL     1       3.918   3.905  16.764  0.00  0.00    +0.000 A 
ATOM      9  C   UNL     1       5.187   4.418  17.037  0.00  0.00    +0.000 A 
BRANCH   6  10
ATOM     10  C   UNL     1       2.443   3.689  20.246  0.00  0.00    +0.000 C 
ATOM     11  N   UNL     1       1.230   4.337  20.292  0.00  0.00    +0.000 N 
ATOM     12  N   UNL     1       2.806   2.819  21.147  0.00  0.00    +0.000 NA
ATOM     13  H   UNL     1       1.266   5.326  20.082  0.00  0.00    +0.000 HD
ATOM     14  H   UNL     1       0.789   4.157  21.192  0.00  0.00    +0.000 HD
BRANCH  12  15
ATOM     15  O   UNL     1       1.800   2.658  22.118  0.00  0.00    +0.000 OA
ATOM     16  H   UNL     1       1.505   1.742  21.954  0.00  0.00    +0.000 HD
ENDBRANCH  12  15
ENDBRANCH   6  10
BRANCH   9  17
ATOM     17  O   UNL     1       6.058   4.624  16.009  0.00  0.00    +0.000 OA
ATOM     18  H   UNL     1       5.626   4.435  15.159  0.00  0.00    +0.000 HD
ENDBRANCH   9  17
ENDBRANCH   1   4
BRANCH   1  19
ATOM     19  N   UNL     1       7.290   6.804  17.883  0.00  0.00    +0.000 NA
ATOM     20  H   UNL     1       7.280   6.657  16.873  0.00  0.00    +0.000 HD
BRANCH  19  21
ATOM     21  C   UNL     1       8.269   7.763  18.422  0.00  0.00    +0.000 C 
BRANCH  21  22
ATOM     22  C   UNL     1       8.242   9.064  17.620  0.00  0.00    +0.000 C 
BRANCH  22  26
ATOM     23  C   UNL     1      10.113  12.271  19.852  0.00  0.00    +0.000 A 
ATOM     24  C   UNL     1       9.600  11.142  20.510  0.00  0.00    +0.000 A 
ATOM     25  C   UNL     1       9.009  10.100  19.792  0.00  0.00    +0.000 A 
ATOM     26  C   UNL     1       8.920  10.164  18.397  0.00  0.00    +0.000 A 
ATOM     27  C   UNL     1       9.408  11.295  17.737  0.00  0.00    +0.000 A 
ATOM     28  C   UNL     1      10.003  12.334  18.457  0.00  0.00    +0.000 A 
BRANCH  23  30
ATOM     29  C   UNL     1      11.562  14.282  19.697  0.00  0.00    +0.000 C 
ATOM     30  C   UNL     1      10.840  13.334  20.656  0.00  0.00    +0.000 C 
ATOM     31  C   UNL     1       9.943  14.122  21.616  0.00  0.00    +0.000 C 
ENDBRANCH  23  30
ENDBRANCH  22  26
ENDBRANCH  21  22
ENDBRANCH  19  21
ENDBRANCH   1  19
TORSDOF 9
ENDMDL
MODEL 6
REMARK VINA RESULT:      -7.6      2.492      3.341
REMARK  Name = 
REMARK  11 active torsions:
REMARK  status: ('A' for Active; 'I' for Inactive)
REMARK    1  A    between atoms: C_1  and  C_2
REMARK    2  A    between atoms: C_2  and  C_3
REMARK    3  A    between atoms: C_2  and  C_4
REMARK    4  A    between atoms: C_7  and  C_8
REMARK    5  A    between atoms: C_8  and  C_9
REMARK    6  A    between atoms: C_9  and  N_10
REMARK    7  A    between atoms: N_10  and  S_11
REMARK    8  A    between atoms: S_11  and  C_14
REMARK    9  A    between atoms: C_16  and  C_17
REMARK   10  A    between atoms: N_19  and  O_20
REMARK   11  A    between atoms: C_23  and  O_24
REMARK                            x       y       z     vdW  Elec       q    Type
REMARK                         _______ _______ _______ _____ _____    ______ ____
ROOT
ATOM      1  S   UNL     1       2.163   3.204  20.156  0.00  0.00    +0.000 S 
ATOM      2  O   UNL     1       2.820   3.189  21.442  0.00  0.00    +0.000 OA
ATOM      3  O   UNL     1       1.357   2.100  19.680  0.00  0.00    +0.000 OA
ENDROOT
BRANCH   1   4
ATOM      4  C   UNL     1       3.380   3.601  18.932  0.00  0.00    +0.000 A 
ATOM      5  C   UNL     1       4.703   3.880  19.300  0.00  0.00    +0.000 A 
ATOM      6  C   UNL     1       5.628   4.261  18.322  0.00  0.00    +0.000 A 
ATOM      7  C   UNL     1       5.240   4.336  16.980  0.00  0.00    +0.000 A 
ATOM      8  C   UNL     1       3.924   4.039  16.614  0.00  0.00    +0.000 A 
ATOM      9  C   UNL     1       2.996   3.676  17.591  0.00  0.00    +0.000 A 
BRANCH   6  10
ATOM     10  C   UNL     1       7.017   4.637  18.717  0.00  0.00    +0.000 C 
ATOM     11  N   UNL     1       8.062   4.327  17.876  0.00  0.00    +0.000 N 
ATOM     12  N   UNL     1       7.193   5.255  19.850  0.00  0.00    +0.000 NA
ATOM     13  H   UNL     1       8.024   3.398  17.473  0.00  0.00    +0.000 HD
ATOM     14  H   UNL     1       8.941   4.492  18.361  0.00  0.00    +0.000 HD
BRANCH  12  15
ATOM     15  O   UNL     1       8.555   5.541  20.057  0.00  0.00    +0.000 OA
ATOM     16  H   UNL     1       8.799   5.984  19.223  0.00  0.00    +0.000 HD
ENDBRANCH  12  15
ENDBRANCH   6  10
BRANCH   9  17
ATOM     17  O   UNL     1       1.715   3.395  17.222  0.00  0.00    +0.000 OA
ATOM     18  H   UNL     1       1.096   3.664  17.922  0.00  0.00    +0.000 HD
ENDBRANCH   9  17
ENDBRANCH   1   4
BRANCH   1  19
ATOM     19  N   UNL     1       1.140   4.557  20.213  0.00  0.00    +0.000 NA
ATOM     20  H   UNL     1       0.631   4.633  19.331  0.00  0.00    +0.000 HD
BRANCH  19  21
ATOM     21  C   UNL     1       1.720   5.788  20.774  0.00  0.00    +0.000 C 
BRANCH  21  22
ATOM     22  C   UNL     1       2.487   6.558  19.699  0.00  0.00    +0.000 C 
BRANCH  22  26
ATOM     23  C   UNL     1       0.768  10.494  19.137  0.00  0.00    +0.000 A 
ATOM     24  C   UNL     1       1.434   9.845  18.085  0.00  0.00    +0.000 A 
ATOM     25  C   UNL     1       1.977   8.570  18.259  0.00  0.00    +0.000 A 
ATOM     26  C   UNL     1       1.864   7.915  19.491  0.00  0.00    +0.000 A 
ATOM     27  C   UNL     1       1.221   8.564  20.549  0.00  0.00    +0.000 A 
ATOM     28  C   UNL     1       0.674   9.838  20.371  0.00  0.00    +0.000 A 
BRANCH  23  30
ATOM     29  C   UNL     1      -0.821  12.169  20.054  0.00  0.00    +0.000 C 
ATOM     30  C   UNL     1       0.101  11.834  18.880  0.00  0.00    +0.000 C 
ATOM     31  C   UNL     1       1.079  12.985  18.620  0.00  0.00    +0.000 C 
ENDBRANCH  23  30
ENDBRANCH  22  26
ENDBRANCH  21  22
ENDBRANCH  19  21
ENDBRANCH   1  19
TORSDOF 9
ENDMDL
MODEL 7
REMARK VINA RESULT:      -7.5      0.817      1.065
REMARK  Name = 
REMARK  11 active torsions:
REMARK  status: ('A' for Active; 'I' for Inactive)
REMARK    1  A    between atoms: C_1  and  C_2
REMARK    2  A    between atoms: C_2  and  C_3
REMARK    3  A    between atoms: C_2  and  C_4
REMARK    4  A    between atoms: C_7  and  C_8
REMARK    5  A    between atoms: C_8  and  C_9
REMARK    6  A    between atoms: C_9  and  N_10
REMARK    7  A    between atoms: N_10  and  S_11
REMARK    8  A    between atoms: S_11  and  C_14
REMARK    9  A    between atoms: C_16  and  C_17
REMARK   10  A    between atoms: N_19  and  O_20
REMARK   11  A    between atoms: C_23  and  O_24
REMARK                            x       y       z     vdW  Elec       q    Type
REMARK                         _______ _______ _______ _____ _____    ______ ____
ROOT
ATOM      1  S   UNL     1       3.853   3.416  18.341  0.00  0.00    +0.000 S 
ATOM      2  O   UNL     1       4.097   3.381  19.764  0.00  0.00    +0.000 OA
ATOM      3  O   UNL     1       3.619   2.220  17.561  0.00  0.00    +0.000 OA
ENDROOT
BRANCH   1   4
ATOM      4  C   UNL     1       5.159   4.349  17.593  0.00  0.00    +0.000 A 
ATOM      5  C   UNL     1       5.437   4.226  16.226  0.00  0.00    +0.000 A 
ATOM      6  C   UNL     1       6.519   4.920  15.673  0.00  0.00    +0.000 A 
ATOM      7  C   UNL     1       7.303   5.753  16.478  0.00  0.00    +0.000 A 
ATOM      8  C   UNL     1       7.012   5.888  17.838  0.00  0.00    +0.000 A 
ATOM      9  C   UNL     1       5.943   5.183  18.394  0.00  0.00    +0.000 A 
BRANCH   6  10
ATOM     10  C   UNL     1       6.870   4.731  14.235  0.00  0.00    +0.000 C 
ATOM     11  N   UNL     1       7.825   5.542  13.664  0.00  0.00    +0.000 N 
ATOM     12  N   UNL     1       6.257   3.796  13.566  0.00  0.00    +0.000 NA
ATOM     13  H   UNL     1       7.754   6.522  13.909  0.00  0.00    +0.000 HD
ATOM     14  H   UNL     1       7.822   5.403  12.656  0.00  0.00    +0.000 HD
BRANCH  12  15
ATOM     15  O   UNL     1       6.715   3.752  12.236  0.00  0.00    +0.000 OA
ATOM     16  H   UNL     1       7.633   3.441  12.347  0.00  0.00    +0.000 HD
ENDBRANCH  12  15
ENDBRANCH   6  10
BRANCH   9  17
ATOM     17  O   UNL     1       5.674   5.318  19.723  0.00  0.00    +0.000 OA
ATOM     18  H   UNL     1       6.366   4.887  20.252  0.00  0.00    +0.000 HD
ENDBRANCH   9  17
ENDBRANCH   1   4
BRANCH   1  19
ATOM     19  N   UNL     1       2.468   4.382  18.168  0.00  0.00    +0.000 NA
ATOM     20  H   UNL     1       2.368   4.656  17.190  0.00  0.00    +0.000 HD
BRANCH  19  21
ATOM     21  C   UNL     1       2.266   5.420  19.192  0.00  0.00    +0.000 C 
BRANCH  21  22
ATOM     22  C   UNL     1       2.574   6.804  18.619  0.00  0.00    +0.000 C 
BRANCH  22  26
ATOM     23  C   UNL     1       0.639   9.881  20.975  0.00  0.00    +0.000 A 
ATOM     24  C   UNL     1       0.895  10.078  19.608  0.00  0.00    +0.000 A 
ATOM     25  C   UNL     1       1.505   9.082  18.843  0.00  0.00    +0.000 A 
ATOM     26  C   UNL     1       1.873   7.865  19.429  0.00  0.00    +0.000 A 
ATOM     27  C   UNL     1       1.641   7.671  20.794  0.00  0.00    +0.000 A 
ATOM     28  C   UNL     1       1.026   8.667  21.557  0.00  0.00    +0.000 A 
BRANCH  23  30
ATOM     29  C   UNL     1      -1.117  11.631  20.813  0.00  0.00    +0.000 C 
ATOM     30  C   UNL     1      -0.120  10.945  21.749  0.00  0.00    +0.000 C 
ATOM     31  C   UNL     1      -0.831  10.425  23.003  0.00  0.00    +0.000 C 
ENDBRANCH  23  30
ENDBRANCH  22  26
ENDBRANCH  21  22
ENDBRANCH  19  21
ENDBRANCH   1  19
TORSDOF 9
ENDMDL
MODEL 8
REMARK VINA RESULT:      -7.4      5.245      7.265
REMARK  Name = 
REMARK  11 active torsions:
REMARK  status: ('A' for Active; 'I' for Inactive)
REMARK    1  A    between atoms: C_1  and  C_2
REMARK    2  A    between atoms: C_2  and  C_3
REMARK    3  A    between atoms: C_2  and  C_4
REMARK    4  A    between atoms: C_7  and  C_8
REMARK    5  A    between atoms: C_8  and  C_9
REMARK    6  A    between atoms: C_9  and  N_10
REMARK    7  A    between atoms: N_10  and  S_11
REMARK    8  A    between atoms: S_11  and  C_14
REMARK    9  A    between atoms: C_16  and  C_17
REMARK   10  A    between atoms: N_19  and  O_20
REMARK   11  A    between atoms: C_23  and  O_24
REMARK                            x       y       z     vdW  Elec       q    Type
REMARK                         _______ _______ _______ _____ _____    ______ ____
ROOT
ATOM      1  S   UNL     1       6.829   5.174  16.967  0.00  0.00    +0.000 S 
ATOM      2  O   UNL     1       6.492   4.571  15.698  0.00  0.00    +0.000 OA
ATOM      3  O   UNL     1       7.836   4.624  17.849  0.00  0.00    +0.000 OA
ENDROOT
BRANCH   1   4
ATOM      4  C   UNL     1       5.324   5.396  17.875  0.00  0.00    +0.000 A 
ATOM      5  C   UNL     1       4.535   6.538  17.689  0.00  0.00    +0.000 A 
ATOM      6  C   UNL     1       3.389   6.723  18.470  0.00  0.00    +0.000 A 
ATOM      7  C   UNL     1       3.018   5.758  19.412  0.00  0.00    +0.000 A 
ATOM      8  C   UNL     1       3.797   4.610  19.583  0.00  0.00    +0.000 A 
ATOM      9  C   UNL     1       4.950   4.433  18.816  0.00  0.00    +0.000 A 
BRANCH   6  10
ATOM     10  C   UNL     1       2.589   7.975  18.334  0.00  0.00    +0.000 C 
ATOM     11  N   UNL     1       1.713   8.325  19.337  0.00  0.00    +0.000 N 
ATOM     12  N   UNL     1       2.751   8.701  17.264  0.00  0.00    +0.000 NA
ATOM     13  H   UNL     1       1.159   7.562  19.704  0.00  0.00    +0.000 HD
ATOM     14  H   UNL     1       1.131   9.097  19.018  0.00  0.00    +0.000 HD
BRANCH  12  15
ATOM     15  O   UNL     1       1.929   9.843  17.305  0.00  0.00    +0.000 OA
ATOM     16  H   UNL     1       2.290  10.379  16.575  0.00  0.00    +0.000 HD
ENDBRANCH  12  15
ENDBRANCH   6  10
BRANCH   9  17
ATOM     17  O   UNL     1       5.705   3.312  18.996  0.00  0.00    +0.000 OA
ATOM     18  H   UNL     1       6.421   3.487  19.630  0.00  0.00    +0.000 HD
ENDBRANCH   9  17
ENDBRANCH   1   4
BRANCH   1  19
ATOM     19  N   UNL     1       7.339   6.744  16.573  0.00  0.00    +0.000 NA
ATOM     20  H   UNL     1       7.883   6.715  15.710  0.00  0.00    +0.000 HD
BRANCH  19  21
ATOM     21  C   UNL     1       7.863   7.557  17.683  0.00  0.00    +0.000 C 
BRANCH  21  22
ATOM     22  C   UNL     1       7.346   8.992  17.588  0.00  0.00    +0.000 C 
BRANCH  22  26
ATOM     23  C   UNL     1      10.269  11.676  19.325  0.00  0.00    +0.000 A 
ATOM     24  C   UNL     1       9.546  12.046  18.180  0.00  0.00    +0.000 A 
ATOM     25  C   UNL     1       8.593  11.189  17.626  0.00  0.00    +0.000 A 
ATOM     26  C   UNL     1       8.341   9.941  18.207  0.00  0.00    +0.000 A 
ATOM     27  C   UNL     1       9.072   9.557  19.335  0.00  0.00    +0.000 A 
ATOM     28  C   UNL     1      10.022  10.418  19.891  0.00  0.00    +0.000 A 
BRANCH  23  30
ATOM     29  C   UNL     1      12.114  13.276  18.871  0.00  0.00    +0.000 C 
ATOM     30  C   UNL     1      11.221  12.676  19.959  0.00  0.00    +0.000 C 
ATOM     31  C   UNL     1      10.529  13.785  20.758  0.00  0.00    +0.000 C 
ENDBRANCH  23  30
ENDBRANCH  22  26
ENDBRANCH  21  22
ENDBRANCH  19  21
ENDBRANCH   1  19
TORSDOF 9
ENDMDL
MODEL 9
REMARK VINA RESULT:      -7.4      5.294      7.409
REMARK  Name = 
REMARK  11 active torsions:
REMARK  status: ('A' for Active; 'I' for Inactive)
REMARK    1  A    between atoms: C_1  and  C_2
REMARK    2  A    between atoms: C_2  and  C_3
REMARK    3  A    between atoms: C_2  and  C_4
REMARK    4  A    between atoms: C_7  and  C_8
REMARK    5  A    between atoms: C_8  and  C_9
REMARK    6  A    between atoms: C_9  and  N_10
REMARK    7  A    between atoms: N_10  and  S_11
REMARK    8  A    between atoms: S_11  and  C_14
REMARK    9  A    between atoms: C_16  and  C_17
REMARK   10  A    between atoms: N_19  and  O_20
REMARK   11  A    between atoms: C_23  and  O_24
REMARK                            x       y       z     vdW  Elec       q    Type
REMARK                         _______ _______ _______ _____ _____    ______ ____
ROOT
ATOM      1  S   UNL     1       7.051   5.234  18.601  0.00  0.00    +0.000 S 
ATOM      2  O   UNL     1       8.014   4.626  17.712  0.00  0.00    +0.000 OA
ATOM      3  O   UNL     1       7.218   5.250  20.038  0.00  0.00    +0.000 OA
ENDROOT
BRANCH   1   4
ATOM      4  C   UNL     1       5.458   4.564  18.211  0.00  0.00    +0.000 A 
ATOM      5  C   UNL     1       4.657   3.992  19.206  0.00  0.00    +0.000 A 
ATOM      6  C   UNL     1       3.435   3.405  18.861  0.00  0.00    +0.000 A 
ATOM      7  C   UNL     1       3.004   3.415  17.529  0.00  0.00    +0.000 A 
ATOM      8  C   UNL     1       3.797   4.003  16.541  0.00  0.00    +0.000 A 
ATOM      9  C   UNL     1       5.024   4.573  16.882  0.00  0.00    +0.000 A 
BRANCH   6  10
ATOM     10  C   UNL     1       2.614   2.722  19.903  0.00  0.00    +0.000 C 
ATOM     11  N   UNL     1       1.759   1.710  19.529  0.00  0.00    +0.000 N 
ATOM     12  N   UNL     1       2.739   3.109  21.141  0.00  0.00    +0.000 NA
ATOM     13  H   UNL     1       1.225   1.892  18.688  0.00  0.00    +0.000 HD
ATOM     14  H   UNL     1       1.158   1.473  20.315  0.00  0.00    +0.000 HD
BRANCH  12  15
ATOM     15  O   UNL     1       1.903   2.356  21.986  0.00  0.00    +0.000 OA
ATOM     16  H   UNL     1       1.839   2.930  22.773  0.00  0.00    +0.000 HD
ENDBRANCH  12  15
ENDBRANCH   6  10
BRANCH   9  17
ATOM     17  O   UNL     1       5.792   5.138  15.908  0.00  0.00    +0.000 OA
ATOM     18  H   UNL     1       6.732   4.955  16.071  0.00  0.00    +0.000 HD
ENDBRANCH   9  17
ENDBRANCH   1   4
BRANCH   1  19
ATOM     19  N   UNL     1       6.977   6.857  18.106  0.00  0.00    +0.000 NA
ATOM     20  H   UNL     1       6.595   6.905  17.161  0.00  0.00    +0.000 HD
BRANCH  19  21
ATOM     21  C   UNL     1       8.158   7.683  18.407  0.00  0.00    +0.000 C 
BRANCH  21  22
ATOM     22  C   UNL     1       8.230   8.880  17.458  0.00  0.00    +0.000 C 
BRANCH  22  26
ATOM     23  C   UNL     1       9.457  12.417  19.637  0.00  0.00    +0.000 A 
ATOM     24  C   UNL     1       9.583  11.142  20.209  0.00  0.00    +0.000 A 
ATOM     25  C   UNL     1       9.202   9.998  19.504  0.00  0.00    +0.000 A 
ATOM     26  C   UNL     1       8.687  10.106  18.207  0.00  0.00    +0.000 A 
ATOM     27  C   UNL     1       8.537  11.375  17.639  0.00  0.00    +0.000 A 
ATOM     28  C   UNL     1       8.924  12.517  18.345  0.00  0.00    +0.000 A 
BRANCH  23  30
ATOM     29  C   UNL     1       9.623  13.483  21.874  0.00  0.00    +0.000 C 
ATOM     30  C   UNL     1       9.978  13.627  20.393  0.00  0.00    +0.000 C 
ATOM     31  C   UNL     1      11.480  13.876  20.223  0.00  0.00    +0.000 C 
ENDBRANCH  23  30
ENDBRANCH  22  26
ENDBRANCH  21  22
ENDBRANCH  19  21
ENDBRANCH   1  19
TORSDOF 9
ENDMDL
