MODEL 1
REMARK VINA RESULT:      -8.5      0.000      0.000
REMARK  Name = 
REMARK  12 active torsions:
REMARK  status: ('A' for Active; 'I' for Inactive)
REMARK    1  A    between atoms: C_1  and  C_2
REMARK    2  A    between atoms: C_2  and  C_3
REMARK    3  A    between atoms: C_2  and  C_21
REMARK    4  A    between atoms: C_2  and  S_25
REMARK    5  A    between atoms: C_3  and  C_4
REMARK    6  A    between atoms: C_4  and  C_5
REMARK    7  A    between atoms: C_8  and  C_9
REMARK    8  A    between atoms: C_12  and  C_13
REMARK    9  A    between atoms: C_13  and  C_15
REMARK   10  A    between atoms: C_15  and  O_16
REMARK   11  A    between atoms: N_23  and  O_24
REMARK   12  A    between atoms: S_25  and  C_26
REMARK                            x       y       z     vdW  Elec       q    Type
REMARK                         _______ _______ _______ _____ _____    ______ ____
ROOT
ATOM      1  C   UNL     1       2.701   7.264  18.248  0.00  0.00    +0.000 A 
ATOM      2  C   UNL     1       2.253   8.492  17.753  0.00  0.00    +0.000 A 
ATOM      3  C   UNL     1       1.546   9.372  18.573  0.00  0.00    +0.000 A 
ATOM      4  C   UNL     1       1.231   9.043  19.902  0.00  0.00    +0.000 A 
ATOM      5  C   UNL     1       1.679   7.799  20.378  0.00  0.00    +0.000 A 
ATOM      6  C   UNL     1       2.411   6.925  19.570  0.00  0.00    +0.000 A 
ENDROOT
BRANCH   4   7
ATOM      7  C   UNL     1       0.438   9.955  20.759  0.00  0.00    +0.000 A 
ATOM      8  C   UNL     1       0.082  11.243  20.318  0.00  0.00    +0.000 A 
ATOM      9  C   UNL     1      -0.682  12.104  21.113  0.00  0.00    +0.000 A 
ATOM     10  C   UNL     1      -1.120  11.686  22.368  0.00  0.00    +0.000 A 
ATOM     11  C   UNL     1      -0.792  10.408  22.825  0.00  0.00    +0.000 A 
ATOM     12  C   UNL     1      -0.008   9.562  22.035  0.00  0.00    +0.000 A 
BRANCH  10  13
ATOM     13  C   UNL     1      -1.925  12.572  23.250  0.00  0.00    +0.000 C 
ATOM     14  O   UNL     1      -1.541  13.713  23.505  0.00  0.00    +0.000 OA
BRANCH  13  15
ATOM     15  C   UNL     1      -3.236  12.032  23.804  0.00  0.00    +0.000 C 
BRANCH  15  16
ATOM     16  O   UNL     1      -4.342  12.530  23.067  0.00  0.00    +0.000 OA
ATOM     17  H   UNL     1      -4.623  13.349  23.524  0.00  0.00    +0.000 HD
ENDBRANCH  15  16
ENDBRANCH  13  15
ENDBRANCH  10  13
ENDBRANCH   4   7
BRANCH   1  18
ATOM     18  C   UNL     1       3.456   6.306  17.364  0.00  0.00    +0.000 C 
BRANCH  18  19
ATOM     19  C   UNL     1       4.974   6.459  17.519  0.00  0.00    +0.000 C 
BRANCH  19  21
ATOM     20  C   UNL     1       4.810   3.936  17.328  0.00  0.00    +0.000 C 
ATOM     21  C   UNL     1       5.734   5.120  17.663  0.00  0.00    +0.000 C 
BRANCH  21  22
ATOM     22  C   UNL     1       6.309   4.972  19.067  0.00  0.00    +0.000 C 
ATOM     23  O   UNL     1       5.746   4.325  19.952  0.00  0.00    +0.000 OA
ATOM     24  N   UNL     1       7.483   5.642  19.330  0.00  0.00    +0.000 N 
ATOM     25  H   UNL     1       8.175   5.824  18.596  0.00  0.00    +0.000 HD
BRANCH  24  26
ATOM     26  O   UNL     1       8.004   5.454  20.633  0.00  0.00    +0.000 OA
ATOM     27  H   UNL     1       8.961   5.641  20.517  0.00  0.00    +0.000 HD
ENDBRANCH  24  26
ENDBRANCH  21  22
BRANCH  21  28
ATOM     28  S   UNL     1       7.137   5.138  16.511  0.00  0.00    +0.000 S 
ATOM     29  C   UNL     1       6.519   4.551  14.949  0.00  0.00    +0.000 C 
ATOM     30  O   UNL     1       7.543   6.517  16.321  0.00  0.00    +0.000 OA
ATOM     31  O   UNL     1       8.103   4.161  16.988  0.00  0.00    +0.000 OA
ENDBRANCH  21  28
ENDBRANCH  19  21
ENDBRANCH  18  19
ENDBRANCH   1  18
TORSDOF 10
ENDMDL
MODEL 2
REMARK VINA RESULT:      -8.4      1.389      2.066
REMARK  Name = 
REMARK  12 active torsions:
REMARK  status: ('A' for Active; 'I' for Inactive)
REMARK    1  A    between atoms: C_1  and  C_2
REMARK    2  A    between atoms: C_2  and  C_3
REMARK    3  A    between atoms: C_2  and  C_21
REMARK    4  A    between atoms: C_2  and  S_25
REMARK    5  A    between atoms: C_3  and  C_4
REMARK    6  A    between atoms: C_4  and  C_5
REMARK    7  A    between atoms: C_8  and  C_9
REMARK    8  A    between atoms: C_12  and  C_13
REMARK    9  A    between atoms: C_13  and  C_15
REMARK   10  A    between atoms: C_15  and  O_16
REMARK   11  A    between atoms: N_23  and  O_24
REMARK   12  A    between atoms: S_25  and  C_26
REMARK                            x       y       z     vdW  Elec       q    Type
REMARK                         _______ _______ _______ _____ _____    ______ ____
ROOT
ATOM      1  C   UNL     1       2.389   7.527  18.626  0.00  0.00    +0.000 A 
ATOM      2  C   UNL     1       2.187   7.293  19.989  0.00  0.00    +0.000 A 
ATOM      3  C   UNL     1       1.378   8.146  20.743  0.00  0.00    +0.000 A 
ATOM      4  C   UNL     1       0.775   9.279  20.172  0.00  0.00    +0.000 A 
ATOM      5  C   UNL     1       1.001   9.504  18.803  0.00  0.00    +0.000 A 
ATOM      6  C   UNL     1       1.786   8.638  18.037  0.00  0.00    +0.000 A 
ENDROOT
BRANCH   4   7
ATOM      7  C   UNL     1      -0.043  10.212  20.981  0.00  0.00    +0.000 A 
ATOM      8  C   UNL     1      -0.557  11.399  20.425  0.00  0.00    +0.000 A 
ATOM      9  C   UNL     1      -1.345  12.277  21.175  0.00  0.00    +0.000 A 
ATOM     10  C   UNL     1      -1.649  11.978  22.501  0.00  0.00    +0.000 A 
ATOM     11  C   UNL     1      -1.163  10.800  23.074  0.00  0.00    +0.000 A 
ATOM     12  C   UNL     1      -0.356   9.939  22.325  0.00  0.00    +0.000 A 
BRANCH  10  13
ATOM     13  C   UNL     1      -2.475  12.887  23.339  0.00  0.00    +0.000 C 
ATOM     14  O   UNL     1      -1.948  13.805  23.968  0.00  0.00    +0.000 OA
BRANCH  13  15
ATOM     15  C   UNL     1      -3.979  12.662  23.374  0.00  0.00    +0.000 C 
BRANCH  15  16
ATOM     16  O   UNL     1      -4.377  12.070  24.602  0.00  0.00    +0.000 OA
ATOM     17  H   UNL     1      -3.897  12.557  25.302  0.00  0.00    +0.000 HD
ENDBRANCH  15  16
ENDBRANCH  13  15
ENDBRANCH  10  13
ENDBRANCH   4   7
BRANCH   1  18
ATOM     18  C   UNL     1       3.268   6.615  17.811  0.00  0.00    +0.000 C 
BRANCH  18  19
ATOM     19  C   UNL     1       4.511   6.168  18.592  0.00  0.00    +0.000 C 
BRANCH  19  21
ATOM     20  C   UNL     1       5.363   5.441  16.317  0.00  0.00    +0.000 C 
ATOM     21  C   UNL     1       5.411   5.167  17.831  0.00  0.00    +0.000 C 
BRANCH  21  22
ATOM     22  C   UNL     1       4.998   3.731  18.131  0.00  0.00    +0.000 C 
ATOM     23  O   UNL     1       4.344   3.048  17.340  0.00  0.00    +0.000 OA
ATOM     24  N   UNL     1       5.350   3.229  19.364  0.00  0.00    +0.000 N 
ATOM     25  H   UNL     1       6.190   3.549  19.856  0.00  0.00    +0.000 HD
BRANCH  24  26
ATOM     26  O   UNL     1       4.978   1.882  19.593  0.00  0.00    +0.000 OA
ATOM     27  H   UNL     1       4.057   1.961  19.925  0.00  0.00    +0.000 HD
ENDBRANCH  24  26
ENDBRANCH  21  22
BRANCH  21  28
ATOM     28  S   UNL     1       7.113   5.369  18.429  0.00  0.00    +0.000 S 
ATOM     29  C   UNL     1       7.654   6.975  17.890  0.00  0.00    +0.000 C 
ATOM     30  O   UNL     1       7.078   5.393  19.879  0.00  0.00    +0.000 OA
ATOM     31  O   UNL     1       7.934   4.384  17.744  0.00  0.00    +0.000 OA
ENDBRANCH  21  28
ENDBRANCH  19  21
ENDBRANCH  18  19
ENDBRANCH   1  18
TORSDOF 10
ENDMDL
MODEL 3
REMARK VINA RESULT:      -8.2      1.584      2.051
REMARK  Name = 
REMARK  12 active torsions:
REMARK  status: ('A' for Active; 'I' for Inactive)
REMARK    1  A    between atoms: C_1  and  C_2
REMARK    2  A    between atoms: C_2  and  C_3
REMARK    3  A    between atoms: C_2  and  C_21
REMARK    4  A    between atoms: C_2  and  S_25
REMARK    5  A    between atoms: C_3  and  C_4
REMARK    6  A    between atoms: C_4  and  C_5
REMARK    7  A    between atoms: C_8  and  C_9
REMARK    8  A    between atoms: C_12  and  C_13
REMARK    9  A    between atoms: C_13  and  C_15
REMARK   10  A    between atoms: C_15  and  O_16
REMARK   11  A    between atoms: N_23  and  O_24
REMARK   12  A    between atoms: S_25  and  C_26
REMARK                            x       y       z     vdW  Elec       q    Type
REMARK                         _______ _______ _______ _____ _____    ______ ____
ROOT
ATOM      1  C   UNL     1       2.438   7.827  18.684  0.00  0.00    +0.000 A 
ATOM      2  C   UNL     1       1.923   9.006  18.140  0.00  0.00    +0.000 A 
ATOM      3  C   UNL     1       1.094   9.834  18.899  0.00  0.00    +0.000 A 
ATOM      4  C   UNL     1       0.722   9.496  20.211  0.00  0.00    +0.000 A 
ATOM      5  C   UNL     1       1.240   8.299  20.735  0.00  0.00    +0.000 A 
ATOM      6  C   UNL     1       2.093   7.480  19.990  0.00  0.00    +0.000 A 
ENDROOT
BRANCH   4   7
ATOM      7  C   UNL     1      -0.198  10.348  21.000  0.00  0.00    +0.000 A 
ATOM      8  C   UNL     1      -0.924  11.391  20.395  0.00  0.00    +0.000 A 
ATOM      9  C   UNL     1      -1.808  12.189  21.128  0.00  0.00    +0.000 A 
ATOM     10  C   UNL     1      -1.996  11.950  22.487  0.00  0.00    +0.000 A 
ATOM     11  C   UNL     1      -1.298  10.913  23.111  0.00  0.00    +0.000 A 
ATOM     12  C   UNL     1      -0.398  10.135  22.377  0.00  0.00    +0.000 A 
BRANCH  10  13
ATOM     13  C   UNL     1      -2.917  12.780  23.307  0.00  0.00    +0.000 C 
ATOM     14  O   UNL     1      -3.577  12.270  24.213  0.00  0.00    +0.000 OA
BRANCH  13  15
ATOM     15  C   UNL     1      -3.001  14.269  23.006  0.00  0.00    +0.000 C 
BRANCH  15  16
ATOM     16  O   UNL     1      -3.882  14.922  23.908  0.00  0.00    +0.000 OA
ATOM     17  H   UNL     1      -4.659  14.332  23.998  0.00  0.00    +0.000 HD
ENDBRANCH  15  16
ENDBRANCH  13  15
ENDBRANCH  10  13
ENDBRANCH   4   7
BRANCH   1  18
ATOM     18  C   UNL     1       3.325   6.925  17.866  0.00  0.00    +0.000 C 
BRANCH  18  19
ATOM     19  C   UNL     1       4.127   5.958  18.747  0.00  0.00    +0.000 C 
BRANCH  19  21
ATOM     20  C   UNL     1       4.880   5.214  16.443  0.00  0.00    +0.000 C 
ATOM     21  C   UNL     1       5.038   4.989  17.957  0.00  0.00    +0.000 C 
BRANCH  21  22
ATOM     22  C   UNL     1       4.732   3.541  18.321  0.00  0.00    +0.000 C 
ATOM     23  O   UNL     1       3.971   2.835  17.657  0.00  0.00    +0.000 OA
ATOM     24  N   UNL     1       5.315   3.054  19.470  0.00  0.00    +0.000 N 
ATOM     25  H   UNL     1       6.218   3.403  19.806  0.00  0.00    +0.000 HD
BRANCH  24  26
ATOM     26  O   UNL     1       5.035   1.697  19.757  0.00  0.00    +0.000 OA
ATOM     27  H   UNL     1       5.538   1.538  20.586  0.00  0.00    +0.000 HD
ENDBRANCH  24  26
ENDBRANCH  21  22
BRANCH  21  28
ATOM     28  S   UNL     1       6.759   5.309  18.440  0.00  0.00    +0.000 S 
ATOM     29  C   UNL     1       7.221   6.850  17.681  0.00  0.00    +0.000 C 
ATOM     30  O   UNL     1       6.790   5.513  19.876  0.00  0.00    +0.000 OA
ATOM     31  O   UNL     1       7.578   4.269  17.842  0.00  0.00    +0.000 OA
ENDBRANCH  21  28
ENDBRANCH  19  21
ENDBRANCH  18  19
ENDBRANCH   1  18
TORSDOF 10
ENDMDL
MODEL 4
REMARK VINA RESULT:      -8.1      1.304      2.213
REMARK  Name = 
REMARK  12 active torsions:
REMARK  status: ('A' for Active; 'I' for Inactive)
REMARK    1  A    between atoms: C_1  and  C_2
REMARK    2  A    between atoms: C_2  and  C_3
REMARK    3  A    between atoms: C_2  and  C_21
REMARK    4  A    between atoms: C_2  and  S_25
REMARK    5  A    between atoms: C_3  and  C_4
REMARK    6  A    between atoms: C_4  and  C_5
REMARK    7  A    between atoms: C_8  and  C_9
REMARK    8  A    between atoms: C_12  and  C_13
REMARK    9  A    between atoms: C_13  and  C_15
REMARK   10  A    between atoms: C_15  and  O_16
REMARK   11  A    between atoms: N_23  and  O_24
REMARK   12  A    between atoms: S_25  and  C_26
REMARK                            x       y       z     vdW  Elec       q    Type
REMARK                         _______ _______ _______ _____ _____    ______ ____
ROOT
ATOM      1  C   UNL     1       2.483   6.912  18.760  0.00  0.00    +0.000 A 
ATOM      2  C   UNL     1       2.115   6.652  20.083  0.00  0.00    +0.000 A 
ATOM      3  C   UNL     1       1.406   7.601  20.821  0.00  0.00    +0.000 A 
ATOM      4  C   UNL     1       1.071   8.852  20.277  0.00  0.00    +0.000 A 
ATOM      5  C   UNL     1       1.461   9.099  18.950  0.00  0.00    +0.000 A 
ATOM      6  C   UNL     1       2.147   8.143  18.197  0.00  0.00    +0.000 A 
ENDROOT
BRANCH   4   7
ATOM      7  C   UNL     1       0.362   9.880  21.075  0.00  0.00    +0.000 A 
ATOM      8  C   UNL     1      -0.276   9.549  22.285  0.00  0.00    +0.000 A 
ATOM      9  C   UNL     1      -0.933  10.515  23.054  0.00  0.00    +0.000 A 
ATOM     10  C   UNL     1      -0.953  11.843  22.633  0.00  0.00    +0.000 A 
ATOM     11  C   UNL     1      -0.317  12.201  21.442  0.00  0.00    +0.000 A 
ATOM     12  C   UNL     1       0.317  11.226  20.666  0.00  0.00    +0.000 A 
BRANCH  10  13
ATOM     13  C   UNL     1      -1.648  12.901  23.413  0.00  0.00    +0.000 C 
ATOM     14  O   UNL     1      -1.044  13.914  23.765  0.00  0.00    +0.000 OA
BRANCH  13  15
ATOM     15  C   UNL     1      -3.120  12.700  23.740  0.00  0.00    +0.000 C 
BRANCH  15  16
ATOM     16  O   UNL     1      -3.854  12.335  22.580  0.00  0.00    +0.000 OA
ATOM     17  H   UNL     1      -4.598  11.782  22.896  0.00  0.00    +0.000 HD
ENDBRANCH  15  16
ENDBRANCH  13  15
ENDBRANCH  10  13
ENDBRANCH   4   7
BRANCH   1  18
ATOM     18  C   UNL     1       3.258   5.895  17.963  0.00  0.00    +0.000 C 
BRANCH  18  19
ATOM     19  C   UNL     1       4.714   6.326  17.745  0.00  0.00    +0.000 C 
BRANCH  19  21
ATOM     20  C   UNL     1       6.020   5.122  15.936  0.00  0.00    +0.000 C 
ATOM     21  C   UNL     1       5.680   5.158  17.436  0.00  0.00    +0.000 C 
BRANCH  21  22
ATOM     22  C   UNL     1       5.084   3.829  17.885  0.00  0.00    +0.000 C 
ATOM     23  O   UNL     1       4.321   3.169  17.176  0.00  0.00    +0.000 OA
ATOM     24  N   UNL     1       5.400   3.405  19.157  0.00  0.00    +0.000 N 
ATOM     25  H   UNL     1       6.290   3.652  19.601  0.00  0.00    +0.000 HD
BRANCH  24  26
ATOM     26  O   UNL     1       4.856   2.152  19.525  0.00  0.00    +0.000 OA
ATOM     27  H   UNL     1       3.892   2.281  19.390  0.00  0.00    +0.000 HD
ENDBRANCH  24  26
ENDBRANCH  21  22
BRANCH  21  28
ATOM     28  S   UNL     1       7.200   5.413  18.396  0.00  0.00    +0.000 S 
ATOM     29  C   UNL     1       7.834   7.008  17.929  0.00  0.00    +0.000 C 
ATOM     30  O   UNL     1       6.837   5.489  19.798  0.00  0.00    +0.000 OA
ATOM     31  O   UNL     1       8.164   4.418  17.954  0.00  0.00    +0.000 OA
ENDBRANCH  21  28
ENDBRANCH  19  21
ENDBRANCH  18  19
ENDBRANCH   1  18
TORSDOF 10
ENDMDL
MODEL 5
REMARK VINA RESULT:      -8.0      1.011      1.681
REMARK  Name = 
REMARK  12 active torsions:
REMARK  status: ('A' for Active; 'I' for Inactive)
REMARK    1  A    between atoms: C_1  and  C_2
REMARK    2  A    between atoms: C_2  and  C_3
REMARK    3  A    between atoms: C_2  and  C_21
REMARK    4  A    between atoms: C_2  and  S_25
REMARK    5  A    between atoms: C_3  and  C_4
REMARK    6  A    between atoms: C_4  and  C_5
REMARK    7  A    between atoms: C_8  and  C_9
REMARK    8  A    between atoms: C_12  and  C_13
REMARK    9  A    between atoms: C_13  and  C_15
REMARK   10  A    between atoms: C_15  and  O_16
REMARK   11  A    between atoms: N_23  and  O_24
REMARK   12  A    between atoms: S_25  and  C_26
REMARK                            x       y       z     vdW  Elec       q    Type
REMARK                         _______ _______ _______ _____ _____    ______ ____
ROOT
ATOM      1  C   UNL     1       2.596   7.284  18.486  0.00  0.00    +0.000 A 
ATOM      2  C   UNL     1       2.047   8.443  17.931  0.00  0.00    +0.000 A 
ATOM      3  C   UNL     1       1.285   9.312  18.714  0.00  0.00    +0.000 A 
ATOM      4  C   UNL     1       1.015   9.036  20.065  0.00  0.00    +0.000 A 
ATOM      5  C   UNL     1       1.565   7.858  20.601  0.00  0.00    +0.000 A 
ATOM      6  C   UNL     1       2.352   6.999  19.829  0.00  0.00    +0.000 A 
ENDROOT
BRANCH   4   7
ATOM      7  C   UNL     1       0.165   9.931  20.884  0.00  0.00    +0.000 A 
ATOM      8  C   UNL     1      -0.089   9.652  22.240  0.00  0.00    +0.000 A 
ATOM      9  C   UNL     1      -0.875  10.501  23.027  0.00  0.00    +0.000 A 
ATOM     10  C   UNL     1      -1.415  11.660  22.473  0.00  0.00    +0.000 A 
ATOM     11  C   UNL     1      -1.167  11.967  21.133  0.00  0.00    +0.000 A 
ATOM     12  C   UNL     1      -0.401  11.102  20.347  0.00  0.00    +0.000 A 
BRANCH  10  13
ATOM     13  C   UNL     1      -2.264  12.585  23.269  0.00  0.00    +0.000 C 
ATOM     14  O   UNL     1      -3.205  12.151  23.933  0.00  0.00    +0.000 OA
BRANCH  13  15
ATOM     15  C   UNL     1      -1.920  14.067  23.253  0.00  0.00    +0.000 C 
BRANCH  15  16
ATOM     16  O   UNL     1      -0.777  14.333  24.051  0.00  0.00    +0.000 OA
ATOM     17  H   UNL     1      -0.799  15.293  24.241  0.00  0.00    +0.000 HD
ENDBRANCH  15  16
ENDBRANCH  13  15
ENDBRANCH  10  13
ENDBRANCH   4   7
BRANCH   1  18
ATOM     18  C   UNL     1       3.411   6.338  17.643  0.00  0.00    +0.000 C 
BRANCH  18  19
ATOM     19  C   UNL     1       4.891   6.740  17.599  0.00  0.00    +0.000 C 
BRANCH  19  21
ATOM     20  C   UNL     1       5.185   4.334  18.345  0.00  0.00    +0.000 C 
ATOM     21  C   UNL     1       5.873   5.549  17.699  0.00  0.00    +0.000 C 
BRANCH  21  22
ATOM     22  C   UNL     1       7.121   5.941  18.484  0.00  0.00    +0.000 C 
ATOM     23  O   UNL     1       7.750   6.976  18.257  0.00  0.00    +0.000 OA
ATOM     24  N   UNL     1       7.554   5.054  19.444  0.00  0.00    +0.000 N 
ATOM     25  H   UNL     1       6.902   4.443  19.945  0.00  0.00    +0.000 HD
BRANCH  24  26
ATOM     26  O   UNL     1       8.694   5.467  20.173  0.00  0.00    +0.000 OA
ATOM     27  H   UNL     1       9.031   4.625  20.551  0.00  0.00    +0.000 HD
ENDBRANCH  24  26
ENDBRANCH  21  22
BRANCH  21  28
ATOM     28  S   UNL     1       6.412   5.118  16.020  0.00  0.00    +0.000 S 
ATOM     29  C   UNL     1       5.472   3.688  15.537  0.00  0.00    +0.000 C 
ATOM     30  O   UNL     1       6.031   6.202  15.135  0.00  0.00    +0.000 OA
ATOM     31  O   UNL     1       7.806   4.711  16.103  0.00  0.00    +0.000 OA
ENDBRANCH  21  28
ENDBRANCH  19  21
ENDBRANCH  18  19
ENDBRANCH   1  18
TORSDOF 10
ENDMDL
MODEL 6
REMARK VINA RESULT:      -7.9      1.290      1.820
REMARK  Name = 
REMARK  12 active torsions:
REMARK  status: ('A' for Active; 'I' for Inactive)
REMARK    1  A    between atoms: C_1  and  C_2
REMARK    2  A    between atoms: C_2  and  C_3
REMARK    3  A    between atoms: C_2  and  C_21
REMARK    4  A    between atoms: C_2  and  S_25
REMARK    5  A    between atoms: C_3  and  C_4
REMARK    6  A    between atoms: C_4  and  C_5
REMARK    7  A    between atoms: C_8  and  C_9
REMARK    8  A    between atoms: C_12  and  C_13
REMARK    9  A    between atoms: C_13  and  C_15
REMARK   10  A    between atoms: C_15  and  O_16
REMARK   11  A    between atoms: N_23  and  O_24
REMARK   12  A    between atoms: S_25  and  C_26
REMARK                            x       y       z     vdW  Elec       q    Type
REMARK                         _______ _______ _______ _____ _____    ______ ____
ROOT
ATOM      1  C   UNL     1       2.507   7.970  18.330  0.00  0.00    +0.000 A 
ATOM      2  C   UNL     1       1.898   9.130  17.845  0.00  0.00    +0.000 A 
ATOM      3  C   UNL     1       1.080   9.901  18.673  0.00  0.00    +0.000 A 
ATOM      4  C   UNL     1       0.813   9.522  19.999  0.00  0.00    +0.000 A 
ATOM      5  C   UNL     1       1.425   8.345  20.464  0.00  0.00    +0.000 A 
ATOM      6  C   UNL     1       2.267   7.585  19.649  0.00  0.00    +0.000 A 
ENDROOT
BRANCH   4   7
ATOM      7  C   UNL     1      -0.093  10.312  20.864  0.00  0.00    +0.000 A 
ATOM      8  C   UNL     1      -0.841  11.387  20.346  0.00  0.00    +0.000 A 
ATOM      9  C   UNL     1      -1.713  12.127  21.150  0.00  0.00    +0.000 A 
ATOM     10  C   UNL     1      -1.868  11.796  22.495  0.00  0.00    +0.000 A 
ATOM     11  C   UNL     1      -1.148  10.726  23.032  0.00  0.00    +0.000 A 
ATOM     12  C   UNL     1      -0.260  10.006  22.227  0.00  0.00    +0.000 A 
BRANCH  10  13
ATOM     13  C   UNL     1      -2.776  12.562  23.389  0.00  0.00    +0.000 C 
ATOM     14  O   UNL     1      -3.628  11.979  24.059  0.00  0.00    +0.000 OA
BRANCH  13  15
ATOM     15  C   UNL     1      -2.604  14.072  23.463  0.00  0.00    +0.000 C 
BRANCH  15  16
ATOM     16  O   UNL     1      -2.629  14.522  24.809  0.00  0.00    +0.000 OA
ATOM     17  H   UNL     1      -2.130  13.855  25.324  0.00  0.00    +0.000 HD
ENDBRANCH  15  16
ENDBRANCH  13  15
ENDBRANCH  10  13
ENDBRANCH   4   7
BRANCH   1  18
ATOM     18  C   UNL     1       3.382   7.129  17.438  0.00  0.00    +0.000 C 
BRANCH  18  19
ATOM     19  C   UNL     1       4.658   6.669  18.155  0.00  0.00    +0.000 C 
BRANCH  19  21
ATOM     20  C   UNL     1       4.229   4.663  16.664  0.00  0.00    +0.000 C 
ATOM     21  C   UNL     1       5.204   5.308  17.665  0.00  0.00    +0.000 C 
BRANCH  21  22
ATOM     22  C   UNL     1       5.463   4.373  18.842  0.00  0.00    +0.000 C 
ATOM     23  O   UNL     1       6.061   4.733  19.857  0.00  0.00    +0.000 OA
ATOM     24  N   UNL     1       5.035   3.071  18.706  0.00  0.00    +0.000 N 
ATOM     25  H   UNL     1       4.221   2.829  18.132  0.00  0.00    +0.000 HD
BRANCH  24  26
ATOM     26  O   UNL     1       5.263   2.243  19.830  0.00  0.00    +0.000 OA
ATOM     27  H   UNL     1       6.243   2.210  19.886  0.00  0.00    +0.000 HD
ENDBRANCH  24  26
ENDBRANCH  21  22
BRANCH  21  28
ATOM     28  S   UNL     1       6.801   5.598  16.853  0.00  0.00    +0.000 S 
ATOM     29  C   UNL     1       7.514   7.029  17.632  0.00  0.00    +0.000 C 
ATOM     30  O   UNL     1       7.666   4.472  17.150  0.00  0.00    +0.000 OA
ATOM     31  O   UNL     1       6.527   5.950  15.469  0.00  0.00    +0.000 OA
ENDBRANCH  21  28
ENDBRANCH  19  21
ENDBRANCH  18  19
ENDBRANCH   1  18
TORSDOF 10
ENDMDL
MODEL 7
REMARK VINA RESULT:      -7.9      2.259      2.913
REMARK  Name = 
REMARK  12 active torsions:
REMARK  status: ('A' for Active; 'I' for Inactive)
REMARK    1  A    between atoms: C_1  and  C_2
REMARK    2  A    between atoms: C_2  and  C_3
REMARK    3  A    between atoms: C_2  and  C_21
REMARK    4  A    between atoms: C_2  and  S_25
REMARK    5  A    between atoms: C_3  and  C_4
REMARK    6  A    between atoms: C_4  and  C_5
REMARK    7  A    between atoms: C_8  and  C_9
REMARK    8  A    between atoms: C_12  and  C_13
REMARK    9  A    between atoms: C_13  and  C_15
REMARK   10  A    between atoms: C_15  and  O_16
REMARK   11  A    between atoms: N_23  and  O_24
REMARK   12  A    between atoms: S_25  and  C_26
REMARK                            x       y       z     vdW  Elec       q    Type
REMARK                         _______ _______ _______ _____ _____    ______ ____
ROOT
ATOM      1  C   UNL     1       2.362   7.647  18.981  0.00  0.00    +0.000 A 
ATOM      2  C   UNL     1       1.865   8.775  18.324  0.00  0.00    +0.000 A 
ATOM      3  C   UNL     1       1.042   9.682  18.994  0.00  0.00    +0.000 A 
ATOM      4  C   UNL     1       0.657   9.475  20.329  0.00  0.00    +0.000 A 
ATOM      5  C   UNL     1       1.157   8.327  20.969  0.00  0.00    +0.000 A 
ATOM      6  C   UNL     1       2.004   7.431  20.312  0.00  0.00    +0.000 A 
ENDROOT
BRANCH   4   7
ATOM      7  C   UNL     1      -0.256  10.409  21.027  0.00  0.00    +0.000 A 
ATOM      8  C   UNL     1      -1.008  11.361  20.313  0.00  0.00    +0.000 A 
ATOM      9  C   UNL     1      -1.886  12.235  20.961  0.00  0.00    +0.000 A 
ATOM     10  C   UNL     1      -2.043  12.165  22.344  0.00  0.00    +0.000 A 
ATOM     11  C   UNL     1      -1.319  11.221  23.075  0.00  0.00    +0.000 A 
ATOM     12  C   UNL     1      -0.425  10.366  22.423  0.00  0.00    +0.000 A 
BRANCH  10  13
ATOM     13  C   UNL     1      -2.958  13.081  23.074  0.00  0.00    +0.000 C 
ATOM     14  O   UNL     1      -2.935  14.292  22.854  0.00  0.00    +0.000 OA
BRANCH  13  15
ATOM     15  C   UNL     1      -3.928  12.475  24.078  0.00  0.00    +0.000 C 
BRANCH  15  16
ATOM     16  O   UNL     1      -4.063  13.307  25.221  0.00  0.00    +0.000 OA
ATOM     17  H   UNL     1      -3.270  13.881  25.231  0.00  0.00    +0.000 HD
ENDBRANCH  15  16
ENDBRANCH  13  15
ENDBRANCH  10  13
ENDBRANCH   4   7
BRANCH   1  18
ATOM     18  C   UNL     1       3.243   6.661  18.260  0.00  0.00    +0.000 C 
BRANCH  18  19
ATOM     19  C   UNL     1       2.539   5.315  18.044  0.00  0.00    +0.000 C 
BRANCH  19  21
ATOM     20  C   UNL     1       2.973   4.131  20.244  0.00  0.00    +0.000 C 
ATOM     21  C   UNL     1       3.239   4.117  18.728  0.00  0.00    +0.000 C 
BRANCH  21  22
ATOM     22  C   UNL     1       4.737   4.131  18.444  0.00  0.00    +0.000 C 
ATOM     23  O   UNL     1       5.575   4.393  19.309  0.00  0.00    +0.000 OA
ATOM     24  N   UNL     1       5.124   3.879  17.147  0.00  0.00    +0.000 N 
ATOM     25  H   UNL     1       4.572   3.278  16.527  0.00  0.00    +0.000 HD
BRANCH  24  26
ATOM     26  O   UNL     1       6.523   3.867  16.929  0.00  0.00    +0.000 OA
ATOM     27  H   UNL     1       6.804   4.751  17.251  0.00  0.00    +0.000 HD
ENDBRANCH  24  26
ENDBRANCH  21  22
BRANCH  21  28
ATOM     28  S   UNL     1       2.573   2.588  18.011  0.00  0.00    +0.000 S 
ATOM     29  C   UNL     1       1.050   2.248  18.864  0.00  0.00    +0.000 C 
ATOM     30  O   UNL     1       2.238   2.852  16.624  0.00  0.00    +0.000 OA
ATOM     31  O   UNL     1       3.500   1.517  18.337  0.00  0.00    +0.000 OA
ENDBRANCH  21  28
ENDBRANCH  19  21
ENDBRANCH  18  19
ENDBRANCH   1  18
TORSDOF 10
ENDMDL
MODEL 8
REMARK VINA RESULT:      -7.9      1.104      1.304
REMARK  Name = 
REMARK  12 active torsions:
REMARK  status: ('A' for Active; 'I' for Inactive)
REMARK    1  A    between atoms: C_1  and  C_2
REMARK    2  A    between atoms: C_2  and  C_3
REMARK    3  A    between atoms: C_2  and  C_21
REMARK    4  A    between atoms: C_2  and  S_25
REMARK    5  A    between atoms: C_3  and  C_4
REMARK    6  A    between atoms: C_4  and  C_5
REMARK    7  A    between atoms: C_8  and  C_9
REMARK    8  A    between atoms: C_12  and  C_13
REMARK    9  A    between atoms: C_13  and  C_15
REMARK   10  A    between atoms: C_15  and  O_16
REMARK   11  A    between atoms: N_23  and  O_24
REMARK   12  A    between atoms: S_25  and  C_26
REMARK                            x       y       z     vdW  Elec       q    Type
REMARK                         _______ _______ _______ _____ _____    ______ ____
ROOT
ATOM      1  C   UNL     1       2.436   7.709  18.259  0.00  0.00    +0.000 A 
ATOM      2  C   UNL     1       1.835   8.854  17.729  0.00  0.00    +0.000 A 
ATOM      3  C   UNL     1       1.087   9.705  18.544  0.00  0.00    +0.000 A 
ATOM      4  C   UNL     1       0.883   9.424  19.905  0.00  0.00    +0.000 A 
ATOM      5  C   UNL     1       1.485   8.261  20.417  0.00  0.00    +0.000 A 
ATOM      6  C   UNL     1       2.258   7.421  19.611  0.00  0.00    +0.000 A 
ENDROOT
BRANCH   4   7
ATOM      7  C   UNL     1       0.049  10.299  20.761  0.00  0.00    +0.000 A 
ATOM      8  C   UNL     1      -0.565  11.455  20.242  0.00  0.00    +0.000 A 
ATOM      9  C   UNL     1      -1.369  12.277  21.038  0.00  0.00    +0.000 A 
ATOM     10  C   UNL     1      -1.589  11.951  22.374  0.00  0.00    +0.000 A 
ATOM     11  C   UNL     1      -1.003  10.803  22.912  0.00  0.00    +0.000 A 
ATOM     12  C   UNL     1      -0.181   9.998  22.117  0.00  0.00    +0.000 A 
BRANCH  10  13
ATOM     13  C   UNL     1      -2.428  12.801  23.259  0.00  0.00    +0.000 C 
ATOM     14  O   UNL     1      -1.921  13.715  23.909  0.00  0.00    +0.000 OA
BRANCH  13  15
ATOM     15  C   UNL     1      -3.922  12.521  23.316  0.00  0.00    +0.000 C 
BRANCH  15  16
ATOM     16  O   UNL     1      -4.304  12.057  24.603  0.00  0.00    +0.000 OA
ATOM     17  H   UNL     1      -5.248  12.295  24.705  0.00  0.00    +0.000 HD
ENDBRANCH  15  16
ENDBRANCH  13  15
ENDBRANCH  10  13
ENDBRANCH   4   7
BRANCH   1  18
ATOM     18  C   UNL     1       3.236   6.783  17.381  0.00  0.00    +0.000 C 
BRANCH  18  19
ATOM     19  C   UNL     1       4.560   6.372  18.037  0.00  0.00    +0.000 C 
BRANCH  19  21
ATOM     20  C   UNL     1       3.969   4.228  16.818  0.00  0.00    +0.000 C 
ATOM     21  C   UNL     1       5.024   4.939  17.684  0.00  0.00    +0.000 C 
BRANCH  21  22
ATOM     22  C   UNL     1       5.314   4.137  18.947  0.00  0.00    +0.000 C 
ATOM     23  O   UNL     1       5.871   4.626  19.932  0.00  0.00    +0.000 OA
ATOM     24  N   UNL     1       4.964   2.805  18.930  0.00  0.00    +0.000 N 
ATOM     25  H   UNL     1       4.177   2.462  18.371  0.00  0.00    +0.000 HD
BRANCH  24  26
ATOM     26  O   UNL     1       5.218   2.101  20.131  0.00  0.00    +0.000 OA
ATOM     27  H   UNL     1       5.451   1.201  19.815  0.00  0.00    +0.000 HD
ENDBRANCH  24  26
ENDBRANCH  21  22
BRANCH  21  28
ATOM     28  S   UNL     1       6.582   5.062  16.760  0.00  0.00    +0.000 S 
ATOM     29  C   UNL     1       6.361   4.125  15.265  0.00  0.00    +0.000 C 
ATOM     30  O   UNL     1       6.767   6.448  16.374  0.00  0.00    +0.000 OA
ATOM     31  O   UNL     1       7.605   4.390  17.544  0.00  0.00    +0.000 OA
ENDBRANCH  21  28
ENDBRANCH  19  21
ENDBRANCH  18  19
ENDBRANCH   1  18
TORSDOF 10
ENDMDL
MODEL 9
REMARK VINA RESULT:      -7.9      2.213      3.127
REMARK  Name = 
REMARK  12 active torsions:
REMARK  status: ('A' for Active; 'I' for Inactive)
REMARK    1  A    between atoms: C_1  and  C_2
REMARK    2  A    between atoms: C_2  and  C_3
REMARK    3  A    between atoms: C_2  and  C_21
REMARK    4  A    between atoms: C_2  and  S_25
REMARK    5  A    between atoms: C_3  and  C_4
REMARK    6  A    between atoms: C_4  and  C_5
REMARK    7  A    between atoms: C_8  and  C_9
REMARK    8  A    between atoms: C_12  and  C_13
REMARK    9  A    between atoms: C_13  and  C_15
REMARK   10  A    between atoms: C_15  and  O_16
REMARK   11  A    between atoms: N_23  and  O_24
REMARK   12  A    between atoms: S_25  and  C_26
REMARK                            x       y       z     vdW  Elec       q    Type
REMARK                         _______ _______ _______ _____ _____    ______ ____
ROOT
ATOM      1  C   UNL     1       2.352   7.597  19.003  0.00  0.00    +0.000 A 
ATOM      2  C   UNL     1       1.973   7.350  20.325  0.00  0.00    +0.000 A 
ATOM      3  C   UNL     1       1.105   8.219  20.989  0.00  0.00    +0.000 A 
ATOM      4  C   UNL     1       0.615   9.380  20.369  0.00  0.00    +0.000 A 
ATOM      5  C   UNL     1       1.017   9.618  19.044  0.00  0.00    +0.000 A 
ATOM      6  C   UNL     1       1.864   8.737  18.365  0.00  0.00    +0.000 A 
ENDROOT
BRANCH   4   7
ATOM      7  C   UNL     1      -0.267  10.329  21.088  0.00  0.00    +0.000 A 
ATOM      8  C   UNL     1      -0.440  10.249  22.482  0.00  0.00    +0.000 A 
ATOM      9  C   UNL     1      -1.256  11.151  23.172  0.00  0.00    +0.000 A 
ATOM     10  C   UNL     1      -1.908  12.169  22.479  0.00  0.00    +0.000 A 
ATOM     11  C   UNL     1      -1.743  12.280  21.096  0.00  0.00    +0.000 A 
ATOM     12  C   UNL     1      -0.945  11.359  20.410  0.00  0.00    +0.000 A 
BRANCH  10  13
ATOM     13  C   UNL     1      -2.793  13.143  23.169  0.00  0.00    +0.000 C 
ATOM     14  O   UNL     1      -2.583  14.352  23.074  0.00  0.00    +0.000 OA
BRANCH  13  15
ATOM     15  C   UNL     1      -3.966  12.602  23.973  0.00  0.00    +0.000 C 
BRANCH  15  16
ATOM     16  O   UNL     1      -4.114  13.308  25.196  0.00  0.00    +0.000 OA
ATOM     17  H   UNL     1      -4.933  13.836  25.104  0.00  0.00    +0.000 HD
ENDBRANCH  15  16
ENDBRANCH  13  15
ENDBRANCH  10  13
ENDBRANCH   4   7
BRANCH   1  18
ATOM     18  C   UNL     1       3.296   6.668  18.286  0.00  0.00    +0.000 C 
BRANCH  18  19
ATOM     19  C   UNL     1       2.652   5.306  17.998  0.00  0.00    +0.000 C 
BRANCH  19  21
ATOM     20  C   UNL     1       3.082   4.153  20.215  0.00  0.00    +0.000 C 
ATOM     21  C   UNL     1       3.347   4.116  18.700  0.00  0.00    +0.000 C 
BRANCH  21  22
ATOM     22  C   UNL     1       4.845   4.119  18.415  0.00  0.00    +0.000 C 
ATOM     23  O   UNL     1       5.687   4.338  19.288  0.00  0.00    +0.000 OA
ATOM     24  N   UNL     1       5.228   3.910  17.109  0.00  0.00    +0.000 N 
ATOM     25  H   UNL     1       4.667   3.340  16.468  0.00  0.00    +0.000 HD
BRANCH  24  26
ATOM     26  O   UNL     1       6.626   3.886  16.889  0.00  0.00    +0.000 OA
ATOM     27  H   UNL     1       6.947   3.264  17.577  0.00  0.00    +0.000 HD
ENDBRANCH  24  26
ENDBRANCH  21  22
BRANCH  21  28
ATOM     28  S   UNL     1       2.675   2.579  18.005  0.00  0.00    +0.000 S 
ATOM     29  C   UNL     1       1.168   2.239  18.887  0.00  0.00    +0.000 C 
ATOM     30  O   UNL     1       2.316   2.831  16.623  0.00  0.00    +0.000 OA
ATOM     31  O   UNL     1       3.611   1.513  18.323  0.00  0.00    +0.000 OA
ENDBRANCH  21  28
ENDBRANCH  19  21
ENDBRANCH  18  19
ENDBRANCH   1  18
TORSDOF 10
ENDMDL
