MODEL 1
REMARK VINA RESULT:      -7.1      0.000      0.000
REMARK  Name = 
REMARK  9 active torsions:
REMARK  status: ('A' for Active; 'I' for Inactive)
REMARK    1  A    between atoms: C_1  and  S_2
REMARK    2  A    between atoms: S_2  and  C_3
REMARK    3  A    between atoms: C_7  and  N_8
REMARK    4  A    between atoms: C_9  and  C_11
REMARK    5  A    between atoms: C_11  and  C_12
REMARK    6  A    between atoms: C_12  and  C_13
REMARK    7  A    between atoms: C_13  and  O_14
REMARK    8  A    between atoms: O_14  and  C_15
REMARK    9  A    between atoms: C_21  and  C_22
REMARK                            x       y       z     vdW  Elec       q    Type
REMARK                         _______ _______ _______ _____ _____    ______ ____
ROOT
ATOM      1  N   UNL     1       2.464   6.195  20.462  0.00  0.00    +0.000 N 
ATOM      2  C   UNL     1       2.129   4.941  19.985  0.00  0.00    +0.000 C 
ATOM      3  O   UNL     1       1.542   4.718  18.928  0.00  0.00    +0.000 OA
ATOM      4  H   UNL     1       3.122   6.249  21.228  0.00  0.00    +0.000 HD
ENDROOT
BRANCH   1   9
ATOM      5  C   UNL     1       0.948   9.567  20.055  0.00  0.00    +0.000 A 
ATOM      6  C   UNL     1       1.304   9.877  18.739  0.00  0.00    +0.000 A 
ATOM      7  C   UNL     1       2.032   8.964  17.982  0.00  0.00    +0.000 A 
ATOM      8  C   UNL     1       2.411   7.742  18.536  0.00  0.00    +0.000 A 
ATOM      9  C   UNL     1       2.081   7.417  19.856  0.00  0.00    +0.000 A 
ATOM     10  C   UNL     1       1.323   8.329  20.602  0.00  0.00    +0.000 A 
BRANCH   5  12
ATOM     11  C   UNL     1      -0.117   9.780  22.607  0.00  0.00    +0.000 C 
ATOM     12  S   UNL     1      -0.035  10.690  21.039  0.00  0.00    +0.000 S 
ENDBRANCH   5  12
ENDBRANCH   1   9
BRANCH   2  13
ATOM     13  C   UNL     1       2.571   3.797  20.881  0.00  0.00    +0.000 C 
BRANCH  13  14
ATOM     14  C   UNL     1       2.888   2.567  20.027  0.00  0.00    +0.000 C 
BRANCH  14  15
ATOM     15  C   UNL     1       4.334   2.535  19.557  0.00  0.00    +0.000 C 
BRANCH  15  16
ATOM     16  O   UNL     1       4.380   3.089  18.243  0.00  0.00    +0.000 OA
BRANCH  16  17
ATOM     17  C   UNL     1       5.249   4.119  18.001  0.00  0.00    +0.000 A 
ATOM     18  C   UNL     1       5.700   4.749  19.173  0.00  0.00    +0.000 A 
ATOM     19  C   UNL     1       6.533   5.868  19.120  0.00  0.00    +0.000 A 
ATOM     20  C   UNL     1       6.921   6.370  17.886  0.00  0.00    +0.000 A 
ATOM     21 CL   UNL     1       7.926   7.761  17.794  0.00  0.00    +0.000 Cl
ATOM     22  C   UNL     1       6.478   5.763  16.715  0.00  0.00    +0.000 A 
ATOM     23  C   UNL     1       5.622   4.641  16.750  0.00  0.00    +0.000 A 
ATOM     24  C   UNL     1       5.139   4.117  15.430  0.00  0.00    +0.000 C 
ENDBRANCH  16  17
ENDBRANCH  15  16
ENDBRANCH  14  15
ENDBRANCH  13  14
ENDBRANCH   2  13
TORSDOF 7
ENDMDL
MODEL 2
REMARK VINA RESULT:      -7.0      3.401      6.576
REMARK  Name = 
REMARK  9 active torsions:
REMARK  status: ('A' for Active; 'I' for Inactive)
REMARK    1  A    between atoms: C_1  and  S_2
REMARK    2  A    between atoms: S_2  and  C_3
REMARK    3  A    between atoms: C_7  and  N_8
REMARK    4  A    between atoms: C_9  and  C_11
REMARK    5  A    between atoms: C_11  and  C_12
REMARK    6  A    between atoms: C_12  and  C_13
REMARK    7  A    between atoms: C_13  and  O_14
REMARK    8  A    between atoms: O_14  and  C_15
REMARK    9  A    between atoms: C_21  and  C_22
REMARK                            x       y       z     vdW  Elec       q    Type
REMARK                         _______ _______ _______ _____ _____    ______ ____
ROOT
ATOM      1  N   UNL     1       3.606   4.017  18.123  0.00  0.00    +0.000 N 
ATOM      2  C   UNL     1       3.111   2.805  18.571  0.00  0.00    +0.000 C 
ATOM      3  O   UNL     1       3.725   1.740  18.560  0.00  0.00    +0.000 OA
ATOM      4  H   UNL     1       3.098   4.855  18.371  0.00  0.00    +0.000 HD
ENDROOT
BRANCH   1   9
ATOM      5  C   UNL     1       6.143   4.202  15.409  0.00  0.00    +0.000 A 
ATOM      6  C   UNL     1       7.295   4.537  16.126  0.00  0.00    +0.000 A 
ATOM      7  C   UNL     1       7.237   4.686  17.508  0.00  0.00    +0.000 A 
ATOM      8  C   UNL     1       6.028   4.507  18.179  0.00  0.00    +0.000 A 
ATOM      9  C   UNL     1       4.858   4.188  17.481  0.00  0.00    +0.000 A 
ATOM     10  C   UNL     1       4.931   4.010  16.094  0.00  0.00    +0.000 A 
BRANCH   5  12
ATOM     11  C   UNL     1       7.559   5.045  13.178  0.00  0.00    +0.000 C 
ATOM     12  S   UNL     1       6.192   3.945  13.641  0.00  0.00    +0.000 S 
ENDBRANCH   5  12
ENDBRANCH   1   9
BRANCH   2  13
ATOM     13  C   UNL     1       1.699   2.878  19.124  0.00  0.00    +0.000 C 
BRANCH  13  14
ATOM     14  C   UNL     1       1.286   4.343  19.291  0.00  0.00    +0.000 C 
BRANCH  14  15
ATOM     15  C   UNL     1       1.781   4.948  20.595  0.00  0.00    +0.000 C 
BRANCH  15  16
ATOM     16  O   UNL     1       2.669   6.017  20.274  0.00  0.00    +0.000 OA
BRANCH  16  17
ATOM     17  C   UNL     1       2.134   7.238  19.967  0.00  0.00    +0.000 A 
ATOM     18  C   UNL     1       1.273   7.731  20.962  0.00  0.00    +0.000 A 
ATOM     19  C   UNL     1       0.576   8.929  20.791  0.00  0.00    +0.000 A 
ATOM     20  C   UNL     1       0.734   9.646  19.614  0.00  0.00    +0.000 A 
ATOM     21 CL   UNL     1      -0.132  11.110  19.369  0.00  0.00    +0.000 Cl
ATOM     22  C   UNL     1       1.577   9.169  18.614  0.00  0.00    +0.000 A 
ATOM     23  C   UNL     1       2.276   7.952  18.764  0.00  0.00    +0.000 A 
ATOM     24  C   UNL     1       3.091   7.492  17.592  0.00  0.00    +0.000 C 
ENDBRANCH  16  17
ENDBRANCH  15  16
ENDBRANCH  14  15
ENDBRANCH  13  14
ENDBRANCH   2  13
TORSDOF 7
ENDMDL
MODEL 3
REMARK VINA RESULT:      -6.9      1.475      2.145
REMARK  Name = 
REMARK  9 active torsions:
REMARK  status: ('A' for Active; 'I' for Inactive)
REMARK    1  A    between atoms: C_1  and  S_2
REMARK    2  A    between atoms: S_2  and  C_3
REMARK    3  A    between atoms: C_7  and  N_8
REMARK    4  A    between atoms: C_9  and  C_11
REMARK    5  A    between atoms: C_11  and  C_12
REMARK    6  A    between atoms: C_12  and  C_13
REMARK    7  A    between atoms: C_13  and  O_14
REMARK    8  A    between atoms: O_14  and  C_15
REMARK    9  A    between atoms: C_21  and  C_22
REMARK                            x       y       z     vdW  Elec       q    Type
REMARK                         _______ _______ _______ _____ _____    ______ ____
ROOT
ATOM      1  N   UNL     1       2.446   5.722  20.522  0.00  0.00    +0.000 N 
ATOM      2  C   UNL     1       1.806   4.516  20.303  0.00  0.00    +0.000 C 
ATOM      3  O   UNL     1       1.101   4.253  19.330  0.00  0.00    +0.000 OA
ATOM      4  H   UNL     1       3.159   5.755  21.238  0.00  0.00    +0.000 HD
ENDROOT
BRANCH   1   9
ATOM      5  C   UNL     1       1.364   9.110  19.432  0.00  0.00    +0.000 A 
ATOM      6  C   UNL     1       1.969   9.206  18.176  0.00  0.00    +0.000 A 
ATOM      7  C   UNL     1       2.722   8.145  17.682  0.00  0.00    +0.000 A 
ATOM      8  C   UNL     1       2.879   6.987  18.443  0.00  0.00    +0.000 A 
ATOM      9  C   UNL     1       2.296   6.874  19.710  0.00  0.00    +0.000 A 
ATOM     10  C   UNL     1       1.515   7.934  20.186  0.00  0.00    +0.000 A 
BRANCH   5  12
ATOM     11  C   UNL     1      -0.464  11.001  18.551  0.00  0.00    +0.000 C 
ATOM     12  S   UNL     1       0.342  10.428  20.073  0.00  0.00    +0.000 S 
ENDBRANCH   5  12
ENDBRANCH   1   9
BRANCH   2  13
ATOM     13  C   UNL     1       2.054   3.476  21.382  0.00  0.00    +0.000 C 
BRANCH  13  14
ATOM     14  C   UNL     1       3.417   2.817  21.158  0.00  0.00    +0.000 C 
BRANCH  14  15
ATOM     15  C   UNL     1       3.891   2.924  19.717  0.00  0.00    +0.000 C 
BRANCH  15  16
ATOM     16  O   UNL     1       5.055   3.748  19.698  0.00  0.00    +0.000 OA
BRANCH  16  17
ATOM     17  C   UNL     1       5.513   4.200  18.490  0.00  0.00    +0.000 A 
ATOM     18  C   UNL     1       4.827   3.645  17.396  0.00  0.00    +0.000 A 
ATOM     19  C   UNL     1       5.205   3.931  16.082  0.00  0.00    +0.000 A 
ATOM     20  C   UNL     1       6.280   4.777  15.852  0.00  0.00    +0.000 A 
ATOM     21 CL   UNL     1       6.781   5.125  14.245  0.00  0.00    +0.000 Cl
ATOM     22  C   UNL     1       6.975   5.330  16.924  0.00  0.00    +0.000 A 
ATOM     23  C   UNL     1       6.617   5.038  18.257  0.00  0.00    +0.000 A 
ATOM     24  C   UNL     1       7.485   5.621  19.333  0.00  0.00    +0.000 C 
ENDBRANCH  16  17
ENDBRANCH  15  16
ENDBRANCH  14  15
ENDBRANCH  13  14
ENDBRANCH   2  13
TORSDOF 7
ENDMDL
MODEL 4
REMARK VINA RESULT:      -6.9      3.033      5.832
REMARK  Name = 
REMARK  9 active torsions:
REMARK  status: ('A' for Active; 'I' for Inactive)
REMARK    1  A    between atoms: C_1  and  S_2
REMARK    2  A    between atoms: S_2  and  C_3
REMARK    3  A    between atoms: C_7  and  N_8
REMARK    4  A    between atoms: C_9  and  C_11
REMARK    5  A    between atoms: C_11  and  C_12
REMARK    6  A    between atoms: C_12  and  C_13
REMARK    7  A    between atoms: C_13  and  O_14
REMARK    8  A    between atoms: O_14  and  C_15
REMARK    9  A    between atoms: C_21  and  C_22
REMARK                            x       y       z     vdW  Elec       q    Type
REMARK                         _______ _______ _______ _____ _____    ______ ____
ROOT
ATOM      1  N   UNL     1       3.867   3.310  18.393  0.00  0.00    +0.000 N 
ATOM      2  C   UNL     1       2.520   3.467  18.119  0.00  0.00    +0.000 C 
ATOM      3  O   UNL     1       2.059   4.057  17.144  0.00  0.00    +0.000 OA
ATOM      4  H   UNL     1       4.129   2.636  19.100  0.00  0.00    +0.000 HD
ENDROOT
BRANCH   1   9
ATOM      5  C   UNL     1       6.842   5.396  17.599  0.00  0.00    +0.000 A 
ATOM      6  C   UNL     1       7.040   5.098  16.247  0.00  0.00    +0.000 A 
ATOM      7  C   UNL     1       6.181   4.219  15.595  0.00  0.00    +0.000 A 
ATOM      8  C   UNL     1       5.125   3.630  16.290  0.00  0.00    +0.000 A 
ATOM      9  C   UNL     1       4.916   3.901  17.647  0.00  0.00    +0.000 A 
ATOM     10  C   UNL     1       5.767   4.810  18.288  0.00  0.00    +0.000 A 
BRANCH   5  12
ATOM     11  C   UNL     1       7.568   8.071  17.495  0.00  0.00    +0.000 C 
ATOM     12  S   UNL     1       7.890   6.564  18.454  0.00  0.00    +0.000 S 
ENDBRANCH   5  12
ENDBRANCH   1   9
BRANCH   2  13
ATOM     13  C   UNL     1       1.599   2.818  19.137  0.00  0.00    +0.000 C 
BRANCH  13  14
ATOM     14  C   UNL     1       0.904   3.899  19.967  0.00  0.00    +0.000 C 
BRANCH  14  15
ATOM     15  C   UNL     1       1.851   4.604  20.925  0.00  0.00    +0.000 C 
BRANCH  15  16
ATOM     16  O   UNL     1       2.657   5.502  20.164  0.00  0.00    +0.000 OA
BRANCH  16  17
ATOM     17  C   UNL     1       2.209   6.782  19.980  0.00  0.00    +0.000 A 
ATOM     18  C   UNL     1       1.382   7.234  21.022  0.00  0.00    +0.000 A 
ATOM     19  C   UNL     1       0.771   8.489  20.971  0.00  0.00    +0.000 A 
ATOM     20  C   UNL     1       0.982   9.304  19.869  0.00  0.00    +0.000 A 
ATOM     21 CL   UNL     1       0.222  10.843  19.770  0.00  0.00    +0.000 Cl
ATOM     22  C   UNL     1       1.793   8.870  18.824  0.00  0.00    +0.000 A 
ATOM     23  C   UNL     1       2.404   7.598  18.852  0.00  0.00    +0.000 A 
ATOM     24  C   UNL     1       3.189   7.198  17.637  0.00  0.00    +0.000 C 
ENDBRANCH  16  17
ENDBRANCH  15  16
ENDBRANCH  14  15
ENDBRANCH  13  14
ENDBRANCH   2  13
TORSDOF 7
ENDMDL
MODEL 5
REMARK VINA RESULT:      -6.8      5.074      6.747
REMARK  Name = 
REMARK  9 active torsions:
REMARK  status: ('A' for Active; 'I' for Inactive)
REMARK    1  A    between atoms: C_1  and  S_2
REMARK    2  A    between atoms: S_2  and  C_3
REMARK    3  A    between atoms: C_7  and  N_8
REMARK    4  A    between atoms: C_9  and  C_11
REMARK    5  A    between atoms: C_11  and  C_12
REMARK    6  A    between atoms: C_12  and  C_13
REMARK    7  A    between atoms: C_13  and  O_14
REMARK    8  A    between atoms: O_14  and  C_15
REMARK    9  A    between atoms: C_21  and  C_22
REMARK                            x       y       z     vdW  Elec       q    Type
REMARK                         _______ _______ _______ _____ _____    ______ ____
ROOT
ATOM      1  N   UNL     1       9.099   8.838  19.077  0.00  0.00    +0.000 N 
ATOM      2  C   UNL     1       8.172   8.220  18.257  0.00  0.00    +0.000 C 
ATOM      3  O   UNL     1       7.480   8.788  17.414  0.00  0.00    +0.000 OA
ATOM      4  H   UNL     1       9.751   8.251  19.578  0.00  0.00    +0.000 HD
ENDROOT
BRANCH   1   9
ATOM      5  C   UNL     1       9.398  12.261  20.502  0.00  0.00    +0.000 A 
ATOM      6  C   UNL     1       9.737  13.007  19.370  0.00  0.00    +0.000 A 
ATOM      7  C   UNL     1       9.852  12.381  18.132  0.00  0.00    +0.000 A 
ATOM      8  C   UNL     1       9.634  11.008  18.021  0.00  0.00    +0.000 A 
ATOM      9  C   UNL     1       9.309  10.238  19.143  0.00  0.00    +0.000 A 
ATOM     10  C   UNL     1       9.167  10.881  20.380  0.00  0.00    +0.000 A 
BRANCH   5  12
ATOM     11  C   UNL     1       7.740  12.138  22.722  0.00  0.00    +0.000 C 
ATOM     12  S   UNL     1       9.186  13.040  22.096  0.00  0.00    +0.000 S 
ENDBRANCH   5  12
ENDBRANCH   1   9
BRANCH   2  13
ATOM     13  C   UNL     1       8.070   6.718  18.457  0.00  0.00    +0.000 C 
BRANCH  13  14
ATOM     14  C   UNL     1       6.627   6.264  18.223  0.00  0.00    +0.000 C 
BRANCH  14  15
ATOM     15  C   UNL     1       6.465   5.459  16.943  0.00  0.00    +0.000 C 
BRANCH  15  16
ATOM     16  O   UNL     1       5.136   5.657  16.466  0.00  0.00    +0.000 OA
BRANCH  16  17
ATOM     17  C   UNL     1       4.105   5.061  17.141  0.00  0.00    +0.000 A 
ATOM     18  C   UNL     1       4.049   3.670  16.948  0.00  0.00    +0.000 A 
ATOM     19  C   UNL     1       3.021   2.903  17.498  0.00  0.00    +0.000 A 
ATOM     20  C   UNL     1       2.033   3.525  18.247  0.00  0.00    +0.000 A 
ATOM     21 CL   UNL     1       0.742   2.606  18.914  0.00  0.00    +0.000 Cl
ATOM     22  C   UNL     1       2.068   4.902  18.443  0.00  0.00    +0.000 A 
ATOM     23  C   UNL     1       3.091   5.695  17.879  0.00  0.00    +0.000 A 
ATOM     24  C   UNL     1       2.987   7.178  18.084  0.00  0.00    +0.000 C 
ENDBRANCH  16  17
ENDBRANCH  15  16
ENDBRANCH  14  15
ENDBRANCH  13  14
ENDBRANCH   2  13
TORSDOF 7
ENDMDL
MODEL 6
REMARK VINA RESULT:      -6.7      5.844      7.757
REMARK  Name = 
REMARK  9 active torsions:
REMARK  status: ('A' for Active; 'I' for Inactive)
REMARK    1  A    between atoms: C_1  and  S_2
REMARK    2  A    between atoms: S_2  and  C_3
REMARK    3  A    between atoms: C_7  and  N_8
REMARK    4  A    between atoms: C_9  and  C_11
REMARK    5  A    between atoms: C_11  and  C_12
REMARK    6  A    between atoms: C_12  and  C_13
REMARK    7  A    between atoms: C_13  and  O_14
REMARK    8  A    between atoms: O_14  and  C_15
REMARK    9  A    between atoms: C_21  and  C_22
REMARK                            x       y       z     vdW  Elec       q    Type
REMARK                         _______ _______ _______ _____ _____    ______ ____
ROOT
ATOM      1  N   UNL     1       9.359   9.441  19.344  0.00  0.00    +0.000 N 
ATOM      2  C   UNL     1       8.367   9.212  18.407  0.00  0.00    +0.000 C 
ATOM      3  O   UNL     1       7.761  10.084  17.788  0.00  0.00    +0.000 OA
ATOM      4  H   UNL     1       9.927   8.656  19.632  0.00  0.00    +0.000 HD
ENDROOT
BRANCH   1   9
ATOM      5  C   UNL     1      11.094  12.727  19.487  0.00  0.00    +0.000 A 
ATOM      6  C   UNL     1      10.552  13.280  20.651  0.00  0.00    +0.000 A 
ATOM      7  C   UNL     1       9.624  12.560  21.396  0.00  0.00    +0.000 A 
ATOM      8  C   UNL     1       9.230  11.288  20.981  0.00  0.00    +0.000 A 
ATOM      9  C   UNL     1       9.747  10.721  19.811  0.00  0.00    +0.000 A 
ATOM     10  C   UNL     1      10.703  11.440  19.083  0.00  0.00    +0.000 A 
BRANCH   5  12
ATOM     11  C   UNL     1      11.335  14.170  17.130  0.00  0.00    +0.000 C 
ATOM     12  S   UNL     1      12.331  13.599  18.536  0.00  0.00    +0.000 S 
ENDBRANCH   5  12
ENDBRANCH   1   9
BRANCH   2  13
ATOM     13  C   UNL     1       8.072   7.743  18.162  0.00  0.00    +0.000 C 
BRANCH  13  14
ATOM     14  C   UNL     1       6.771   7.604  17.368  0.00  0.00    +0.000 C 
BRANCH  14  15
ATOM     15  C   UNL     1       6.577   6.208  16.798  0.00  0.00    +0.000 C 
BRANCH  15  16
ATOM     16  O   UNL     1       5.243   6.119  16.300  0.00  0.00    +0.000 OA
BRANCH  16  17
ATOM     17  C   UNL     1       4.303   5.485  17.066  0.00  0.00    +0.000 A 
ATOM     18  C   UNL     1       4.402   4.084  17.016  0.00  0.00    +0.000 A 
ATOM     19  C   UNL     1       3.481   3.267  17.675  0.00  0.00    +0.000 A 
ATOM     20  C   UNL     1       2.446   3.849  18.391  0.00  0.00    +0.000 A 
ATOM     21 CL   UNL     1       1.284   2.866  19.190  0.00  0.00    +0.000 Cl
ATOM     22  C   UNL     1       2.328   5.235  18.445  0.00  0.00    +0.000 A 
ATOM     23  C   UNL     1       3.240   6.075  17.771  0.00  0.00    +0.000 A 
ATOM     24  C   UNL     1       2.971   7.549  17.829  0.00  0.00    +0.000 C 
ENDBRANCH  16  17
ENDBRANCH  15  16
ENDBRANCH  14  15
ENDBRANCH  13  14
ENDBRANCH   2  13
TORSDOF 7
ENDMDL
MODEL 7
REMARK VINA RESULT:      -6.6      5.056      6.776
REMARK  Name = 
REMARK  9 active torsions:
REMARK  status: ('A' for Active; 'I' for Inactive)
REMARK    1  A    between atoms: C_1  and  S_2
REMARK    2  A    between atoms: S_2  and  C_3
REMARK    3  A    between atoms: C_7  and  N_8
REMARK    4  A    between atoms: C_9  and  C_11
REMARK    5  A    between atoms: C_11  and  C_12
REMARK    6  A    between atoms: C_12  and  C_13
REMARK    7  A    between atoms: C_13  and  O_14
REMARK    8  A    between atoms: O_14  and  C_15
REMARK    9  A    between atoms: C_21  and  C_22
REMARK                            x       y       z     vdW  Elec       q    Type
REMARK                         _______ _______ _______ _____ _____    ______ ____
ROOT
ATOM      1  N   UNL     1       8.996   8.860  19.139  0.00  0.00    +0.000 N 
ATOM      2  C   UNL     1       8.172   8.236  18.220  0.00  0.00    +0.000 C 
ATOM      3  O   UNL     1       7.663   8.778  17.240  0.00  0.00    +0.000 OA
ATOM      4  H   UNL     1       9.519   8.276  19.777  0.00  0.00    +0.000 HD
ENDROOT
BRANCH   1   9
ATOM      5  C   UNL     1       9.484  12.318  20.420  0.00  0.00    +0.000 A 
ATOM      6  C   UNL     1       9.878  12.993  19.261  0.00  0.00    +0.000 A 
ATOM      7  C   UNL     1       9.967  12.308  18.053  0.00  0.00    +0.000 A 
ATOM      8  C   UNL     1       9.669  10.947  17.998  0.00  0.00    +0.000 A 
ATOM      9  C   UNL     1       9.289  10.247  19.148  0.00  0.00    +0.000 A 
ATOM     10  C   UNL     1       9.172  10.950  20.354  0.00  0.00    +0.000 A 
BRANCH   5  12
ATOM     11  C   UNL     1       7.823  14.173  21.642  0.00  0.00    +0.000 C 
ATOM     12  S   UNL     1       9.303  13.177  21.977  0.00  0.00    +0.000 S 
ENDBRANCH   5  12
ENDBRANCH   1   9
BRANCH   2  13
ATOM     13  C   UNL     1       7.937   6.762  18.498  0.00  0.00    +0.000 C 
BRANCH  13  14
ATOM     14  C   UNL     1       7.141   6.141  17.348  0.00  0.00    +0.000 C 
BRANCH  14  15
ATOM     15  C   UNL     1       6.632   4.746  17.671  0.00  0.00    +0.000 C 
BRANCH  15  16
ATOM     16  O   UNL     1       5.234   4.712  17.392  0.00  0.00    +0.000 OA
BRANCH  16  17
ATOM     17  C   UNL     1       4.369   4.464  18.424  0.00  0.00    +0.000 A 
ATOM     18  C   UNL     1       4.553   3.199  19.007  0.00  0.00    +0.000 A 
ATOM     19  C   UNL     1       3.714   2.740  20.024  0.00  0.00    +0.000 A 
ATOM     20  C   UNL     1       2.676   3.548  20.467  0.00  0.00    +0.000 A 
ATOM     21 CL   UNL     1       1.614   2.997  21.701  0.00  0.00    +0.000 Cl
ATOM     22  C   UNL     1       2.475   4.801  19.896  0.00  0.00    +0.000 A 
ATOM     23  C   UNL     1       3.303   5.273  18.855  0.00  0.00    +0.000 A 
ATOM     24  C   UNL     1       2.946   6.601  18.256  0.00  0.00    +0.000 C 
ENDBRANCH  16  17
ENDBRANCH  15  16
ENDBRANCH  14  15
ENDBRANCH  13  14
ENDBRANCH   2  13
TORSDOF 7
ENDMDL
MODEL 8
REMARK VINA RESULT:      -6.6      4.189      8.080
REMARK  Name = 
REMARK  9 active torsions:
REMARK  status: ('A' for Active; 'I' for Inactive)
REMARK    1  A    between atoms: C_1  and  S_2
REMARK    2  A    between atoms: S_2  and  C_3
REMARK    3  A    between atoms: C_7  and  N_8
REMARK    4  A    between atoms: C_9  and  C_11
REMARK    5  A    between atoms: C_11  and  C_12
REMARK    6  A    between atoms: C_12  and  C_13
REMARK    7  A    between atoms: C_13  and  O_14
REMARK    8  A    between atoms: O_14  and  C_15
REMARK    9  A    between atoms: C_21  and  C_22
REMARK                            x       y       z     vdW  Elec       q    Type
REMARK                         _______ _______ _______ _____ _____    ______ ____
ROOT
ATOM      1  N   UNL     1       1.542   8.247  21.505  0.00  0.00    +0.000 N 
ATOM      2  C   UNL     1       0.249   8.498  21.931  0.00  0.00    +0.000 C 
ATOM      3  O   UNL     1      -0.765   7.993  21.454  0.00  0.00    +0.000 OA
ATOM      4  H   UNL     1       2.301   8.551  22.099  0.00  0.00    +0.000 HD
ENDROOT
BRANCH   1   9
ATOM      5  C   UNL     1       2.258   5.233  19.447  0.00  0.00    +0.000 A 
ATOM      6  C   UNL     1       2.518   5.803  18.197  0.00  0.00    +0.000 A 
ATOM      7  C   UNL     1       2.472   7.185  18.039  0.00  0.00    +0.000 A 
ATOM      8  C   UNL     1       2.161   8.002  19.125  0.00  0.00    +0.000 A 
ATOM      9  C   UNL     1       1.880   7.453  20.381  0.00  0.00    +0.000 A 
ATOM     10  C   UNL     1       1.959   6.064  20.539  0.00  0.00    +0.000 A 
BRANCH   5  12
ATOM     11  C   UNL     1       4.144   3.199  19.462  0.00  0.00    +0.000 C 
ATOM     12  S   UNL     1       2.364   3.467  19.701  0.00  0.00    +0.000 S 
ENDBRANCH   5  12
ENDBRANCH   1   9
BRANCH   2  13
ATOM     13  C   UNL     1       0.157   9.468  23.095  0.00  0.00    +0.000 C 
BRANCH  13  14
ATOM     14  C   UNL     1      -0.661  10.693  22.681  0.00  0.00    +0.000 C 
BRANCH  14  15
ATOM     15  C   UNL     1       0.039  11.538  21.629  0.00  0.00    +0.000 C 
BRANCH  15  16
ATOM     16  O   UNL     1      -0.959  12.264  20.913  0.00  0.00    +0.000 OA
BRANCH  16  17
ATOM     17  C   UNL     1      -1.538  11.674  19.822  0.00  0.00    +0.000 A 
ATOM     18  C   UNL     1      -0.639  10.895  19.074  0.00  0.00    +0.000 A 
ATOM     19  C   UNL     1      -1.031  10.277  17.884  0.00  0.00    +0.000 A 
ATOM     20  C   UNL     1      -2.332  10.436  17.431  0.00  0.00    +0.000 A 
ATOM     21 CL   UNL     1      -2.833   9.706  15.958  0.00  0.00    +0.000 Cl
ATOM     22  C   UNL     1      -3.234  11.209  18.157  0.00  0.00    +0.000 A 
ATOM     23  C   UNL     1      -2.849  11.855  19.351  0.00  0.00    +0.000 A 
ATOM     24  C   UNL     1      -3.876  12.730  20.007  0.00  0.00    +0.000 C 
ENDBRANCH  16  17
ENDBRANCH  15  16
ENDBRANCH  14  15
ENDBRANCH  13  14
ENDBRANCH   2  13
TORSDOF 7
ENDMDL
MODEL 9
REMARK VINA RESULT:      -6.5      5.456      7.443
REMARK  Name = 
REMARK  9 active torsions:
REMARK  status: ('A' for Active; 'I' for Inactive)
REMARK    1  A    between atoms: C_1  and  S_2
REMARK    2  A    between atoms: S_2  and  C_3
REMARK    3  A    between atoms: C_7  and  N_8
REMARK    4  A    between atoms: C_9  and  C_11
REMARK    5  A    between atoms: C_11  and  C_12
REMARK    6  A    between atoms: C_12  and  C_13
REMARK    7  A    between atoms: C_13  and  O_14
REMARK    8  A    between atoms: O_14  and  C_15
REMARK    9  A    between atoms: C_21  and  C_22
REMARK                            x       y       z     vdW  Elec       q    Type
REMARK                         _______ _______ _______ _____ _____    ______ ____
ROOT
ATOM      1  N   UNL     1       6.366   5.913  18.321  0.00  0.00    +0.000 N 
ATOM      2  C   UNL     1       6.673   6.846  17.346  0.00  0.00    +0.000 C 
ATOM      3  O   UNL     1       5.943   7.158  16.408  0.00  0.00    +0.000 OA
ATOM      4  H   UNL     1       6.943   5.890  19.150  0.00  0.00    +0.000 HD
ENDROOT
BRANCH   1   9
ATOM      5  C   UNL     1       3.110   4.471  19.395  0.00  0.00    +0.000 A 
ATOM      6  C   UNL     1       2.866   3.542  18.380  0.00  0.00    +0.000 A 
ATOM      7  C   UNL     1       3.786   3.381  17.349  0.00  0.00    +0.000 A 
ATOM      8  C   UNL     1       4.949   4.151  17.323  0.00  0.00    +0.000 A 
ATOM      9  C   UNL     1       5.206   5.099  18.320  0.00  0.00    +0.000 A 
ATOM     10  C   UNL     1       4.290   5.233  19.370  0.00  0.00    +0.000 A 
BRANCH   5  12
ATOM     11  C   UNL     1       1.002   3.143  20.614  0.00  0.00    +0.000 C 
ATOM     12  S   UNL     1       1.980   4.664  20.767  0.00  0.00    +0.000 S 
ENDBRANCH   5  12
ENDBRANCH   1   9
BRANCH   2  13
ATOM     13  C   UNL     1       8.028   7.508  17.526  0.00  0.00    +0.000 C 
BRANCH  13  14
ATOM     14  C   UNL     1       7.837   8.996  17.830  0.00  0.00    +0.000 C 
BRANCH  14  15
ATOM     15  C   UNL     1       8.852   9.525  18.831  0.00  0.00    +0.000 C 
BRANCH  15  16
ATOM     16  O   UNL     1       9.524  10.631  18.232  0.00  0.00    +0.000 OA
BRANCH  16  17
ATOM     17  C   UNL     1       9.839  11.706  19.019  0.00  0.00    +0.000 A 
ATOM     18  C   UNL     1       9.510  11.516  20.372  0.00  0.00    +0.000 A 
ATOM     19  C   UNL     1       9.689  12.533  21.312  0.00  0.00    +0.000 A 
ATOM     20  C   UNL     1      10.199  13.756  20.903  0.00  0.00    +0.000 A 
ATOM     21 CL   UNL     1      10.405  15.032  22.035  0.00  0.00    +0.000 Cl
ATOM     22  C   UNL     1      10.523  13.964  19.565  0.00  0.00    +0.000 A 
ATOM     23  C   UNL     1      10.332  12.953  18.599  0.00  0.00    +0.000 A 
ATOM     24  C   UNL     1      10.637  13.313  17.175  0.00  0.00    +0.000 C 
ENDBRANCH  16  17
ENDBRANCH  15  16
ENDBRANCH  14  15
ENDBRANCH  13  14
ENDBRANCH   2  13
TORSDOF 7
ENDMDL
