MODEL 1
REMARK VINA RESULT:      -7.6      0.000      0.000
REMARK  Name = 
REMARK  13 active torsions:
REMARK  status: ('A' for Active; 'I' for Inactive)
REMARK    1  A    between atoms: C_1  and  O_2
REMARK    2  A    between atoms: O_2  and  C_3
REMARK    3  A    between atoms: C_8  and  C_9
REMARK    4  A    between atoms: C_9  and  N_10
REMARK    5  A    between atoms: C_11  and  C_13
REMARK    6  A    between atoms: C_13  and  C_14
REMARK    7  A    between atoms: C_14  and  C_15
REMARK    8  A    between atoms: C_15  and  C_16
REMARK    9  A    between atoms: C_16  and  C_17
REMARK   10  A    between atoms: C_17  and  N_18
REMARK   11  A    between atoms: N_21  and  C_22
REMARK   12  A    between atoms: C_27  and  O_28
REMARK   13  A    between atoms: O_28  and  C_29
REMARK                            x       y       z     vdW  Elec       q    Type
REMARK                         _______ _______ _______ _____ _____    ______ ____
ROOT
ATOM      1  C   UNL     1       1.601   6.462  20.855  0.00  0.00    +0.000 C 
ENDROOT
BRANCH   1   2
ATOM      2  C   UNL     1       0.626   7.558  21.331  0.00  0.00    +0.000 C 
BRANCH   2   3
ATOM      3  C   UNL     1       1.245   8.921  21.751  0.00  0.00    +0.000 C 
BRANCH   3   5
ATOM      4  N   UNL     1      -0.056  11.113  21.889  0.00  0.00    +0.000 N 
ATOM      5  C   UNL     1       0.297   9.905  22.422  0.00  0.00    +0.000 C 
ATOM      6  O   UNL     1      -0.128   9.613  23.531  0.00  0.00    +0.000 OA
ATOM      7  H   UNL     1      -0.614  11.751  22.479  0.00  0.00    +0.000 HD
BRANCH   4   8
ATOM      8  C   UNL     1       0.360  11.601  20.585  0.00  0.00    +0.000 C 
BRANCH   8  14
ATOM      9  C   UNL     1      -0.465  10.231  18.527  0.00  0.00    +0.000 A 
ATOM     10  C   UNL     1      -1.491  10.032  17.592  0.00  0.00    +0.000 A 
ATOM     11  C   UNL     1      -2.678  10.765  17.648  0.00  0.00    +0.000 A 
ATOM     12  C   UNL     1      -2.860  11.720  18.643  0.00  0.00    +0.000 A 
ATOM     13  C   UNL     1      -1.864  11.941  19.584  0.00  0.00    +0.000 A 
ATOM     14  C   UNL     1      -0.656  11.218  19.547  0.00  0.00    +0.000 A 
BRANCH   9  16
ATOM     15  C   UNL     1       1.923   9.852  17.947  0.00  0.00    +0.000 C 
ATOM     16  O   UNL     1       0.658   9.473  18.349  0.00  0.00    +0.000 OA
ENDBRANCH   9  16
ENDBRANCH   8  14
ENDBRANCH   4   8
ENDBRANCH   3   5
ENDBRANCH   2   3
ENDBRANCH   1   2
BRANCH   1  17
ATOM     17  C   UNL     1       0.900   5.152  20.472  0.00  0.00    +0.000 C 
BRANCH  17  18
ATOM     18  C   UNL     1       1.775   3.917  20.611  0.00  0.00    +0.000 C 
BRANCH  18  19
ATOM     19  N   UNL     1       1.950   3.162  19.349  0.00  0.00    +0.000 NA
ATOM     20  C   UNL     1       1.874   3.988  18.119  0.00  0.00    +0.000 C 
ATOM     21  C   UNL     1       3.047   4.962  18.024  0.00  0.00    +0.000 C 
ATOM     22  N   UNL     1       4.289   4.185  18.057  0.00  0.00    +0.000 N 
ATOM     23  C   UNL     1       4.456   3.309  19.212  0.00  0.00    +0.000 C 
ATOM     24  C   UNL     1       3.221   2.393  19.368  0.00  0.00    +0.000 C 
BRANCH  22  25
ATOM     25  C   UNL     1       5.267   4.343  17.012  0.00  0.00    +0.000 A 
ATOM     26  C   UNL     1       4.842   4.188  15.673  0.00  0.00    +0.000 A 
ATOM     27  C   UNL     1       5.717   4.327  14.604  0.00  0.00    +0.000 A 
ATOM     28  C   UNL     1       7.053   4.624  14.838  0.00  0.00    +0.000 A 
ATOM     29  C   UNL     1       7.513   4.786  16.143  0.00  0.00    +0.000 A 
ATOM     30  C   UNL     1       6.640   4.657  17.251  0.00  0.00    +0.000 A 
BRANCH  30  31
ATOM     31  O   UNL     1       7.114   4.796  18.520  0.00  0.00    +0.000 OA
ATOM     32  C   UNL     1       7.814   5.894  18.991  0.00  0.00    +0.000 C 
ENDBRANCH  30  31
ENDBRANCH  22  25
ENDBRANCH  18  19
ENDBRANCH  17  18
ENDBRANCH   1  17
TORSDOF 11
ENDMDL
MODEL 2
REMARK VINA RESULT:      -7.4      6.162      8.849
REMARK  Name = 
REMARK  13 active torsions:
REMARK  status: ('A' for Active; 'I' for Inactive)
REMARK    1  A    between atoms: C_1  and  O_2
REMARK    2  A    between atoms: O_2  and  C_3
REMARK    3  A    between atoms: C_8  and  C_9
REMARK    4  A    between atoms: C_9  and  N_10
REMARK    5  A    between atoms: C_11  and  C_13
REMARK    6  A    between atoms: C_13  and  C_14
REMARK    7  A    between atoms: C_14  and  C_15
REMARK    8  A    between atoms: C_15  and  C_16
REMARK    9  A    between atoms: C_16  and  C_17
REMARK   10  A    between atoms: C_17  and  N_18
REMARK   11  A    between atoms: N_21  and  C_22
REMARK   12  A    between atoms: C_27  and  O_28
REMARK   13  A    between atoms: O_28  and  C_29
REMARK                            x       y       z     vdW  Elec       q    Type
REMARK                         _______ _______ _______ _____ _____    ______ ____
ROOT
ATOM      1  C   UNL     1       8.976   9.943  18.774  0.00  0.00    +0.000 C 
ENDROOT
BRANCH   1   2
ATOM      2  C   UNL     1       9.137  11.309  18.078  0.00  0.00    +0.000 C 
BRANCH   2   3
ATOM      3  C   UNL     1      10.563  11.685  17.584  0.00  0.00    +0.000 C 
BRANCH   3   5
ATOM      4  N   UNL     1      11.326  13.438  19.276  0.00  0.00    +0.000 N 
ATOM      5  C   UNL     1      11.065  13.064  17.988  0.00  0.00    +0.000 C 
ATOM      6  O   UNL     1      11.189  13.902  17.104  0.00  0.00    +0.000 OA
ATOM      7  H   UNL     1      11.552  14.431  19.450  0.00  0.00    +0.000 HD
BRANCH   4   8
ATOM      8  C   UNL     1      11.233  12.562  20.432  0.00  0.00    +0.000 C 
BRANCH   8  14
ATOM      9  C   UNL     1       9.898  14.346  21.783  0.00  0.00    +0.000 A 
ATOM     10  C   UNL     1       8.833  14.590  22.662  0.00  0.00    +0.000 A 
ATOM     11  C   UNL     1       7.985  13.561  23.078  0.00  0.00    +0.000 A 
ATOM     12  C   UNL     1       8.191  12.262  22.625  0.00  0.00    +0.000 A 
ATOM     13  C   UNL     1       9.236  11.988  21.754  0.00  0.00    +0.000 A 
ATOM     14  C   UNL     1      10.108  13.007  21.322  0.00  0.00    +0.000 A 
BRANCH   9  16
ATOM     15  C   UNL     1      10.401  16.497  20.642  0.00  0.00    +0.000 C 
ATOM     16  O   UNL     1      10.672  15.428  21.473  0.00  0.00    +0.000 OA
ENDBRANCH   9  16
ENDBRANCH   8  14
ENDBRANCH   4   8
ENDBRANCH   3   5
ENDBRANCH   2   3
ENDBRANCH   1   2
BRANCH   1  17
ATOM     17  C   UNL     1       8.233   8.910  17.915  0.00  0.00    +0.000 C 
BRANCH  17  18
ATOM     18  C   UNL     1       8.158   7.525  18.538  0.00  0.00    +0.000 C 
BRANCH  18  19
ATOM     19  N   UNL     1       7.760   6.462  17.586  0.00  0.00    +0.000 NA
ATOM     20  C   UNL     1       7.483   5.146  18.210  0.00  0.00    +0.000 C 
ATOM     21  C   UNL     1       6.245   5.196  19.102  0.00  0.00    +0.000 C 
ATOM     22  N   UNL     1       5.112   5.637  18.284  0.00  0.00    +0.000 N 
ATOM     23  C   UNL     1       5.286   6.910  17.596  0.00  0.00    +0.000 C 
ATOM     24  C   UNL     1       6.595   6.895  16.773  0.00  0.00    +0.000 C 
BRANCH  22  25
ATOM     25  C   UNL     1       3.909   4.844  18.231  0.00  0.00    +0.000 A 
ATOM     26  C   UNL     1       2.823   5.228  19.049  0.00  0.00    +0.000 A 
ATOM     27  C   UNL     1       1.627   4.523  19.058  0.00  0.00    +0.000 A 
ATOM     28  C   UNL     1       1.476   3.406  18.248  0.00  0.00    +0.000 A 
ATOM     29  C   UNL     1       2.523   2.995  17.426  0.00  0.00    +0.000 A 
ATOM     30  C   UNL     1       3.751   3.700  17.392  0.00  0.00    +0.000 A 
BRANCH  30  31
ATOM     31  O   UNL     1       4.770   3.268  16.599  0.00  0.00    +0.000 OA
ATOM     32  C   UNL     1       5.193   3.893  15.438  0.00  0.00    +0.000 C 
ENDBRANCH  30  31
ENDBRANCH  22  25
ENDBRANCH  18  19
ENDBRANCH  17  18
ENDBRANCH   1  17
TORSDOF 11
ENDMDL
MODEL 3
REMARK VINA RESULT:      -7.3      6.805     10.483
REMARK  Name = 
REMARK  13 active torsions:
REMARK  status: ('A' for Active; 'I' for Inactive)
REMARK    1  A    between atoms: C_1  and  O_2
REMARK    2  A    between atoms: O_2  and  C_3
REMARK    3  A    between atoms: C_8  and  C_9
REMARK    4  A    between atoms: C_9  and  N_10
REMARK    5  A    between atoms: C_11  and  C_13
REMARK    6  A    between atoms: C_13  and  C_14
REMARK    7  A    between atoms: C_14  and  C_15
REMARK    8  A    between atoms: C_15  and  C_16
REMARK    9  A    between atoms: C_16  and  C_17
REMARK   10  A    between atoms: C_17  and  N_18
REMARK   11  A    between atoms: N_21  and  C_22
REMARK   12  A    between atoms: C_27  and  O_28
REMARK   13  A    between atoms: O_28  and  C_29
REMARK                            x       y       z     vdW  Elec       q    Type
REMARK                         _______ _______ _______ _____ _____    ______ ____
ROOT
ATOM      1  C   UNL     1       7.798   8.686  17.486  0.00  0.00    +0.000 C 
ENDROOT
BRANCH   1   2
ATOM      2  C   UNL     1       6.949   7.441  17.813  0.00  0.00    +0.000 C 
BRANCH   2   3
ATOM      3  C   UNL     1       7.703   6.198  18.364  0.00  0.00    +0.000 C 
BRANCH   3   5
ATOM      4  N   UNL     1       6.391   4.019  18.143  0.00  0.00    +0.000 N 
ATOM      5  C   UNL     1       7.367   4.868  17.703  0.00  0.00    +0.000 C 
ATOM      6  O   UNL     1       8.053   4.520  16.751  0.00  0.00    +0.000 OA
ATOM      7  H   UNL     1       6.324   3.093  17.690  0.00  0.00    +0.000 HD
BRANCH   4   8
ATOM      8  C   UNL     1       5.492   4.288  19.252  0.00  0.00    +0.000 C 
BRANCH   8  14
ATOM      9  C   UNL     1       3.221   5.271  18.435  0.00  0.00    +0.000 A 
ATOM     10  C   UNL     1       1.889   5.003  18.086  0.00  0.00    +0.000 A 
ATOM     11  C   UNL     1       1.390   3.698  18.076  0.00  0.00    +0.000 A 
ATOM     12  C   UNL     1       2.216   2.634  18.422  0.00  0.00    +0.000 A 
ATOM     13  C   UNL     1       3.539   2.866  18.772  0.00  0.00    +0.000 A 
ATOM     14  C   UNL     1       4.066   4.173  18.794  0.00  0.00    +0.000 A 
BRANCH   9  16
ATOM     15  C   UNL     1       3.223   7.600  17.565  0.00  0.00    +0.000 C 
ATOM     16  O   UNL     1       3.581   6.589  18.434  0.00  0.00    +0.000 OA
ENDBRANCH   9  16
ENDBRANCH   8  14
ENDBRANCH   4   8
ENDBRANCH   3   5
ENDBRANCH   2   3
ENDBRANCH   1   2
BRANCH   1  17
ATOM     17  C   UNL     1       8.667   9.152  18.663  0.00  0.00    +0.000 C 
BRANCH  17  18
ATOM     18  C   UNL     1       9.485  10.400  18.373  0.00  0.00    +0.000 C 
BRANCH  18  19
ATOM     19  N   UNL     1      10.132  10.983  19.572  0.00  0.00    +0.000 NA
ATOM     20  C   UNL     1      11.436  11.640  19.312  0.00  0.00    +0.000 C 
ATOM     21  C   UNL     1      11.273  12.890  18.450  0.00  0.00    +0.000 C 
ATOM     22  N   UNL     1      10.354  13.802  19.137  0.00  0.00    +0.000 N 
ATOM     23  C   UNL     1       9.047  13.249  19.472  0.00  0.00    +0.000 C 
ATOM     24  C   UNL     1       9.213  11.928  20.257  0.00  0.00    +0.000 C 
BRANCH  22  25
ATOM     25  C   UNL     1      10.753  15.160  19.406  0.00  0.00    +0.000 A 
ATOM     26  C   UNL     1      11.878  15.372  20.234  0.00  0.00    +0.000 A 
ATOM     27  C   UNL     1      12.333  16.647  20.541  0.00  0.00    +0.000 A 
ATOM     28  C   UNL     1      11.675  17.758  20.032  0.00  0.00    +0.000 A 
ATOM     29  C   UNL     1      10.561  17.593  19.211  0.00  0.00    +0.000 A 
ATOM     30  C   UNL     1      10.082  16.303  18.875  0.00  0.00    +0.000 A 
BRANCH  30  31
ATOM     31  O   UNL     1       8.978  16.164  18.090  0.00  0.00    +0.000 OA
ATOM     32  C   UNL     1       7.721  16.659  18.390  0.00  0.00    +0.000 C 
ENDBRANCH  30  31
ENDBRANCH  22  25
ENDBRANCH  18  19
ENDBRANCH  17  18
ENDBRANCH   1  17
TORSDOF 11
ENDMDL
MODEL 4
REMARK VINA RESULT:      -7.3      6.649     10.283
REMARK  Name = 
REMARK  13 active torsions:
REMARK  status: ('A' for Active; 'I' for Inactive)
REMARK    1  A    between atoms: C_1  and  O_2
REMARK    2  A    between atoms: O_2  and  C_3
REMARK    3  A    between atoms: C_8  and  C_9
REMARK    4  A    between atoms: C_9  and  N_10
REMARK    5  A    between atoms: C_11  and  C_13
REMARK    6  A    between atoms: C_13  and  C_14
REMARK    7  A    between atoms: C_14  and  C_15
REMARK    8  A    between atoms: C_15  and  C_16
REMARK    9  A    between atoms: C_16  and  C_17
REMARK   10  A    between atoms: C_17  and  N_18
REMARK   11  A    between atoms: N_21  and  C_22
REMARK   12  A    between atoms: C_27  and  O_28
REMARK   13  A    between atoms: O_28  and  C_29
REMARK                            x       y       z     vdW  Elec       q    Type
REMARK                         _______ _______ _______ _____ _____    ______ ____
ROOT
ATOM      1  C   UNL     1       8.235   7.770  18.425  0.00  0.00    +0.000 C 
ENDROOT
BRANCH   1   2
ATOM      2  C   UNL     1       7.504   6.849  17.427  0.00  0.00    +0.000 C 
BRANCH   2   3
ATOM      3  C   UNL     1       5.970   7.052  17.273  0.00  0.00    +0.000 C 
BRANCH   3   5
ATOM      4  N   UNL     1       4.892   4.952  16.303  0.00  0.00    +0.000 N 
ATOM      5  C   UNL     1       5.299   6.249  16.167  0.00  0.00    +0.000 C 
ATOM      6  O   UNL     1       5.170   6.786  15.076  0.00  0.00    +0.000 OA
ATOM      7  H   UNL     1       4.553   4.466  15.457  0.00  0.00    +0.000 HD
BRANCH   4   8
ATOM      8  C   UNL     1       4.971   4.179  17.531  0.00  0.00    +0.000 C 
BRANCH   8  14
ATOM      9  C   UNL     1       2.441   4.461  18.091  0.00  0.00    +0.000 A 
ATOM     10  C   UNL     1       1.256   3.828  18.492  0.00  0.00    +0.000 A 
ATOM     11  C   UNL     1       1.201   2.446  18.690  0.00  0.00    +0.000 A 
ATOM     12  C   UNL     1       2.339   1.669  18.496  0.00  0.00    +0.000 A 
ATOM     13  C   UNL     1       3.528   2.266  18.099  0.00  0.00    +0.000 A 
ATOM     14  C   UNL     1       3.610   3.657  17.896  0.00  0.00    +0.000 A 
BRANCH   9  16
ATOM     15  C   UNL     1       2.664   6.810  18.875  0.00  0.00    +0.000 C 
ATOM     16  O   UNL     1       2.374   5.819  17.958  0.00  0.00    +0.000 OA
ENDBRANCH   9  16
ENDBRANCH   8  14
ENDBRANCH   4   8
ENDBRANCH   3   5
ENDBRANCH   2   3
ENDBRANCH   1   2
BRANCH   1  17
ATOM     17  C   UNL     1       8.346   9.222  17.940  0.00  0.00    +0.000 C 
BRANCH  17  18
ATOM     18  C   UNL     1       8.963  10.169  18.956  0.00  0.00    +0.000 C 
BRANCH  18  19
ATOM     19  N   UNL     1       9.872  11.176  18.360  0.00  0.00    +0.000 NA
ATOM     20  C   UNL     1       9.252  12.500  18.116  0.00  0.00    +0.000 C 
ATOM     21  C   UNL     1       8.886  13.199  19.424  0.00  0.00    +0.000 C 
ATOM     22  N   UNL     1      10.104  13.331  20.227  0.00  0.00    +0.000 N 
ATOM     23  C   UNL     1      10.816  12.089  20.504  0.00  0.00    +0.000 C 
ATOM     24  C   UNL     1      11.097  11.331  19.186  0.00  0.00    +0.000 C 
BRANCH  22  25
ATOM     25  C   UNL     1      10.506  14.623  20.722  0.00  0.00    +0.000 A 
ATOM     26  C   UNL     1      11.655  15.222  20.160  0.00  0.00    +0.000 A 
ATOM     27  C   UNL     1      12.111  16.467  20.575  0.00  0.00    +0.000 A 
ATOM     28  C   UNL     1      11.431  17.156  21.570  0.00  0.00    +0.000 A 
ATOM     29  C   UNL     1      10.292  16.600  22.149  0.00  0.00    +0.000 A 
ATOM     30  C   UNL     1       9.802  15.336  21.739  0.00  0.00    +0.000 A 
BRANCH  30  31
ATOM     31  O   UNL     1       8.700  14.801  22.334  0.00  0.00    +0.000 OA
ATOM     32  C   UNL     1       8.719  13.782  23.271  0.00  0.00    +0.000 C 
ENDBRANCH  30  31
ENDBRANCH  22  25
ENDBRANCH  18  19
ENDBRANCH  17  18
ENDBRANCH   1  17
TORSDOF 11
ENDMDL
MODEL 5
REMARK VINA RESULT:      -7.3      6.893     10.611
REMARK  Name = 
REMARK  13 active torsions:
REMARK  status: ('A' for Active; 'I' for Inactive)
REMARK    1  A    between atoms: C_1  and  O_2
REMARK    2  A    between atoms: O_2  and  C_3
REMARK    3  A    between atoms: C_8  and  C_9
REMARK    4  A    between atoms: C_9  and  N_10
REMARK    5  A    between atoms: C_11  and  C_13
REMARK    6  A    between atoms: C_13  and  C_14
REMARK    7  A    between atoms: C_14  and  C_15
REMARK    8  A    between atoms: C_15  and  C_16
REMARK    9  A    between atoms: C_16  and  C_17
REMARK   10  A    between atoms: C_17  and  N_18
REMARK   11  A    between atoms: N_21  and  C_22
REMARK   12  A    between atoms: C_27  and  O_28
REMARK   13  A    between atoms: O_28  and  C_29
REMARK                            x       y       z     vdW  Elec       q    Type
REMARK                         _______ _______ _______ _____ _____    ______ ____
ROOT
ATOM      1  C   UNL     1       8.086   8.423  17.521  0.00  0.00    +0.000 C 
ENDROOT
BRANCH   1   2
ATOM      2  C   UNL     1       7.773   6.999  18.025  0.00  0.00    +0.000 C 
BRANCH   2   3
ATOM      3  C   UNL     1       6.733   6.176  17.212  0.00  0.00    +0.000 C 
BRANCH   3   5
ATOM      4  N   UNL     1       6.028   3.743  16.898  0.00  0.00    +0.000 N 
ATOM      5  C   UNL     1       6.999   4.681  17.112  0.00  0.00    +0.000 C 
ATOM      6  O   UNL     1       8.147   4.297  17.289  0.00  0.00    +0.000 OA
ATOM      7  H   UNL     1       6.301   2.749  16.962  0.00  0.00    +0.000 HD
BRANCH   4   8
ATOM      8  C   UNL     1       4.624   4.037  16.666  0.00  0.00    +0.000 C 
BRANCH   8  14
ATOM      9  C   UNL     1       2.997   5.033  18.442  0.00  0.00    +0.000 A 
ATOM     10  C   UNL     1       2.415   4.882  19.709  0.00  0.00    +0.000 A 
ATOM     11  C   UNL     1       2.668   3.755  20.494  0.00  0.00    +0.000 A 
ATOM     12  C   UNL     1       3.517   2.756  20.026  0.00  0.00    +0.000 A 
ATOM     13  C   UNL     1       4.108   2.877  18.776  0.00  0.00    +0.000 A 
ATOM     14  C   UNL     1       3.872   4.005  17.966  0.00  0.00    +0.000 A 
BRANCH   9  16
ATOM     15  C   UNL     1       3.079   7.488  18.059  0.00  0.00    +0.000 C 
ATOM     16  O   UNL     1       2.694   6.192  17.784  0.00  0.00    +0.000 OA
ENDBRANCH   9  16
ENDBRANCH   8  14
ENDBRANCH   4   8
ENDBRANCH   3   5
ENDBRANCH   2   3
ENDBRANCH   1   2
BRANCH   1  17
ATOM     17  C   UNL     1       8.646   9.342  18.616  0.00  0.00    +0.000 C 
BRANCH  17  18
ATOM     18  C   UNL     1       8.865  10.778  18.167  0.00  0.00    +0.000 C 
BRANCH  18  19
ATOM     19  N   UNL     1       9.863  11.512  18.979  0.00  0.00    +0.000 NA
ATOM     20  C   UNL     1      10.997  12.073  18.204  0.00  0.00    +0.000 C 
ATOM     21  C   UNL     1      10.538  13.182  17.259  0.00  0.00    +0.000 C 
ATOM     22  N   UNL     1       9.886  14.221  18.059  0.00  0.00    +0.000 N 
ATOM     23  C   UNL     1       8.772  13.776  18.888  0.00  0.00    +0.000 C 
ATOM     24  C   UNL     1       9.209  12.585  19.771  0.00  0.00    +0.000 C 
BRANCH  22  25
ATOM     25  C   UNL     1      10.330  15.589  17.965  0.00  0.00    +0.000 A 
ATOM     26  C   UNL     1      11.596  15.840  17.391  0.00  0.00    +0.000 A 
ATOM     27  C   UNL     1      12.100  17.126  17.258  0.00  0.00    +0.000 A 
ATOM     28  C   UNL     1      11.353  18.210  17.699  0.00  0.00    +0.000 A 
ATOM     29  C   UNL     1      10.099  18.007  18.270  0.00  0.00    +0.000 A 
ATOM     30  C   UNL     1       9.559  16.705  18.410  0.00  0.00    +0.000 A 
BRANCH  30  31
ATOM     31  O   UNL     1       8.341  16.526  18.993  0.00  0.00    +0.000 OA
ATOM     32  C   UNL     1       7.209  17.273  18.715  0.00  0.00    +0.000 C 
ENDBRANCH  30  31
ENDBRANCH  22  25
ENDBRANCH  18  19
ENDBRANCH  17  18
ENDBRANCH   1  17
TORSDOF 11
ENDMDL
MODEL 6
REMARK VINA RESULT:      -7.3      6.510      8.817
REMARK  Name = 
REMARK  13 active torsions:
REMARK  status: ('A' for Active; 'I' for Inactive)
REMARK    1  A    between atoms: C_1  and  O_2
REMARK    2  A    between atoms: O_2  and  C_3
REMARK    3  A    between atoms: C_8  and  C_9
REMARK    4  A    between atoms: C_9  and  N_10
REMARK    5  A    between atoms: C_11  and  C_13
REMARK    6  A    between atoms: C_13  and  C_14
REMARK    7  A    between atoms: C_14  and  C_15
REMARK    8  A    between atoms: C_15  and  C_16
REMARK    9  A    between atoms: C_16  and  C_17
REMARK   10  A    between atoms: C_17  and  N_18
REMARK   11  A    between atoms: N_21  and  C_22
REMARK   12  A    between atoms: C_27  and  O_28
REMARK   13  A    between atoms: O_28  and  C_29
REMARK                            x       y       z     vdW  Elec       q    Type
REMARK                         _______ _______ _______ _____ _____    ______ ____
ROOT
ATOM      1  C   UNL     1       8.658   9.662  18.629  0.00  0.00    +0.000 C 
ENDROOT
BRANCH   1   2
ATOM      2  C   UNL     1       9.482  10.727  17.878  0.00  0.00    +0.000 C 
BRANCH   2   3
ATOM      3  C   UNL     1      10.724  11.308  18.613  0.00  0.00    +0.000 C 
BRANCH   3   5
ATOM      4  N   UNL     1      10.428  13.715  19.409  0.00  0.00    +0.000 N 
ATOM      5  C   UNL     1      10.438  12.372  19.663  0.00  0.00    +0.000 C 
ATOM      6  O   UNL     1      10.261  11.998  20.815  0.00  0.00    +0.000 OA
ATOM      7  H   UNL     1      10.336  14.353  20.216  0.00  0.00    +0.000 HD
BRANCH   4   8
ATOM      8  C   UNL     1      10.615  14.316  18.100  0.00  0.00    +0.000 C 
BRANCH   8  14
ATOM      9  C   UNL     1       8.857  16.177  18.584  0.00  0.00    +0.000 A 
ATOM     10  C   UNL     1       8.537  17.539  18.477  0.00  0.00    +0.000 A 
ATOM     11  C   UNL     1       9.441  18.457  17.938  0.00  0.00    +0.000 A 
ATOM     12  C   UNL     1      10.686  18.027  17.488  0.00  0.00    +0.000 A 
ATOM     13  C   UNL     1      11.033  16.686  17.581  0.00  0.00    +0.000 A 
ATOM     14  C   UNL     1      10.138  15.740  18.117  0.00  0.00    +0.000 A 
BRANCH   9  16
ATOM     15  C   UNL     1       6.606  15.701  19.526  0.00  0.00    +0.000 C 
ATOM     16  O   UNL     1       7.879  15.376  19.102  0.00  0.00    +0.000 OA
ENDBRANCH   9  16
ENDBRANCH   8  14
ENDBRANCH   4   8
ENDBRANCH   3   5
ENDBRANCH   2   3
ENDBRANCH   1   2
BRANCH   1  17
ATOM     17  C   UNL     1       7.999   8.638  17.696  0.00  0.00    +0.000 C 
BRANCH  17  18
ATOM     18  C   UNL     1       7.979   7.221  18.247  0.00  0.00    +0.000 C 
BRANCH  18  19
ATOM     19  N   UNL     1       7.447   6.217  17.296  0.00  0.00    +0.000 NA
ATOM     20  C   UNL     1       7.267   4.860  17.867  0.00  0.00    +0.000 C 
ATOM     21  C   UNL     1       6.173   4.839  18.933  0.00  0.00    +0.000 C 
ATOM     22  N   UNL     1       4.931   5.318  18.320  0.00  0.00    +0.000 N 
ATOM     23  C   UNL     1       5.000   6.635  17.698  0.00  0.00    +0.000 C 
ATOM     24  C   UNL     1       6.174   6.688  16.693  0.00  0.00    +0.000 C 
BRANCH  22  25
ATOM     25  C   UNL     1       3.736   4.518  18.393  0.00  0.00    +0.000 A 
ATOM     26  C   UNL     1       3.659   3.361  17.584  0.00  0.00    +0.000 A 
ATOM     27  C   UNL     1       2.546   2.532  17.594  0.00  0.00    +0.000 A 
ATOM     28  C   UNL     1       1.467   2.832  18.413  0.00  0.00    +0.000 A 
ATOM     29  C   UNL     1       1.502   3.962  19.227  0.00  0.00    +0.000 A 
ATOM     30  C   UNL     1       2.628   4.821  19.241  0.00  0.00    +0.000 A 
BRANCH  30  31
ATOM     31  O   UNL     1       2.633   5.934  20.026  0.00  0.00    +0.000 OA
ATOM     32  C   UNL     1       1.516   6.490  20.624  0.00  0.00    +0.000 C 
ENDBRANCH  30  31
ENDBRANCH  22  25
ENDBRANCH  18  19
ENDBRANCH  17  18
ENDBRANCH   1  17
TORSDOF 11
ENDMDL
MODEL 7
REMARK VINA RESULT:      -7.3      2.524      9.850
REMARK  Name = 
REMARK  13 active torsions:
REMARK  status: ('A' for Active; 'I' for Inactive)
REMARK    1  A    between atoms: C_1  and  O_2
REMARK    2  A    between atoms: O_2  and  C_3
REMARK    3  A    between atoms: C_8  and  C_9
REMARK    4  A    between atoms: C_9  and  N_10
REMARK    5  A    between atoms: C_11  and  C_13
REMARK    6  A    between atoms: C_13  and  C_14
REMARK    7  A    between atoms: C_14  and  C_15
REMARK    8  A    between atoms: C_15  and  C_16
REMARK    9  A    between atoms: C_16  and  C_17
REMARK   10  A    between atoms: C_17  and  N_18
REMARK   11  A    between atoms: N_21  and  C_22
REMARK   12  A    between atoms: C_27  and  O_28
REMARK   13  A    between atoms: O_28  and  C_29
REMARK                            x       y       z     vdW  Elec       q    Type
REMARK                         _______ _______ _______ _____ _____    ______ ____
ROOT
ATOM      1  C   UNL     1       1.873   5.549  20.849  0.00  0.00    +0.000 C 
ENDROOT
BRANCH   1   2
ATOM      2  C   UNL     1       1.419   4.447  19.870  0.00  0.00    +0.000 C 
BRANCH   2   3
ATOM      3  C   UNL     1       2.418   3.285  19.604  0.00  0.00    +0.000 C 
BRANCH   3   5
ATOM      4  N   UNL     1       3.128   3.739  17.195  0.00  0.00    +0.000 N 
ATOM      5  C   UNL     1       2.618   2.900  18.146  0.00  0.00    +0.000 C 
ATOM      6  O   UNL     1       2.247   1.787  17.798  0.00  0.00    +0.000 OA
ATOM      7  H   UNL     1       3.114   3.415  16.214  0.00  0.00    +0.000 HD
BRANCH   4   8
ATOM      8  C   UNL     1       3.615   5.084  17.447  0.00  0.00    +0.000 C 
BRANCH   8  14
ATOM      9  C   UNL     1       6.058   4.495  16.758  0.00  0.00    +0.000 A 
ATOM     10  C   UNL     1       7.410   4.494  17.132  0.00  0.00    +0.000 A 
ATOM     11  C   UNL     1       7.826   5.034  18.351  0.00  0.00    +0.000 A 
ATOM     12  C   UNL     1       6.893   5.583  19.225  0.00  0.00    +0.000 A 
ATOM     13  C   UNL     1       5.548   5.600  18.883  0.00  0.00    +0.000 A 
ATOM     14  C   UNL     1       5.102   5.058  17.662  0.00  0.00    +0.000 A 
BRANCH   9  16
ATOM     15  C   UNL     1       6.262   4.206  14.297  0.00  0.00    +0.000 C 
ATOM     16  O   UNL     1       5.775   3.913  15.555  0.00  0.00    +0.000 OA
ENDBRANCH   9  16
ENDBRANCH   8  14
ENDBRANCH   4   8
ENDBRANCH   3   5
ENDBRANCH   2   3
ENDBRANCH   1   2
BRANCH   1  17
ATOM     17  C   UNL     1       1.796   6.960  20.249  0.00  0.00    +0.000 C 
BRANCH  17  18
ATOM     18  C   UNL     1       0.806   7.878  20.949  0.00  0.00    +0.000 C 
BRANCH  18  19
ATOM     19  N   UNL     1       1.386   9.176  21.365  0.00  0.00    +0.000 NA
ATOM     20  C   UNL     1       0.880  10.349  20.612  0.00  0.00    +0.000 C 
ATOM     21  C   UNL     1      -0.600  10.602  20.894  0.00  0.00    +0.000 C 
ATOM     22  N   UNL     1      -0.761  10.798  22.337  0.00  0.00    +0.000 N 
ATOM     23  C   UNL     1      -0.268   9.716  23.181  0.00  0.00    +0.000 C 
ATOM     24  C   UNL     1       1.200   9.390  22.824  0.00  0.00    +0.000 C 
BRANCH  22  25
ATOM     25  C   UNL     1      -1.410  11.983  22.836  0.00  0.00    +0.000 A 
ATOM     26  C   UNL     1      -2.723  11.860  23.344  0.00  0.00    +0.000 A 
ATOM     27  C   UNL     1      -3.420  12.950  23.848  0.00  0.00    +0.000 A 
ATOM     28  C   UNL     1      -2.828  14.205  23.859  0.00  0.00    +0.000 A 
ATOM     29  C   UNL     1      -1.534  14.370  23.368  0.00  0.00    +0.000 A 
ATOM     30  C   UNL     1      -0.798  13.273  22.856  0.00  0.00    +0.000 A 
BRANCH  30  31
ATOM     31  O   UNL     1       0.456  13.460  22.359  0.00  0.00    +0.000 OA
ATOM     32  C   UNL     1       0.831  14.489  21.514  0.00  0.00    +0.000 C 
ENDBRANCH  30  31
ENDBRANCH  22  25
ENDBRANCH  18  19
ENDBRANCH  17  18
ENDBRANCH   1  17
TORSDOF 11
ENDMDL
MODEL 8
REMARK VINA RESULT:      -7.3      6.904     10.535
REMARK  Name = 
REMARK  13 active torsions:
REMARK  status: ('A' for Active; 'I' for Inactive)
REMARK    1  A    between atoms: C_1  and  O_2
REMARK    2  A    between atoms: O_2  and  C_3
REMARK    3  A    between atoms: C_8  and  C_9
REMARK    4  A    between atoms: C_9  and  N_10
REMARK    5  A    between atoms: C_11  and  C_13
REMARK    6  A    between atoms: C_13  and  C_14
REMARK    7  A    between atoms: C_14  and  C_15
REMARK    8  A    between atoms: C_15  and  C_16
REMARK    9  A    between atoms: C_16  and  C_17
REMARK   10  A    between atoms: C_17  and  N_18
REMARK   11  A    between atoms: N_21  and  C_22
REMARK   12  A    between atoms: C_27  and  O_28
REMARK   13  A    between atoms: O_28  and  C_29
REMARK                            x       y       z     vdW  Elec       q    Type
REMARK                         _______ _______ _______ _____ _____    ______ ____
ROOT
ATOM      1  C   UNL     1       7.883   8.538  17.453  0.00  0.00    +0.000 C 
ENDROOT
BRANCH   1   2
ATOM      2  C   UNL     1       7.031   7.284  17.737  0.00  0.00    +0.000 C 
BRANCH   2   3
ATOM      3  C   UNL     1       7.716   6.129  18.522  0.00  0.00    +0.000 C 
BRANCH   3   5
ATOM      4  N   UNL     1       6.320   3.993  18.494  0.00  0.00    +0.000 N 
ATOM      5  C   UNL     1       7.390   4.719  18.052  0.00  0.00    +0.000 C 
ATOM      6  O   UNL     1       8.168   4.188  17.272  0.00  0.00    +0.000 OA
ATOM      7  H   UNL     1       6.256   3.005  18.197  0.00  0.00    +0.000 HD
BRANCH   4   8
ATOM      8  C   UNL     1       5.306   4.480  19.414  0.00  0.00    +0.000 C 
BRANCH   8  14
ATOM      9  C   UNL     1       2.734   4.106  19.602  0.00  0.00    +0.000 A 
ATOM     10  C   UNL     1       1.541   3.827  18.919  0.00  0.00    +0.000 A 
ATOM     11  C   UNL     1       1.513   3.695  17.529  0.00  0.00    +0.000 A 
ATOM     12  C   UNL     1       2.686   3.835  16.793  0.00  0.00    +0.000 A 
ATOM     13  C   UNL     1       3.883   4.110  17.439  0.00  0.00    +0.000 A 
ATOM     14  C   UNL     1       3.938   4.245  18.840  0.00  0.00    +0.000 A 
BRANCH   9  16
ATOM     15  C   UNL     1       2.209   3.235  21.871  0.00  0.00    +0.000 C 
ATOM     16  O   UNL     1       2.635   4.183  20.962  0.00  0.00    +0.000 OA
ENDBRANCH   9  16
ENDBRANCH   8  14
ENDBRANCH   4   8
ENDBRANCH   3   5
ENDBRANCH   2   3
ENDBRANCH   1   2
BRANCH   1  17
ATOM     17  C   UNL     1       8.770   8.947  18.636  0.00  0.00    +0.000 C 
BRANCH  17  18
ATOM     18  C   UNL     1       8.958  10.449  18.780  0.00  0.00    +0.000 C 
BRANCH  18  19
ATOM     19  N   UNL     1       9.852  10.836  19.896  0.00  0.00    +0.000 NA
ATOM     20  C   UNL     1      11.146  11.425  19.475  0.00  0.00    +0.000 C 
ATOM     21  C   UNL     1      10.953  12.778  18.793  0.00  0.00    +0.000 C 
ATOM     22  N   UNL     1      10.254  13.664  19.728  0.00  0.00    +0.000 N 
ATOM     23  C   UNL     1       8.979  13.169  20.234  0.00  0.00    +0.000 C 
ATOM     24  C   UNL     1       9.155  11.755  20.832  0.00  0.00    +0.000 C 
BRANCH  22  25
ATOM     25  C   UNL     1      10.815  14.948  20.062  0.00  0.00    +0.000 A 
ATOM     26  C   UNL     1      10.741  15.378  21.406  0.00  0.00    +0.000 A 
ATOM     27  C   UNL     1      11.260  16.599  21.815  0.00  0.00    +0.000 A 
ATOM     28  C   UNL     1      11.870  17.436  20.891  0.00  0.00    +0.000 A 
ATOM     29  C   UNL     1      11.964  17.049  19.556  0.00  0.00    +0.000 A 
ATOM     30  C   UNL     1      11.451  15.806  19.114  0.00  0.00    +0.000 A 
BRANCH  30  31
ATOM     31  O   UNL     1      11.532  15.457  17.800  0.00  0.00    +0.000 OA
ATOM     32  C   UNL     1      11.005  16.187  16.749  0.00  0.00    +0.000 C 
ENDBRANCH  30  31
ENDBRANCH  22  25
ENDBRANCH  18  19
ENDBRANCH  17  18
ENDBRANCH   1  17
TORSDOF 11
ENDMDL
MODEL 9
REMARK VINA RESULT:      -7.2      7.138     10.743
REMARK  Name = 
REMARK  13 active torsions:
REMARK  status: ('A' for Active; 'I' for Inactive)
REMARK    1  A    between atoms: C_1  and  O_2
REMARK    2  A    between atoms: O_2  and  C_3
REMARK    3  A    between atoms: C_8  and  C_9
REMARK    4  A    between atoms: C_9  and  N_10
REMARK    5  A    between atoms: C_11  and  C_13
REMARK    6  A    between atoms: C_13  and  C_14
REMARK    7  A    between atoms: C_14  and  C_15
REMARK    8  A    between atoms: C_15  and  C_16
REMARK    9  A    between atoms: C_16  and  C_17
REMARK   10  A    between atoms: C_17  and  N_18
REMARK   11  A    between atoms: N_21  and  C_22
REMARK   12  A    between atoms: C_27  and  O_28
REMARK   13  A    between atoms: O_28  and  C_29
REMARK                            x       y       z     vdW  Elec       q    Type
REMARK                         _______ _______ _______ _____ _____    ______ ____
ROOT
ATOM      1  C   UNL     1       8.525   8.878  17.621  0.00  0.00    +0.000 C 
ENDROOT
BRANCH   1   2
ATOM      2  C   UNL     1       7.283   7.966  17.675  0.00  0.00    +0.000 C 
BRANCH   2   3
ATOM      3  C   UNL     1       7.515   6.480  18.072  0.00  0.00    +0.000 C 
BRANCH   3   5
ATOM      4  N   UNL     1       6.232   4.400  17.337  0.00  0.00    +0.000 N 
ATOM      5  C   UNL     1       7.070   5.441  17.053  0.00  0.00    +0.000 C 
ATOM      6  O   UNL     1       7.538   5.518  15.925  0.00  0.00    +0.000 OA
ATOM      7  H   UNL     1       6.086   3.689  16.601  0.00  0.00    +0.000 HD
BRANCH   4   8
ATOM      8  C   UNL     1       5.592   4.173  18.621  0.00  0.00    +0.000 C 
BRANCH   8  14
ATOM      9  C   UNL     1       3.208   4.935  17.894  0.00  0.00    +0.000 A 
ATOM     10  C   UNL     1       1.845   4.610  17.835  0.00  0.00    +0.000 A 
ATOM     11  C   UNL     1       1.374   3.371  18.275  0.00  0.00    +0.000 A 
ATOM     12  C   UNL     1       2.261   2.431  18.790  0.00  0.00    +0.000 A 
ATOM     13  C   UNL     1       3.617   2.722  18.862  0.00  0.00    +0.000 A 
ATOM     14  C   UNL     1       4.116   3.965  18.429  0.00  0.00    +0.000 A 
BRANCH   9  16
ATOM     15  C   UNL     1       3.167   7.420  17.957  0.00  0.00    +0.000 C 
ATOM     16  O   UNL     1       3.540   6.187  17.461  0.00  0.00    +0.000 OA
ENDBRANCH   9  16
ENDBRANCH   8  14
ENDBRANCH   4   8
ENDBRANCH   3   5
ENDBRANCH   2   3
ENDBRANCH   1   2
BRANCH   1  17
ATOM     17  C   UNL     1       8.610   9.856  18.800  0.00  0.00    +0.000 C 
BRANCH  17  18
ATOM     18  C   UNL     1       9.924  10.617  18.881  0.00  0.00    +0.000 C 
BRANCH  18  19
ATOM     19  N   UNL     1       9.981  11.808  18.002  0.00  0.00    +0.000 NA
ATOM     20  C   UNL     1       8.925  12.816  18.259  0.00  0.00    +0.000 C 
ATOM     21  C   UNL     1       9.096  13.473  19.627  0.00  0.00    +0.000 C 
ATOM     22  N   UNL     1      10.427  14.085  19.676  0.00  0.00    +0.000 N 
ATOM     23  C   UNL     1      11.544  13.188  19.407  0.00  0.00    +0.000 C 
ATOM     24  C   UNL     1      11.321  12.446  18.069  0.00  0.00    +0.000 C 
BRANCH  22  25
ATOM     25  C   UNL     1      10.568  15.478  20.013  0.00  0.00    +0.000 A 
ATOM     26  C   UNL     1      10.898  15.810  21.347  0.00  0.00    +0.000 A 
ATOM     27  C   UNL     1      11.057  17.127  21.757  0.00  0.00    +0.000 A 
ATOM     28  C   UNL     1      10.889  18.161  20.846  0.00  0.00    +0.000 A 
ATOM     29  C   UNL     1      10.564  17.876  19.521  0.00  0.00    +0.000 A 
ATOM     30  C   UNL     1      10.404  16.542  19.075  0.00  0.00    +0.000 A 
BRANCH  30  31
ATOM     31  O   UNL     1      10.064  16.287  17.781  0.00  0.00    +0.000 OA
ATOM     32  C   UNL     1      10.944  16.290  16.713  0.00  0.00    +0.000 C 
ENDBRANCH  30  31
ENDBRANCH  22  25
ENDBRANCH  18  19
ENDBRANCH  17  18
ENDBRANCH   1  17
TORSDOF 11
ENDMDL
