MODEL 1
REMARK VINA RESULT:      -7.7      0.000      0.000
REMARK  Name = 
REMARK  5 active torsions:
REMARK  status: ('A' for Active; 'I' for Inactive)
REMARK    1  A    between atoms: C_1  and  O_2
REMARK    2  A    between atoms: O_2  and  C_3
REMARK    3  A    between atoms: C_3  and  C_5
REMARK    4  A    between atoms: C_6  and  C_7
REMARK    5  A    between atoms: C_10  and  N_11
REMARK                            x       y       z     vdW  Elec       q    Type
REMARK                         _______ _______ _______ _____ _____    ______ ____
ROOT
ATOM      1  C   UNL     1       3.389   4.903  19.376  0.00  0.00    +0.000 A 
ATOM      2  C   UNL     1       3.705   5.817  18.431  0.00  0.00    +0.000 A 
ATOM      3  O   UNL     1       3.211   7.112  18.377  0.00  0.00    +0.000 OA
ATOM      4  C   UNL     1       2.307   7.513  19.319  0.00  0.00    +0.000 A 
ATOM      5  C   UNL     1       1.839   8.826  19.241  0.00  0.00    +0.000 A 
ATOM      6  C   UNL     1       0.896   9.286  20.159  0.00  0.00    +0.000 A 
ATOM      7  C   UNL     1       0.414   8.433  21.153  0.00  0.00    +0.000 A 
ATOM      8  C   UNL     1       0.892   7.123  21.238  0.00  0.00    +0.000 A 
ATOM      9  C   UNL     1       1.848   6.669  20.320  0.00  0.00    +0.000 A 
ATOM     10  C   UNL     1       2.407   5.312  20.417  0.00  0.00    +0.000 A 
ATOM     11  O   UNL     1       2.073   4.588  21.346  0.00  0.00    +0.000 OA
ENDROOT
BRANCH   2  12
ATOM     12  C   UNL     1       4.597   5.556  17.288  0.00  0.00    +0.000 A 
ATOM     13  C   UNL     1       4.265   4.557  16.361  0.00  0.00    +0.000 A 
ATOM     14  C   UNL     1       5.089   4.314  15.259  0.00  0.00    +0.000 A 
ATOM     15  C   UNL     1       6.251   5.077  15.084  0.00  0.00    +0.000 A 
ATOM     16  C   UNL     1       6.597   6.072  16.008  0.00  0.00    +0.000 A 
ATOM     17  C   UNL     1       5.763   6.313  17.104  0.00  0.00    +0.000 A 
BRANCH  15  18
ATOM     18  N   UNL     1       7.107   4.842  13.915  0.00  0.00    +0.000 N 
ATOM     19  O   UNL     1       6.758   3.964  13.113  0.00  0.00    +0.000 OA
ATOM     20  O   UNL     1       8.121   5.544  13.790  0.00  0.00    +0.000 OA
ENDBRANCH  15  18
ENDBRANCH   2  12
BRANCH   1  21
ATOM     21  C   UNL     1       4.015   3.556  19.381  0.00  0.00    +0.000 C 
ATOM     22  O   UNL     1       5.187   3.339  19.660  0.00  0.00    +0.000 OA
BRANCH  21  24
ATOM     23  C   UNL     1       3.725   1.398  18.526  0.00  0.00    +0.000 C 
ATOM     24  O   UNL     1       3.127   2.600  19.017  0.00  0.00    +0.000 OA
ENDBRANCH  21  24
ENDBRANCH   1  21
TORSDOF 4
ENDMDL
MODEL 2
REMARK VINA RESULT:      -7.6      0.095      1.180
REMARK  Name = 
REMARK  5 active torsions:
REMARK  status: ('A' for Active; 'I' for Inactive)
REMARK    1  A    between atoms: C_1  and  O_2
REMARK    2  A    between atoms: O_2  and  C_3
REMARK    3  A    between atoms: C_3  and  C_5
REMARK    4  A    between atoms: C_6  and  C_7
REMARK    5  A    between atoms: C_10  and  N_11
REMARK                            x       y       z     vdW  Elec       q    Type
REMARK                         _______ _______ _______ _____ _____    ______ ____
ROOT
ATOM      1  C   UNL     1       3.375   4.963  19.402  0.00  0.00    +0.000 A 
ATOM      2  C   UNL     1       3.648   5.870  18.438  0.00  0.00    +0.000 A 
ATOM      3  O   UNL     1       3.132   7.156  18.383  0.00  0.00    +0.000 OA
ATOM      4  C   UNL     1       2.250   7.554  19.346  0.00  0.00    +0.000 A 
ATOM      5  C   UNL     1       1.758   8.859  19.267  0.00  0.00    +0.000 A 
ATOM      6  C   UNL     1       0.835   9.315  20.207  0.00  0.00    +0.000 A 
ATOM      7  C   UNL     1       0.396   8.467  21.224  0.00  0.00    +0.000 A 
ATOM      8  C   UNL     1       0.897   7.165  21.311  0.00  0.00    +0.000 A 
ATOM      9  C   UNL     1       1.834   6.715  20.370  0.00  0.00    +0.000 A 
ATOM     10  C   UNL     1       2.416   5.368  20.466  0.00  0.00    +0.000 A 
ATOM     11  O   UNL     1       2.122   4.651  21.414  0.00  0.00    +0.000 OA
ENDROOT
BRANCH   2  12
ATOM     12  C   UNL     1       4.511   5.609  17.272  0.00  0.00    +0.000 A 
ATOM     13  C   UNL     1       5.647   6.403  17.057  0.00  0.00    +0.000 A 
ATOM     14  C   UNL     1       6.488   6.152  15.969  0.00  0.00    +0.000 A 
ATOM     15  C   UNL     1       6.190   5.099  15.094  0.00  0.00    +0.000 A 
ATOM     16  C   UNL     1       5.054   4.304  15.296  0.00  0.00    +0.000 A 
ATOM     17  C   UNL     1       4.222   4.559  16.390  0.00  0.00    +0.000 A 
BRANCH  15  18
ATOM     18  N   UNL     1       7.084   4.816  13.965  0.00  0.00    +0.000 N 
ATOM     19  O   UNL     1       8.113   5.499  13.860  0.00  0.00    +0.000 OA
ATOM     20  O   UNL     1       6.765   3.903  13.190  0.00  0.00    +0.000 OA
ENDBRANCH  15  18
ENDBRANCH   2  12
BRANCH   1  21
ATOM     21  C   UNL     1       4.023   3.626  19.405  0.00  0.00    +0.000 C 
ATOM     22  O   UNL     1       5.215   3.436  19.602  0.00  0.00    +0.000 OA
BRANCH  21  24
ATOM     23  C   UNL     1       3.674   1.517  18.454  0.00  0.00    +0.000 C 
ATOM     24  O   UNL     1       3.126   2.645  19.139  0.00  0.00    +0.000 OA
ENDBRANCH  21  24
ENDBRANCH   1  21
TORSDOF 4
ENDMDL
MODEL 3
REMARK VINA RESULT:      -7.5      2.801      7.332
REMARK  Name = 
REMARK  5 active torsions:
REMARK  status: ('A' for Active; 'I' for Inactive)
REMARK    1  A    between atoms: C_1  and  O_2
REMARK    2  A    between atoms: O_2  and  C_3
REMARK    3  A    between atoms: C_3  and  C_5
REMARK    4  A    between atoms: C_6  and  C_7
REMARK    5  A    between atoms: C_10  and  N_11
REMARK                            x       y       z     vdW  Elec       q    Type
REMARK                         _______ _______ _______ _____ _____    ______ ____
ROOT
ATOM      1  C   UNL     1       6.654   5.476  15.871  0.00  0.00    +0.000 A 
ATOM      2  C   UNL     1       5.455   4.865  16.002  0.00  0.00    +0.000 A 
ATOM      3  O   UNL     1       4.853   4.075  15.036  0.00  0.00    +0.000 OA
ATOM      4  C   UNL     1       5.479   3.911  13.833  0.00  0.00    +0.000 A 
ATOM      5  C   UNL     1       4.850   3.100  12.886  0.00  0.00    +0.000 A 
ATOM      6  C   UNL     1       5.428   2.914  11.632  0.00  0.00    +0.000 A 
ATOM      7  C   UNL     1       6.633   3.544  11.318  0.00  0.00    +0.000 A 
ATOM      8  C   UNL     1       7.269   4.345  12.269  0.00  0.00    +0.000 A 
ATOM      9  C   UNL     1       6.689   4.519  13.534  0.00  0.00    +0.000 A 
ATOM     10  C   UNL     1       7.362   5.315  14.571  0.00  0.00    +0.000 A 
ATOM     11  O   UNL     1       8.470   5.785  14.348  0.00  0.00    +0.000 OA
ENDROOT
BRANCH   2  12
ATOM     12  C   UNL     1       4.589   4.983  17.188  0.00  0.00    +0.000 A 
ATOM     13  C   UNL     1       4.534   3.933  18.116  0.00  0.00    +0.000 A 
ATOM     14  C   UNL     1       3.735   4.041  19.258  0.00  0.00    +0.000 A 
ATOM     15  C   UNL     1       2.989   5.207  19.471  0.00  0.00    +0.000 A 
ATOM     16  C   UNL     1       3.031   6.259  18.548  0.00  0.00    +0.000 A 
ATOM     17  C   UNL     1       3.838   6.146  17.412  0.00  0.00    +0.000 A 
BRANCH  15  18
ATOM     18  N   UNL     1       2.167   5.334  20.682  0.00  0.00    +0.000 N 
ATOM     19  O   UNL     1       1.529   6.386  20.837  0.00  0.00    +0.000 OA
ATOM     20  O   UNL     1       2.150   4.380  21.471  0.00  0.00    +0.000 OA
ENDBRANCH  15  18
ENDBRANCH   2  12
BRANCH   1  21
ATOM     21  C   UNL     1       7.244   6.258  16.988  0.00  0.00    +0.000 C 
ATOM     22  O   UNL     1       7.172   7.475  17.094  0.00  0.00    +0.000 OA
BRANCH  21  24
ATOM     23  C   UNL     1       7.653   5.763  19.237  0.00  0.00    +0.000 C 
ATOM     24  O   UNL     1       7.893   5.452  17.863  0.00  0.00    +0.000 OA
ENDBRANCH  21  24
ENDBRANCH   1  21
TORSDOF 4
ENDMDL
MODEL 4
REMARK VINA RESULT:      -7.5      2.817      7.393
REMARK  Name = 
REMARK  5 active torsions:
REMARK  status: ('A' for Active; 'I' for Inactive)
REMARK    1  A    between atoms: C_1  and  O_2
REMARK    2  A    between atoms: O_2  and  C_3
REMARK    3  A    between atoms: C_3  and  C_5
REMARK    4  A    between atoms: C_6  and  C_7
REMARK    5  A    between atoms: C_10  and  N_11
REMARK                            x       y       z     vdW  Elec       q    Type
REMARK                         _______ _______ _______ _____ _____    ______ ____
ROOT
ATOM      1  C   UNL     1       6.645   5.474  15.980  0.00  0.00    +0.000 A 
ATOM      2  C   UNL     1       5.444   4.861  16.084  0.00  0.00    +0.000 A 
ATOM      3  O   UNL     1       4.856   4.087  15.096  0.00  0.00    +0.000 OA
ATOM      4  C   UNL     1       5.499   3.942  13.900  0.00  0.00    +0.000 A 
ATOM      5  C   UNL     1       4.884   3.147  12.931  0.00  0.00    +0.000 A 
ATOM      6  C   UNL     1       5.480   2.981  11.683  0.00  0.00    +0.000 A 
ATOM      7  C   UNL     1       6.690   3.615  11.396  0.00  0.00    +0.000 A 
ATOM      8  C   UNL     1       7.312   4.402  12.369  0.00  0.00    +0.000 A 
ATOM      9  C   UNL     1       6.714   4.555  13.628  0.00  0.00    +0.000 A 
ATOM     10  C   UNL     1       7.371   5.334  14.688  0.00  0.00    +0.000 A 
ATOM     11  O   UNL     1       8.482   5.807  14.488  0.00  0.00    +0.000 OA
ENDROOT
BRANCH   2  12
ATOM     12  C   UNL     1       4.560   4.960  17.259  0.00  0.00    +0.000 A 
ATOM     13  C   UNL     1       4.525   3.914  18.192  0.00  0.00    +0.000 A 
ATOM     14  C   UNL     1       3.710   4.004  19.324  0.00  0.00    +0.000 A 
ATOM     15  C   UNL     1       2.927   5.149  19.522  0.00  0.00    +0.000 A 
ATOM     16  C   UNL     1       2.949   6.197  18.592  0.00  0.00    +0.000 A 
ATOM     17  C   UNL     1       3.773   6.101  17.467  0.00  0.00    +0.000 A 
BRANCH  15  18
ATOM     18  N   UNL     1       2.088   5.259  20.722  0.00  0.00    +0.000 N 
ATOM     19  O   UNL     1       2.066   4.294  21.499  0.00  0.00    +0.000 OA
ATOM     20  O   UNL     1       1.461   6.313  20.894  0.00  0.00    +0.000 OA
ENDBRANCH  15  18
ENDBRANCH   2  12
BRANCH   1  21
ATOM     21  C   UNL     1       7.218   6.238  17.117  0.00  0.00    +0.000 C 
ATOM     22  O   UNL     1       7.737   5.728  18.101  0.00  0.00    +0.000 OA
BRANCH  21  24
ATOM     23  C   UNL     1       7.933   8.374  17.749  0.00  0.00    +0.000 C 
ATOM     24  O   UNL     1       7.074   7.573  16.936  0.00  0.00    +0.000 OA
ENDBRANCH  21  24
ENDBRANCH   1  21
TORSDOF 4
ENDMDL
MODEL 5
REMARK VINA RESULT:      -7.5      2.830      7.423
REMARK  Name = 
REMARK  5 active torsions:
REMARK  status: ('A' for Active; 'I' for Inactive)
REMARK    1  A    between atoms: C_1  and  O_2
REMARK    2  A    between atoms: O_2  and  C_3
REMARK    3  A    between atoms: C_3  and  C_5
REMARK    4  A    between atoms: C_6  and  C_7
REMARK    5  A    between atoms: C_10  and  N_11
REMARK                            x       y       z     vdW  Elec       q    Type
REMARK                         _______ _______ _______ _____ _____    ______ ____
ROOT
ATOM      1  C   UNL     1       6.637   5.452  16.009  0.00  0.00    +0.000 A 
ATOM      2  C   UNL     1       5.441   4.831  16.119  0.00  0.00    +0.000 A 
ATOM      3  O   UNL     1       4.850   4.057  15.132  0.00  0.00    +0.000 OA
ATOM      4  C   UNL     1       5.486   3.920  13.931  0.00  0.00    +0.000 A 
ATOM      5  C   UNL     1       4.869   3.125  12.964  0.00  0.00    +0.000 A 
ATOM      6  C   UNL     1       5.457   2.967  11.710  0.00  0.00    +0.000 A 
ATOM      7  C   UNL     1       6.661   3.610  11.417  0.00  0.00    +0.000 A 
ATOM      8  C   UNL     1       7.285   4.397  12.389  0.00  0.00    +0.000 A 
ATOM      9  C   UNL     1       6.695   4.542  13.653  0.00  0.00    +0.000 A 
ATOM     10  C   UNL     1       7.355   5.321  14.711  0.00  0.00    +0.000 A 
ATOM     11  O   UNL     1       8.462   5.802  14.505  0.00  0.00    +0.000 OA
ENDROOT
BRANCH   2  12
ATOM     12  C   UNL     1       4.565   4.920  17.300  0.00  0.00    +0.000 A 
ATOM     13  C   UNL     1       3.745   6.045  17.474  0.00  0.00    +0.000 A 
ATOM     14  C   UNL     1       2.891   6.132  18.577  0.00  0.00    +0.000 A 
ATOM     15  C   UNL     1       2.858   5.087  19.509  0.00  0.00    +0.000 A 
ATOM     16  C   UNL     1       3.677   3.962  19.349  0.00  0.00    +0.000 A 
ATOM     17  C   UNL     1       4.524   3.880  18.239  0.00  0.00    +0.000 A 
BRANCH  15  18
ATOM     18  N   UNL     1       1.944   5.163  20.657  0.00  0.00    +0.000 N 
ATOM     19  O   UNL     1       1.432   6.262  20.912  0.00  0.00    +0.000 OA
ATOM     20  O   UNL     1       1.729   4.123  21.294  0.00  0.00    +0.000 OA
ENDBRANCH  15  18
ENDBRANCH   2  12
BRANCH   1  21
ATOM     21  C   UNL     1       7.214   6.215  17.144  0.00  0.00    +0.000 C 
ATOM     22  O   UNL     1       7.757   5.706  18.115  0.00  0.00    +0.000 OA
BRANCH  21  24
ATOM     23  C   UNL     1       7.952   8.357  17.728  0.00  0.00    +0.000 C 
ATOM     24  O   UNL     1       7.043   7.549  16.978  0.00  0.00    +0.000 OA
ENDBRANCH  21  24
ENDBRANCH   1  21
TORSDOF 4
ENDMDL
MODEL 6
REMARK VINA RESULT:      -7.5      3.011      6.589
REMARK  Name = 
REMARK  5 active torsions:
REMARK  status: ('A' for Active; 'I' for Inactive)
REMARK    1  A    between atoms: C_1  and  O_2
REMARK    2  A    between atoms: O_2  and  C_3
REMARK    3  A    between atoms: C_3  and  C_5
REMARK    4  A    between atoms: C_6  and  C_7
REMARK    5  A    between atoms: C_10  and  N_11
REMARK                            x       y       z     vdW  Elec       q    Type
REMARK                         _______ _______ _______ _____ _____    ______ ____
ROOT
ATOM      1  C   UNL     1       2.970   4.720  18.549  0.00  0.00    +0.000 A 
ATOM      2  C   UNL     1       3.103   6.013  18.177  0.00  0.00    +0.000 A 
ATOM      3  O   UNL     1       3.927   6.470  17.159  0.00  0.00    +0.000 OA
ATOM      4  C   UNL     1       4.702   5.571  16.484  0.00  0.00    +0.000 A 
ATOM      5  C   UNL     1       5.511   6.064  15.458  0.00  0.00    +0.000 A 
ATOM      6  C   UNL     1       6.343   5.199  14.749  0.00  0.00    +0.000 A 
ATOM      7  C   UNL     1       6.374   3.841  15.068  0.00  0.00    +0.000 A 
ATOM      8  C   UNL     1       5.555   3.346  16.087  0.00  0.00    +0.000 A 
ATOM      9  C   UNL     1       4.712   4.218  16.788  0.00  0.00    +0.000 A 
ATOM     10  C   UNL     1       3.802   3.716  17.830  0.00  0.00    +0.000 A 
ATOM     11  O   UNL     1       3.740   2.513  18.047  0.00  0.00    +0.000 OA
ENDROOT
BRANCH   2  12
ATOM     12  C   UNL     1       2.416   7.140  18.832  0.00  0.00    +0.000 A 
ATOM     13  C   UNL     1       1.999   8.239  18.067  0.00  0.00    +0.000 A 
ATOM     14  C   UNL     1       1.325   9.304  18.670  0.00  0.00    +0.000 A 
ATOM     15  C   UNL     1       1.066   9.267  20.047  0.00  0.00    +0.000 A 
ATOM     16  C   UNL     1       1.483   8.177  20.822  0.00  0.00    +0.000 A 
ATOM     17  C   UNL     1       2.152   7.113  20.209  0.00  0.00    +0.000 A 
BRANCH  15  18
ATOM     18  N   UNL     1       0.335  10.372  20.680  0.00  0.00    +0.000 N 
ATOM     19  O   UNL     1       0.900  10.984  21.598  0.00  0.00    +0.000 OA
ATOM     20  O   UNL     1      -0.797  10.637  20.253  0.00  0.00    +0.000 OA
ENDBRANCH  15  18
ENDBRANCH   2  12
BRANCH   1  21
ATOM     21  C   UNL     1       2.018   4.321  19.616  0.00  0.00    +0.000 C 
ATOM     22  O   UNL     1       0.822   4.133  19.441  0.00  0.00    +0.000 OA
BRANCH  21  24
ATOM     23  C   UNL     1       2.295   3.041  21.554  0.00  0.00    +0.000 C 
ATOM     24  O   UNL     1       2.640   4.214  20.815  0.00  0.00    +0.000 OA
ENDBRANCH  21  24
ENDBRANCH   1  21
TORSDOF 4
ENDMDL
MODEL 7
REMARK VINA RESULT:      -7.4      3.243      7.205
REMARK  Name = 
REMARK  5 active torsions:
REMARK  status: ('A' for Active; 'I' for Inactive)
REMARK    1  A    between atoms: C_1  and  O_2
REMARK    2  A    between atoms: O_2  and  C_3
REMARK    3  A    between atoms: C_3  and  C_5
REMARK    4  A    between atoms: C_6  and  C_7
REMARK    5  A    between atoms: C_10  and  N_11
REMARK                            x       y       z     vdW  Elec       q    Type
REMARK                         _______ _______ _______ _____ _____    ______ ____
ROOT
ATOM      1  C   UNL     1       6.040   5.087  16.587  0.00  0.00    +0.000 A 
ATOM      2  C   UNL     1       5.042   4.233  16.268  0.00  0.00    +0.000 A 
ATOM      3  O   UNL     1       4.873   3.630  15.031  0.00  0.00    +0.000 OA
ATOM      4  C   UNL     1       5.747   3.930  14.026  0.00  0.00    +0.000 A 
ATOM      5  C   UNL     1       5.553   3.297  12.796  0.00  0.00    +0.000 A 
ATOM      6  C   UNL     1       6.398   3.581  11.724  0.00  0.00    +0.000 A 
ATOM      7  C   UNL     1       7.434   4.504  11.876  0.00  0.00    +0.000 A 
ATOM      8  C   UNL     1       7.635   5.128  13.110  0.00  0.00    +0.000 A 
ATOM      9  C   UNL     1       6.790   4.830  14.188  0.00  0.00    +0.000 A 
ATOM     10  C   UNL     1       7.010   5.433  15.512  0.00  0.00    +0.000 A 
ATOM     11  O   UNL     1       7.978   6.161  15.689  0.00  0.00    +0.000 OA
ENDROOT
BRANCH   2  12
ATOM     12  C   UNL     1       3.956   3.845  17.186  0.00  0.00    +0.000 A 
ATOM     13  C   UNL     1       3.983   2.584  17.801  0.00  0.00    +0.000 A 
ATOM     14  C   UNL     1       2.973   2.212  18.692  0.00  0.00    +0.000 A 
ATOM     15  C   UNL     1       1.932   3.107  18.969  0.00  0.00    +0.000 A 
ATOM     16  C   UNL     1       1.892   4.366  18.355  0.00  0.00    +0.000 A 
ATOM     17  C   UNL     1       2.910   4.733  17.470  0.00  0.00    +0.000 A 
BRANCH  15  18
ATOM     18  N   UNL     1       0.882   2.730  19.924  0.00  0.00    +0.000 N 
ATOM     19  O   UNL     1       1.099   2.932  21.128  0.00  0.00    +0.000 OA
ATOM     20  O   UNL     1      -0.163   2.243  19.471  0.00  0.00    +0.000 OA
ENDBRANCH  15  18
ENDBRANCH   2  12
BRANCH   1  21
ATOM     21  C   UNL     1       6.170   5.638  17.960  0.00  0.00    +0.000 C 
ATOM     22  O   UNL     1       5.613   6.654  18.353  0.00  0.00    +0.000 OA
BRANCH  21  24
ATOM     23  C   UNL     1       7.781   5.628  19.656  0.00  0.00    +0.000 C 
ATOM     24  O   UNL     1       7.004   4.884  18.716  0.00  0.00    +0.000 OA
ENDBRANCH  21  24
ENDBRANCH   1  21
TORSDOF 4
ENDMDL
MODEL 8
REMARK VINA RESULT:      -7.4      3.229      7.211
REMARK  Name = 
REMARK  5 active torsions:
REMARK  status: ('A' for Active; 'I' for Inactive)
REMARK    1  A    between atoms: C_1  and  O_2
REMARK    2  A    between atoms: O_2  and  C_3
REMARK    3  A    between atoms: C_3  and  C_5
REMARK    4  A    between atoms: C_6  and  C_7
REMARK    5  A    between atoms: C_10  and  N_11
REMARK                            x       y       z     vdW  Elec       q    Type
REMARK                         _______ _______ _______ _____ _____    ______ ____
ROOT
ATOM      1  C   UNL     1       6.121   5.079  16.577  0.00  0.00    +0.000 A 
ATOM      2  C   UNL     1       5.102   4.239  16.289  0.00  0.00    +0.000 A 
ATOM      3  O   UNL     1       4.890   3.635  15.059  0.00  0.00    +0.000 OA
ATOM      4  C   UNL     1       5.739   3.919  14.028  0.00  0.00    +0.000 A 
ATOM      5  C   UNL     1       5.502   3.286  12.807  0.00  0.00    +0.000 A 
ATOM      6  C   UNL     1       6.320   3.555  11.711  0.00  0.00    +0.000 A 
ATOM      7  C   UNL     1       7.373   4.463  11.830  0.00  0.00    +0.000 A 
ATOM      8  C   UNL     1       7.618   5.088  13.056  0.00  0.00    +0.000 A 
ATOM      9  C   UNL     1       6.799   4.805  14.158  0.00  0.00    +0.000 A 
ATOM     10  C   UNL     1       7.065   5.408  15.473  0.00  0.00    +0.000 A 
ATOM     11  O   UNL     1       8.048   6.123  15.621  0.00  0.00    +0.000 OA
ENDROOT
BRANCH   2  12
ATOM     12  C   UNL     1       4.038   3.869  17.238  0.00  0.00    +0.000 A 
ATOM     13  C   UNL     1       2.990   4.766  17.491  0.00  0.00    +0.000 A 
ATOM     14  C   UNL     1       1.960   4.420  18.370  0.00  0.00    +0.000 A 
ATOM     15  C   UNL     1       1.980   3.167  18.997  0.00  0.00    +0.000 A 
ATOM     16  C   UNL     1       3.025   2.265  18.757  0.00  0.00    +0.000 A 
ATOM     17  C   UNL     1       4.047   2.618  17.871  0.00  0.00    +0.000 A 
BRANCH  15  18
ATOM     18  N   UNL     1       0.888   2.789  19.903  0.00  0.00    +0.000 N 
ATOM     19  O   UNL     1      -0.130   2.291  19.400  0.00  0.00    +0.000 OA
ATOM     20  O   UNL     1       1.051   2.977  21.116  0.00  0.00    +0.000 OA
ENDBRANCH  15  18
ENDBRANCH   2  12
BRANCH   1  21
ATOM     21  C   UNL     1       6.298   5.632  17.943  0.00  0.00    +0.000 C 
ATOM     22  O   UNL     1       5.778   6.665  18.344  0.00  0.00    +0.000 OA
BRANCH  21  24
ATOM     23  C   UNL     1       7.892   5.575  19.654  0.00  0.00    +0.000 C 
ATOM     24  O   UNL     1       7.127   4.858  18.684  0.00  0.00    +0.000 OA
ENDBRANCH  21  24
ENDBRANCH   1  21
TORSDOF 4
ENDMDL
MODEL 9
REMARK VINA RESULT:      -7.4      3.017      6.568
REMARK  Name = 
REMARK  5 active torsions:
REMARK  status: ('A' for Active; 'I' for Inactive)
REMARK    1  A    between atoms: C_1  and  O_2
REMARK    2  A    between atoms: O_2  and  C_3
REMARK    3  A    between atoms: C_3  and  C_5
REMARK    4  A    between atoms: C_6  and  C_7
REMARK    5  A    between atoms: C_10  and  N_11
REMARK                            x       y       z     vdW  Elec       q    Type
REMARK                         _______ _______ _______ _____ _____    ______ ____
ROOT
ATOM      1  C   UNL     1       2.980   4.792  18.578  0.00  0.00    +0.000 A 
ATOM      2  C   UNL     1       3.086   6.080  18.184  0.00  0.00    +0.000 A 
ATOM      3  O   UNL     1       3.912   6.538  17.169  0.00  0.00    +0.000 OA
ATOM      4  C   UNL     1       4.719   5.647  16.522  0.00  0.00    +0.000 A 
ATOM      5  C   UNL     1       5.531   6.140  15.498  0.00  0.00    +0.000 A 
ATOM      6  C   UNL     1       6.394   5.284  14.818  0.00  0.00    +0.000 A 
ATOM      7  C   UNL     1       6.455   3.933  15.164  0.00  0.00    +0.000 A 
ATOM      8  C   UNL     1       5.634   3.437  16.180  0.00  0.00    +0.000 A 
ATOM      9  C   UNL     1       4.759   4.300  16.853  0.00  0.00    +0.000 A 
ATOM     10  C   UNL     1       3.847   3.796  17.891  0.00  0.00    +0.000 A 
ATOM     11  O   UNL     1       3.812   2.596  18.131  0.00  0.00    +0.000 OA
ENDROOT
BRANCH   2  12
ATOM     12  C   UNL     1       2.361   7.202  18.807  0.00  0.00    +0.000 A 
ATOM     13  C   UNL     1       2.147   7.206  20.193  0.00  0.00    +0.000 A 
ATOM     14  C   UNL     1       1.482   8.275  20.801  0.00  0.00    +0.000 A 
ATOM     15  C   UNL     1       1.032   9.345  20.016  0.00  0.00    +0.000 A 
ATOM     16  C   UNL     1       1.235   9.347  18.630  0.00  0.00    +0.000 A 
ATOM     17  C   UNL     1       1.906   8.277  18.031  0.00  0.00    +0.000 A 
BRANCH  15  18
ATOM     18  N   UNL     1       0.355  10.481  20.654  0.00  0.00    +0.000 N 
ATOM     19  O   UNL     1      -0.663  10.927  20.105  0.00  0.00    +0.000 OA
ATOM     20  O   UNL     1       0.832  10.920  21.710  0.00  0.00    +0.000 OA
ENDBRANCH  15  18
ENDBRANCH   2  12
BRANCH   1  21
ATOM     21  C   UNL     1       2.023   4.390  19.640  0.00  0.00    +0.000 C 
ATOM     22  O   UNL     1       0.828   4.201  19.458  0.00  0.00    +0.000 OA
BRANCH  21  24
ATOM     23  C   UNL     1       2.293   3.103  21.575  0.00  0.00    +0.000 C 
ATOM     24  O   UNL     1       2.639   4.280  20.842  0.00  0.00    +0.000 OA
ENDBRANCH  21  24
ENDBRANCH   1  21
TORSDOF 4
ENDMDL
