MODEL 1
REMARK VINA RESULT:      -8.0      0.000      0.000
REMARK  Name = 
REMARK  11 active torsions:
REMARK  status: ('A' for Active; 'I' for Inactive)
REMARK    1  A    between atoms: C_1  and  C_2
REMARK    2  A    between atoms: C_2  and  N_3
REMARK    3  A    between atoms: N_3  and  C_27
REMARK    4  A    between atoms: C_4  and  C_6
REMARK    5  A    between atoms: C_6  and  O_7
REMARK    6  A    between atoms: O_7  and  C_8
REMARK    7  A    between atoms: C_8  and  C_10
REMARK    8  A    between atoms: C_14  and  S_15
REMARK    9  A    between atoms: S_15  and  N_18
REMARK   10  A    between atoms: N_18  and  C_19
REMARK   11  A    between atoms: C_19  and  C_20
REMARK                            x       y       z     vdW  Elec       q    Type
REMARK                         _______ _______ _______ _____ _____    ______ ____
ROOT
ATOM      1  C   UNL     1       2.283   6.327  19.491  0.00  0.00    +0.000 A 
ATOM      2  C   UNL     1       1.951   5.927  20.794  0.00  0.00    +0.000 A 
ATOM      3  C   UNL     1       1.968   4.581  21.146  0.00  0.00    +0.000 A 
ATOM      4  C   UNL     1       2.317   3.622  20.199  0.00  0.00    +0.000 A 
ATOM      5  C   UNL     1       2.652   4.014  18.895  0.00  0.00    +0.000 A 
ATOM      6  C   UNL     1       2.636   5.367  18.532  0.00  0.00    +0.000 A 
ENDROOT
BRANCH   5   7
ATOM      7  S   UNL     1       3.201   2.764  17.742  0.00  0.00    +0.000 S 
ATOM      8  O   UNL     1       3.121   1.493  18.431  0.00  0.00    +0.000 OA
ATOM      9  O   UNL     1       2.507   3.006  16.498  0.00  0.00    +0.000 OA
BRANCH   7  10
ATOM     10  N   UNL     1       4.814   3.146  17.464  0.00  0.00    +0.000 NA
ATOM     11  H   UNL     1       5.386   2.338  17.224  0.00  0.00    +0.000 HD
BRANCH  10  12
ATOM     12  C   UNL     1       5.070   4.325  16.627  0.00  0.00    +0.000 C 
BRANCH  12  13
ATOM     13  C   UNL     1       6.092   5.243  17.249  0.00  0.00    +0.000 A 
ATOM     14  C   UNL     1       6.313   6.523  16.720  0.00  0.00    +0.000 A 
ATOM     15  C   UNL     1       7.243   7.381  17.309  0.00  0.00    +0.000 A 
ATOM     16  C   UNL     1       7.959   6.969  18.431  0.00  0.00    +0.000 A 
ATOM     17  C   UNL     1       7.746   5.701  18.968  0.00  0.00    +0.000 A 
ATOM     18  C   UNL     1       6.817   4.841  18.380  0.00  0.00    +0.000 A 
ENDBRANCH  12  13
ENDBRANCH  10  12
ENDBRANCH   7  10
ENDBRANCH   5   7
BRANCH   1  19
ATOM     19  C   UNL     1       2.168   7.758  19.105  0.00  0.00    +0.000 C 
ATOM     20  O   UNL     1       2.556   8.204  18.040  0.00  0.00    +0.000 OA
BRANCH  19  21
ATOM     21  O   UNL     1       1.455   8.411  20.054  0.00  0.00    +0.000 OA
BRANCH  21  22
ATOM     22  C   UNL     1       0.925   9.668  19.641  0.00  0.00    +0.000 C 
BRANCH  22  24
ATOM     23  N   UNL     1      -0.554  11.463  20.583  0.00  0.00    +0.000 N 
ATOM     24  C   UNL     1       0.593  10.669  20.757  0.00  0.00    +0.000 C 
ATOM     25  O   UNL     1       1.270  10.657  21.789  0.00  0.00    +0.000 OA
BRANCH  23  26
ATOM     26  C   UNL     1      -0.931  12.350  21.638  0.00  0.00    +0.000 A 
ATOM     27  C   UNL     1      -2.013  12.042  22.469  0.00  0.00    +0.000 A 
ATOM     28  C   UNL     1      -2.400  12.924  23.480  0.00  0.00    +0.000 A 
ATOM     29  C   UNL     1      -1.719  14.127  23.655  0.00  0.00    +0.000 A 
ATOM     30  C   UNL     1      -0.638  14.439  22.833  0.00  0.00    +0.000 A 
ATOM     31  C   UNL     1      -0.236  13.547  21.836  0.00  0.00    +0.000 A 
ENDBRANCH  23  26
BRANCH  23  33
ATOM     32  C   UNL     1      -0.674  12.789  18.435  0.00  0.00    +0.000 C 
ATOM     33  C   UNL     1      -1.251  11.679  19.301  0.00  0.00    +0.000 C 
ENDBRANCH  23  33
ENDBRANCH  22  24
ENDBRANCH  21  22
ENDBRANCH  19  21
ENDBRANCH   1  19
TORSDOF 10
ENDMDL
MODEL 2
REMARK VINA RESULT:      -8.0      0.974      1.580
REMARK  Name = 
REMARK  11 active torsions:
REMARK  status: ('A' for Active; 'I' for Inactive)
REMARK    1  A    between atoms: C_1  and  C_2
REMARK    2  A    between atoms: C_2  and  N_3
REMARK    3  A    between atoms: N_3  and  C_27
REMARK    4  A    between atoms: C_4  and  C_6
REMARK    5  A    between atoms: C_6  and  O_7
REMARK    6  A    between atoms: O_7  and  C_8
REMARK    7  A    between atoms: C_8  and  C_10
REMARK    8  A    between atoms: C_14  and  S_15
REMARK    9  A    between atoms: S_15  and  N_18
REMARK   10  A    between atoms: N_18  and  C_19
REMARK   11  A    between atoms: C_19  and  C_20
REMARK                            x       y       z     vdW  Elec       q    Type
REMARK                         _______ _______ _______ _____ _____    ______ ____
ROOT
ATOM      1  C   UNL     1       2.222   7.304  18.842  0.00  0.00    +0.000 A 
ATOM      2  C   UNL     1       1.849   7.088  20.177  0.00  0.00    +0.000 A 
ATOM      3  C   UNL     1       1.912   5.812  20.730  0.00  0.00    +0.000 A 
ATOM      4  C   UNL     1       2.351   4.742  19.954  0.00  0.00    +0.000 A 
ATOM      5  C   UNL     1       2.728   4.951  18.620  0.00  0.00    +0.000 A 
ATOM      6  C   UNL     1       2.665   6.232  18.056  0.00  0.00    +0.000 A 
ENDROOT
BRANCH   5   7
ATOM      7  S   UNL     1       3.389   3.574  17.694  0.00  0.00    +0.000 S 
ATOM      8  O   UNL     1       4.283   2.861  18.582  0.00  0.00    +0.000 OA
ATOM      9  O   UNL     1       2.269   2.925  17.051  0.00  0.00    +0.000 OA
BRANCH   7  10
ATOM     10  N   UNL     1       4.281   4.298  16.468  0.00  0.00    +0.000 NA
ATOM     11  H   UNL     1       4.049   5.280  16.325  0.00  0.00    +0.000 HD
BRANCH  10  12
ATOM     12  C   UNL     1       5.723   4.021  16.459  0.00  0.00    +0.000 C 
BRANCH  12  13
ATOM     13  C   UNL     1       6.503   5.090  17.183  0.00  0.00    +0.000 A 
ATOM     14  C   UNL     1       7.265   4.770  18.316  0.00  0.00    +0.000 A 
ATOM     15  C   UNL     1       8.004   5.754  18.973  0.00  0.00    +0.000 A 
ATOM     16  C   UNL     1       7.990   7.066  18.505  0.00  0.00    +0.000 A 
ATOM     17  C   UNL     1       7.240   7.397  17.378  0.00  0.00    +0.000 A 
ATOM     18  C   UNL     1       6.499   6.414  16.719  0.00  0.00    +0.000 A 
ENDBRANCH  12  13
ENDBRANCH  10  12
ENDBRANCH   7  10
ENDBRANCH   5   7
BRANCH   1  19
ATOM     19  C   UNL     1       2.058   8.653  18.239  0.00  0.00    +0.000 C 
ATOM     20  O   UNL     1       2.616   9.008  17.216  0.00  0.00    +0.000 OA
BRANCH  19  21
ATOM     21  O   UNL     1       1.107   9.328  18.928  0.00  0.00    +0.000 OA
BRANCH  21  22
ATOM     22  C   UNL     1       1.309  10.738  18.996  0.00  0.00    +0.000 C 
BRANCH  22  24
ATOM     23  N   UNL     1      -0.662  11.918  20.006  0.00  0.00    +0.000 N 
ATOM     24  C   UNL     1       0.657  11.465  20.181  0.00  0.00    +0.000 C 
ATOM     25  O   UNL     1       1.266  11.522  21.254  0.00  0.00    +0.000 OA
BRANCH  23  26
ATOM     26  C   UNL     1      -1.322  12.530  21.116  0.00  0.00    +0.000 A 
ATOM     27  C   UNL     1      -1.441  13.922  21.189  0.00  0.00    +0.000 A 
ATOM     28  C   UNL     1      -2.059  14.520  22.289  0.00  0.00    +0.000 A 
ATOM     29  C   UNL     1      -2.545  13.732  23.330  0.00  0.00    +0.000 A 
ATOM     30  C   UNL     1      -2.433  12.345  23.263  0.00  0.00    +0.000 A 
ATOM     31  C   UNL     1      -1.836  11.744  22.152  0.00  0.00    +0.000 A 
ENDBRANCH  23  26
BRANCH  23  33
ATOM     32  C   UNL     1      -2.321  10.969  18.352  0.00  0.00    +0.000 C 
ATOM     33  C   UNL     1      -1.340  12.078  18.705  0.00  0.00    +0.000 C 
ENDBRANCH  23  33
ENDBRANCH  22  24
ENDBRANCH  21  22
ENDBRANCH  19  21
ENDBRANCH   1  19
TORSDOF 10
ENDMDL
MODEL 3
REMARK VINA RESULT:      -7.9      1.937      2.592
REMARK  Name = 
REMARK  11 active torsions:
REMARK  status: ('A' for Active; 'I' for Inactive)
REMARK    1  A    between atoms: C_1  and  C_2
REMARK    2  A    between atoms: C_2  and  N_3
REMARK    3  A    between atoms: N_3  and  C_27
REMARK    4  A    between atoms: C_4  and  C_6
REMARK    5  A    between atoms: C_6  and  O_7
REMARK    6  A    between atoms: O_7  and  C_8
REMARK    7  A    between atoms: C_8  and  C_10
REMARK    8  A    between atoms: C_14  and  S_15
REMARK    9  A    between atoms: S_15  and  N_18
REMARK   10  A    between atoms: N_18  and  C_19
REMARK   11  A    between atoms: C_19  and  C_20
REMARK                            x       y       z     vdW  Elec       q    Type
REMARK                         _______ _______ _______ _____ _____    ______ ____
ROOT
ATOM      1  C   UNL     1       2.220   5.866  19.939  0.00  0.00    +0.000 A 
ATOM      2  C   UNL     1       1.726   5.266  21.107  0.00  0.00    +0.000 A 
ATOM      3  C   UNL     1       1.663   3.880  21.217  0.00  0.00    +0.000 A 
ATOM      4  C   UNL     1       2.093   3.081  20.161  0.00  0.00    +0.000 A 
ATOM      5  C   UNL     1       2.590   3.674  18.991  0.00  0.00    +0.000 A 
ATOM      6  C   UNL     1       2.655   5.068  18.872  0.00  0.00    +0.000 A 
ENDROOT
BRANCH   5   7
ATOM      7  S   UNL     1       3.234   2.613  17.704  0.00  0.00    +0.000 S 
ATOM      8  O   UNL     1       3.194   1.260  18.217  0.00  0.00    +0.000 OA
ATOM      9  O   UNL     1       2.568   2.989  16.478  0.00  0.00    +0.000 OA
BRANCH   7  10
ATOM     10  N   UNL     1       4.834   3.101  17.539  0.00  0.00    +0.000 NA
ATOM     11  H   UNL     1       5.483   2.324  17.422  0.00  0.00    +0.000 HD
BRANCH  10  12
ATOM     12  C   UNL     1       5.083   4.225  16.628  0.00  0.00    +0.000 C 
BRANCH  12  13
ATOM     13  C   UNL     1       6.066   5.210  17.209  0.00  0.00    +0.000 A 
ATOM     14  C   UNL     1       6.127   6.524  16.723  0.00  0.00    +0.000 A 
ATOM     15  C   UNL     1       7.022   7.441  17.276  0.00  0.00    +0.000 A 
ATOM     16  C   UNL     1       7.862   7.056  18.318  0.00  0.00    +0.000 A 
ATOM     17  C   UNL     1       7.809   5.754  18.812  0.00  0.00    +0.000 A 
ATOM     18  C   UNL     1       6.915   4.834  18.261  0.00  0.00    +0.000 A 
ENDBRANCH  12  13
ENDBRANCH  10  12
ENDBRANCH   7  10
ENDBRANCH   5   7
BRANCH   1  19
ATOM     19  C   UNL     1       2.192   7.345  19.800  0.00  0.00    +0.000 C 
ATOM     20  O   UNL     1       2.399   7.930  18.751  0.00  0.00    +0.000 OA
BRANCH  19  21
ATOM     21  O   UNL     1       1.773   7.887  20.969  0.00  0.00    +0.000 OA
BRANCH  21  22
ATOM     22  C   UNL     1       1.456   9.275  20.902  0.00  0.00    +0.000 C 
BRANCH  22  24
ATOM     23  N   UNL     1       0.010  10.439  19.214  0.00  0.00    +0.000 N 
ATOM     24  C   UNL     1       0.063   9.633  20.363  0.00  0.00    +0.000 C 
ATOM     25  O   UNL     1      -0.929   9.116  20.887  0.00  0.00    +0.000 OA
BRANCH  23  26
ATOM     26  C   UNL     1      -1.269  10.726  18.645  0.00  0.00    +0.000 A 
ATOM     27  C   UNL     1      -2.140  11.621  19.274  0.00  0.00    +0.000 A 
ATOM     28  C   UNL     1      -3.401  11.876  18.734  0.00  0.00    +0.000 A 
ATOM     29  C   UNL     1      -3.806  11.226  17.570  0.00  0.00    +0.000 A 
ATOM     30  C   UNL     1      -2.943  10.335  16.935  0.00  0.00    +0.000 A 
ATOM     31  C   UNL     1      -1.672  10.096  17.463  0.00  0.00    +0.000 A 
ENDBRANCH  23  26
BRANCH  23  33
ATOM     32  C   UNL     1       0.855  12.750  18.638  0.00  0.00    +0.000 C 
ATOM     33  C   UNL     1       1.126  11.254  18.695  0.00  0.00    +0.000 C 
ENDBRANCH  23  33
ENDBRANCH  22  24
ENDBRANCH  21  22
ENDBRANCH  19  21
ENDBRANCH   1  19
TORSDOF 10
ENDMDL
MODEL 4
REMARK VINA RESULT:      -7.9      1.049      1.474
REMARK  Name = 
REMARK  11 active torsions:
REMARK  status: ('A' for Active; 'I' for Inactive)
REMARK    1  A    between atoms: C_1  and  C_2
REMARK    2  A    between atoms: C_2  and  N_3
REMARK    3  A    between atoms: N_3  and  C_27
REMARK    4  A    between atoms: C_4  and  C_6
REMARK    5  A    between atoms: C_6  and  O_7
REMARK    6  A    between atoms: O_7  and  C_8
REMARK    7  A    between atoms: C_8  and  C_10
REMARK    8  A    between atoms: C_14  and  S_15
REMARK    9  A    between atoms: S_15  and  N_18
REMARK   10  A    between atoms: N_18  and  C_19
REMARK   11  A    between atoms: C_19  and  C_20
REMARK                            x       y       z     vdW  Elec       q    Type
REMARK                         _______ _______ _______ _____ _____    ______ ____
ROOT
ATOM      1  C   UNL     1       2.031   7.521  18.911  0.00  0.00    +0.000 A 
ATOM      2  C   UNL     1       1.732   7.546  20.282  0.00  0.00    +0.000 A 
ATOM      3  C   UNL     1       1.697   6.365  21.019  0.00  0.00    +0.000 A 
ATOM      4  C   UNL     1       1.962   5.150  20.393  0.00  0.00    +0.000 A 
ATOM      5  C   UNL     1       2.263   5.118  19.024  0.00  0.00    +0.000 A 
ATOM      6  C   UNL     1       2.298   6.301  18.275  0.00  0.00    +0.000 A 
ENDROOT
BRANCH   5   7
ATOM      7  S   UNL     1       2.705   3.552  18.284  0.00  0.00    +0.000 S 
ATOM      8  O   UNL     1       2.613   2.554  19.328  0.00  0.00    +0.000 OA
ATOM      9  O   UNL     1       1.958   3.445  17.052  0.00  0.00    +0.000 OA
BRANCH   7  10
ATOM     10  N   UNL     1       4.315   3.751  17.842  0.00  0.00    +0.000 NA
ATOM     11  H   UNL     1       4.434   4.268  16.972  0.00  0.00    +0.000 HD
BRANCH  10  12
ATOM     12  C   UNL     1       5.238   4.159  18.908  0.00  0.00    +0.000 C 
BRANCH  12  13
ATOM     13  C   UNL     1       6.079   5.342  18.498  0.00  0.00    +0.000 A 
ATOM     14  C   UNL     1       7.298   5.605  19.141  0.00  0.00    +0.000 A 
ATOM     15  C   UNL     1       8.086   6.686  18.747  0.00  0.00    +0.000 A 
ATOM     16  C   UNL     1       7.666   7.514  17.708  0.00  0.00    +0.000 A 
ATOM     17  C   UNL     1       6.460   7.262  17.058  0.00  0.00    +0.000 A 
ATOM     18  C   UNL     1       5.669   6.181  17.451  0.00  0.00    +0.000 A 
ENDBRANCH  12  13
ENDBRANCH  10  12
ENDBRANCH   7  10
ENDBRANCH   5   7
BRANCH   1  19
ATOM     19  C   UNL     1       1.970   8.777  18.119  0.00  0.00    +0.000 C 
ATOM     20  O   UNL     1       2.648   8.986  17.129  0.00  0.00    +0.000 OA
BRANCH  19  21
ATOM     21  O   UNL     1       0.964   9.548  18.599  0.00  0.00    +0.000 OA
BRANCH  21  22
ATOM     22  C   UNL     1       1.322  10.906  18.848  0.00  0.00    +0.000 C 
BRANCH  22  24
ATOM     23  N   UNL     1      -0.534  12.105  20.036  0.00  0.00    +0.000 N 
ATOM     24  C   UNL     1       0.750  11.540  20.124  0.00  0.00    +0.000 C 
ATOM     25  O   UNL     1       1.382  11.431  21.179  0.00  0.00    +0.000 OA
BRANCH  23  26
ATOM     26  C   UNL     1      -1.124  12.635  21.225  0.00  0.00    +0.000 A 
ATOM     27  C   UNL     1      -1.811  11.796  22.109  0.00  0.00    +0.000 A 
ATOM     28  C   UNL     1      -2.414  12.320  23.254  0.00  0.00    +0.000 A 
ATOM     29  C   UNL     1      -2.349  13.688  23.513  0.00  0.00    +0.000 A 
ATOM     30  C   UNL     1      -1.664  14.529  22.639  0.00  0.00    +0.000 A 
ATOM     31  C   UNL     1      -1.041  14.002  21.505  0.00  0.00    +0.000 A 
ENDBRANCH  23  26
BRANCH  23  33
ATOM     32  C   UNL     1      -2.384  11.553  18.407  0.00  0.00    +0.000 C 
ATOM     33  C   UNL     1      -1.221  12.461  18.780  0.00  0.00    +0.000 C 
ENDBRANCH  23  33
ENDBRANCH  22  24
ENDBRANCH  21  22
ENDBRANCH  19  21
ENDBRANCH   1  19
TORSDOF 10
ENDMDL
MODEL 5
REMARK VINA RESULT:      -7.9      2.098      3.976
REMARK  Name = 
REMARK  11 active torsions:
REMARK  status: ('A' for Active; 'I' for Inactive)
REMARK    1  A    between atoms: C_1  and  C_2
REMARK    2  A    between atoms: C_2  and  N_3
REMARK    3  A    between atoms: N_3  and  C_27
REMARK    4  A    between atoms: C_4  and  C_6
REMARK    5  A    between atoms: C_6  and  O_7
REMARK    6  A    between atoms: O_7  and  C_8
REMARK    7  A    between atoms: C_8  and  C_10
REMARK    8  A    between atoms: C_14  and  S_15
REMARK    9  A    between atoms: S_15  and  N_18
REMARK   10  A    between atoms: N_18  and  C_19
REMARK   11  A    between atoms: C_19  and  C_20
REMARK                            x       y       z     vdW  Elec       q    Type
REMARK                         _______ _______ _______ _____ _____    ______ ____
ROOT
ATOM      1  C   UNL     1       2.747   6.976  19.212  0.00  0.00    +0.000 A 
ATOM      2  C   UNL     1       2.695   7.782  18.065  0.00  0.00    +0.000 A 
ATOM      3  C   UNL     1       3.681   7.685  17.088  0.00  0.00    +0.000 A 
ATOM      4  C   UNL     1       4.728   6.780  17.248  0.00  0.00    +0.000 A 
ATOM      5  C   UNL     1       4.785   5.970  18.391  0.00  0.00    +0.000 A 
ATOM      6  C   UNL     1       3.797   6.063  19.380  0.00  0.00    +0.000 A 
ENDROOT
BRANCH   5   7
ATOM      7  S   UNL     1       6.082   4.746  18.505  0.00  0.00    +0.000 S 
ATOM      8  O   UNL     1       6.867   4.851  17.293  0.00  0.00    +0.000 OA
ATOM      9  O   UNL     1       6.675   4.883  19.816  0.00  0.00    +0.000 OA
BRANCH   7  10
ATOM     10  N   UNL     1       5.259   3.280  18.512  0.00  0.00    +0.000 NA
ATOM     11  H   UNL     1       5.701   2.566  17.935  0.00  0.00    +0.000 HD
BRANCH  10  12
ATOM     12  C   UNL     1       4.808   2.792  19.820  0.00  0.00    +0.000 C 
BRANCH  12  13
ATOM     13  C   UNL     1       3.304   2.797  19.932  0.00  0.00    +0.000 A 
ATOM     14  C   UNL     1       2.684   2.753  21.189  0.00  0.00    +0.000 A 
ATOM     15  C   UNL     1       1.293   2.781  21.293  0.00  0.00    +0.000 A 
ATOM     16  C   UNL     1       0.508   2.853  20.144  0.00  0.00    +0.000 A 
ATOM     17  C   UNL     1       1.111   2.900  18.889  0.00  0.00    +0.000 A 
ATOM     18  C   UNL     1       2.503   2.873  18.783  0.00  0.00    +0.000 A 
ENDBRANCH  12  13
ENDBRANCH  10  12
ENDBRANCH   7  10
ENDBRANCH   5   7
BRANCH   1  19
ATOM     19  C   UNL     1       1.740   7.159  20.290  0.00  0.00    +0.000 C 
ATOM     20  O   UNL     1       1.428   6.286  21.080  0.00  0.00    +0.000 OA
BRANCH  19  21
ATOM     21  O   UNL     1       1.359   8.459  20.316  0.00  0.00    +0.000 OA
BRANCH  21  22
ATOM     22  C   UNL     1       0.217   8.729  21.125  0.00  0.00    +0.000 C 
BRANCH  22  24
ATOM     23  N   UNL     1      -0.574  11.107  21.244  0.00  0.00    +0.000 N 
ATOM     24  C   UNL     1       0.190  10.089  21.838  0.00  0.00    +0.000 C 
ATOM     25  O   UNL     1       0.740  10.196  22.939  0.00  0.00    +0.000 OA
BRANCH  23  26
ATOM     26  C   UNL     1      -0.681  12.360  21.923  0.00  0.00    +0.000 A 
ATOM     27  C   UNL     1       0.215  13.397  21.641  0.00  0.00    +0.000 A 
ATOM     28  C   UNL     1       0.129  14.609  22.328  0.00  0.00    +0.000 A 
ATOM     29  C   UNL     1      -0.841  14.787  23.312  0.00  0.00    +0.000 A 
ATOM     30  C   UNL     1      -1.738  13.760  23.597  0.00  0.00    +0.000 A 
ATOM     31  C   UNL     1      -1.668  12.554  22.894  0.00  0.00    +0.000 A 
ENDBRANCH  23  26
BRANCH  23  33
ATOM     32  C   UNL     1       0.023  11.377  18.803  0.00  0.00    +0.000 C 
ATOM     33  C   UNL     1      -1.051  11.107  19.848  0.00  0.00    +0.000 C 
ENDBRANCH  23  33
ENDBRANCH  22  24
ENDBRANCH  21  22
ENDBRANCH  19  21
ENDBRANCH   1  19
TORSDOF 10
ENDMDL
MODEL 6
REMARK VINA RESULT:      -7.8      2.967      9.504
REMARK  Name = 
REMARK  11 active torsions:
REMARK  status: ('A' for Active; 'I' for Inactive)
REMARK    1  A    between atoms: C_1  and  C_2
REMARK    2  A    between atoms: C_2  and  N_3
REMARK    3  A    between atoms: N_3  and  C_27
REMARK    4  A    between atoms: C_4  and  C_6
REMARK    5  A    between atoms: C_6  and  O_7
REMARK    6  A    between atoms: O_7  and  C_8
REMARK    7  A    between atoms: C_8  and  C_10
REMARK    8  A    between atoms: C_14  and  S_15
REMARK    9  A    between atoms: S_15  and  N_18
REMARK   10  A    between atoms: N_18  and  C_19
REMARK   11  A    between atoms: C_19  and  C_20
REMARK                            x       y       z     vdW  Elec       q    Type
REMARK                         _______ _______ _______ _____ _____    ______ ____
ROOT
ATOM      1  C   UNL     1       1.878   6.740  19.980  0.00  0.00    +0.000 A 
ATOM      2  C   UNL     1       2.476   6.981  18.734  0.00  0.00    +0.000 A 
ATOM      3  C   UNL     1       2.423   8.247  18.159  0.00  0.00    +0.000 A 
ATOM      4  C   UNL     1       1.774   9.284  18.824  0.00  0.00    +0.000 A 
ATOM      5  C   UNL     1       1.175   9.051  20.070  0.00  0.00    +0.000 A 
ATOM      6  C   UNL     1       1.222   7.779  20.655  0.00  0.00    +0.000 A 
ENDROOT
BRANCH   5   7
ATOM      7  S   UNL     1       0.449  10.432  20.941  0.00  0.00    +0.000 S 
ATOM      8  O   UNL     1      -0.789   9.958  21.522  0.00  0.00    +0.000 OA
ATOM      9  O   UNL     1       1.497  11.021  21.742  0.00  0.00    +0.000 OA
BRANCH   7  10
ATOM     10  N   UNL     1       0.105  11.543  19.727  0.00  0.00    +0.000 NA
ATOM     11  H   UNL     1       0.468  11.270  18.814  0.00  0.00    +0.000 HD
BRANCH  10  12
ATOM     12  C   UNL     1      -1.267  12.064  19.689  0.00  0.00    +0.000 C 
BRANCH  12  13
ATOM     13  C   UNL     1      -2.090  11.399  18.614  0.00  0.00    +0.000 A 
ATOM     14  C   UNL     1      -1.487  10.530  17.693  0.00  0.00    +0.000 A 
ATOM     15  C   UNL     1      -2.251   9.897  16.713  0.00  0.00    +0.000 A 
ATOM     16  C   UNL     1      -3.624  10.125  16.643  0.00  0.00    +0.000 A 
ATOM     17  C   UNL     1      -4.236  10.983  17.555  0.00  0.00    +0.000 A 
ATOM     18  C   UNL     1      -3.473  11.618  18.536  0.00  0.00    +0.000 A 
ENDBRANCH  12  13
ENDBRANCH  10  12
ENDBRANCH   7  10
ENDBRANCH   5   7
BRANCH   1  19
ATOM     19  C   UNL     1       1.860   5.362  20.536  0.00  0.00    +0.000 C 
ATOM     20  O   UNL     1       0.870   4.652  20.551  0.00  0.00    +0.000 OA
BRANCH  19  21
ATOM     21  O   UNL     1       3.123   5.010  20.874  0.00  0.00    +0.000 OA
BRANCH  21  22
ATOM     22  C   UNL     1       3.616   3.849  20.209  0.00  0.00    +0.000 C 
BRANCH  22  24
ATOM     23  N   UNL     1       3.973   4.134  17.742  0.00  0.00    +0.000 N 
ATOM     24  C   UNL     1       4.557   4.090  19.020  0.00  0.00    +0.000 C 
ATOM     25  O   UNL     1       5.745   4.341  19.241  0.00  0.00    +0.000 OA
BRANCH  23  26
ATOM     26  C   UNL     1       4.810   4.433  16.624  0.00  0.00    +0.000 A 
ATOM     27  C   UNL     1       5.553   3.422  16.004  0.00  0.00    +0.000 A 
ATOM     28  C   UNL     1       6.394   3.721  14.931  0.00  0.00    +0.000 A 
ATOM     29  C   UNL     1       6.512   5.034  14.482  0.00  0.00    +0.000 A 
ATOM     30  C   UNL     1       5.774   6.046  15.091  0.00  0.00    +0.000 A 
ATOM     31  C   UNL     1       4.914   5.745  16.151  0.00  0.00    +0.000 A 
ENDBRANCH  23  26
BRANCH  23  33
ATOM     32  C   UNL     1       2.437   2.131  17.619  0.00  0.00    +0.000 C 
ATOM     33  C   UNL     1       2.630   3.626  17.404  0.00  0.00    +0.000 C 
ENDBRANCH  23  33
ENDBRANCH  22  24
ENDBRANCH  21  22
ENDBRANCH  19  21
ENDBRANCH   1  19
TORSDOF 10
ENDMDL
MODEL 7
REMARK VINA RESULT:      -7.8      1.567      2.104
REMARK  Name = 
REMARK  11 active torsions:
REMARK  status: ('A' for Active; 'I' for Inactive)
REMARK    1  A    between atoms: C_1  and  C_2
REMARK    2  A    between atoms: C_2  and  N_3
REMARK    3  A    between atoms: N_3  and  C_27
REMARK    4  A    between atoms: C_4  and  C_6
REMARK    5  A    between atoms: C_6  and  O_7
REMARK    6  A    between atoms: O_7  and  C_8
REMARK    7  A    between atoms: C_8  and  C_10
REMARK    8  A    between atoms: C_14  and  S_15
REMARK    9  A    between atoms: S_15  and  N_18
REMARK   10  A    between atoms: N_18  and  C_19
REMARK   11  A    between atoms: C_19  and  C_20
REMARK                            x       y       z     vdW  Elec       q    Type
REMARK                         _______ _______ _______ _____ _____    ______ ____
ROOT
ATOM      1  C   UNL     1       2.189   7.307  18.752  0.00  0.00    +0.000 A 
ATOM      2  C   UNL     1       1.831   7.370  20.108  0.00  0.00    +0.000 A 
ATOM      3  C   UNL     1       1.742   6.209  20.869  0.00  0.00    +0.000 A 
ATOM      4  C   UNL     1       2.010   4.974  20.284  0.00  0.00    +0.000 A 
ATOM      5  C   UNL     1       2.369   4.903  18.931  0.00  0.00    +0.000 A 
ATOM      6  C   UNL     1       2.460   6.067  18.157  0.00  0.00    +0.000 A 
ENDROOT
BRANCH   5   7
ATOM      7  S   UNL     1       2.812   3.312  18.248  0.00  0.00    +0.000 S 
ATOM      8  O   UNL     1       2.615   2.335  19.298  0.00  0.00    +0.000 OA
ATOM      9  O   UNL     1       2.150   3.206  16.968  0.00  0.00    +0.000 OA
BRANCH   7  10
ATOM     10  N   UNL     1       4.454   3.454  17.918  0.00  0.00    +0.000 NA
ATOM     11  H   UNL     1       4.650   3.842  16.997  0.00  0.00    +0.000 HD
BRANCH  10  12
ATOM     12  C   UNL     1       5.288   4.015  18.988  0.00  0.00    +0.000 C 
BRANCH  12  13
ATOM     13  C   UNL     1       6.105   5.188  18.506  0.00  0.00    +0.000 A 
ATOM     14  C   UNL     1       5.679   5.944  17.404  0.00  0.00    +0.000 A 
ATOM     15  C   UNL     1       6.423   7.042  16.971  0.00  0.00    +0.000 A 
ATOM     16  C   UNL     1       7.596   7.396  17.634  0.00  0.00    +0.000 A 
ATOM     17  C   UNL     1       8.028   6.655  18.732  0.00  0.00    +0.000 A 
ATOM     18  C   UNL     1       7.286   5.555  19.167  0.00  0.00    +0.000 A 
ENDBRANCH  12  13
ENDBRANCH  10  12
ENDBRANCH   7  10
ENDBRANCH   5   7
BRANCH   1  19
ATOM     19  C   UNL     1       2.186   8.544  17.929  0.00  0.00    +0.000 C 
ATOM     20  O   UNL     1       3.137   8.915  17.263  0.00  0.00    +0.000 OA
BRANCH  19  21
ATOM     21  O   UNL     1       0.941   9.078  17.945  0.00  0.00    +0.000 OA
BRANCH  21  22
ATOM     22  C   UNL     1       0.852  10.363  18.556  0.00  0.00    +0.000 C 
BRANCH  22  24
ATOM     23  N   UNL     1      -1.137  11.845  18.934  0.00  0.00    +0.000 N 
ATOM     24  C   UNL     1      -0.452  10.675  19.304  0.00  0.00    +0.000 C 
ATOM     25  O   UNL     1      -0.892   9.846  20.106  0.00  0.00    +0.000 OA
BRANCH  23  26
ATOM     26  C   UNL     1      -2.392  12.122  19.558  0.00  0.00    +0.000 A 
ATOM     27  C   UNL     1      -3.588  11.940  18.856  0.00  0.00    +0.000 A 
ATOM     28  C   UNL     1      -4.812  12.241  19.457  0.00  0.00    +0.000 A 
ATOM     29  C   UNL     1      -4.847  12.742  20.757  0.00  0.00    +0.000 A 
ATOM     30  C   UNL     1      -3.660  12.923  21.463  0.00  0.00    +0.000 A 
ATOM     31  C   UNL     1      -2.436  12.601  20.871  0.00  0.00    +0.000 A 
ENDBRANCH  23  26
BRANCH  23  33
ATOM     32  C   UNL     1       0.281  13.936  18.984  0.00  0.00    +0.000 C 
ATOM     33  C   UNL     1      -0.556  12.963  18.166  0.00  0.00    +0.000 C 
ENDBRANCH  23  33
ENDBRANCH  22  24
ENDBRANCH  21  22
ENDBRANCH  19  21
ENDBRANCH   1  19
TORSDOF 10
ENDMDL
MODEL 8
REMARK VINA RESULT:      -7.8      1.709      2.352
REMARK  Name = 
REMARK  11 active torsions:
REMARK  status: ('A' for Active; 'I' for Inactive)
REMARK    1  A    between atoms: C_1  and  C_2
REMARK    2  A    between atoms: C_2  and  N_3
REMARK    3  A    between atoms: N_3  and  C_27
REMARK    4  A    between atoms: C_4  and  C_6
REMARK    5  A    between atoms: C_6  and  O_7
REMARK    6  A    between atoms: O_7  and  C_8
REMARK    7  A    between atoms: C_8  and  C_10
REMARK    8  A    between atoms: C_14  and  S_15
REMARK    9  A    between atoms: S_15  and  N_18
REMARK   10  A    between atoms: N_18  and  C_19
REMARK   11  A    between atoms: C_19  and  C_20
REMARK                            x       y       z     vdW  Elec       q    Type
REMARK                         _______ _______ _______ _____ _____    ______ ____
ROOT
ATOM      1  C   UNL     1       2.187   6.077  19.945  0.00  0.00    +0.000 A 
ATOM      2  C   UNL     1       1.830   5.428  21.137  0.00  0.00    +0.000 A 
ATOM      3  C   UNL     1       1.885   4.041  21.229  0.00  0.00    +0.000 A 
ATOM      4  C   UNL     1       2.298   3.289  20.131  0.00  0.00    +0.000 A 
ATOM      5  C   UNL     1       2.657   3.931  18.938  0.00  0.00    +0.000 A 
ATOM      6  C   UNL     1       2.603   5.327  18.836  0.00  0.00    +0.000 A 
ENDROOT
BRANCH   5   7
ATOM      7  S   UNL     1       3.286   2.939  17.591  0.00  0.00    +0.000 S 
ATOM      8  O   UNL     1       3.467   1.598  18.106  0.00  0.00    +0.000 OA
ATOM      9  O   UNL     1       2.451   3.213  16.443  0.00  0.00    +0.000 OA
BRANCH   7  10
ATOM     10  N   UNL     1       4.787   3.615  17.253  0.00  0.00    +0.000 NA
ATOM     11  H   UNL     1       4.758   4.315  16.513  0.00  0.00    +0.000 HD
BRANCH  10  12
ATOM     12  C   UNL     1       5.600   4.007  18.411  0.00  0.00    +0.000 C 
BRANCH  12  13
ATOM     13  C   UNL     1       6.307   5.320  18.180  0.00  0.00    +0.000 A 
ATOM     14  C   UNL     1       7.465   5.641  18.903  0.00  0.00    +0.000 A 
ATOM     15  C   UNL     1       8.131   6.845  18.674  0.00  0.00    +0.000 A 
ATOM     16  C   UNL     1       7.648   7.740  17.721  0.00  0.00    +0.000 A 
ATOM     17  C   UNL     1       6.500   7.432  16.994  0.00  0.00    +0.000 A 
ATOM     18  C   UNL     1       5.832   6.227  17.222  0.00  0.00    +0.000 A 
ENDBRANCH  12  13
ENDBRANCH  10  12
ENDBRANCH   7  10
ENDBRANCH   5   7
BRANCH   1  19
ATOM     19  C   UNL     1       2.031   7.551  19.832  0.00  0.00    +0.000 C 
ATOM     20  O   UNL     1       1.689   8.268  20.756  0.00  0.00    +0.000 OA
BRANCH  19  21
ATOM     21  O   UNL     1       2.459   7.943  18.608  0.00  0.00    +0.000 OA
BRANCH  21  22
ATOM     22  C   UNL     1       1.540   8.765  17.891  0.00  0.00    +0.000 C 
BRANCH  22  24
ATOM     23  N   UNL     1       0.481  10.792  18.923  0.00  0.00    +0.000 N 
ATOM     24  C   UNL     1       1.573  10.266  18.211  0.00  0.00    +0.000 C 
ATOM     25  O   UNL     1       2.587  10.913  17.932  0.00  0.00    +0.000 OA
BRANCH  23  26
ATOM     26  C   UNL     1       0.518  12.169  19.301  0.00  0.00    +0.000 A 
ATOM     27  C   UNL     1       0.095  13.161  18.410  0.00  0.00    +0.000 A 
ATOM     28  C   UNL     1       0.161  14.508  18.770  0.00  0.00    +0.000 A 
ATOM     29  C   UNL     1       0.666  14.873  20.016  0.00  0.00    +0.000 A 
ATOM     30  C   UNL     1       1.087  13.891  20.911  0.00  0.00    +0.000 A 
ATOM     31  C   UNL     1       1.000  12.542  20.560  0.00  0.00    +0.000 A 
ENDBRANCH  23  26
BRANCH  23  33
ATOM     32  C   UNL     1      -1.750  10.247  17.868  0.00  0.00    +0.000 C 
ATOM     33  C   UNL     1      -0.830  10.133  19.075  0.00  0.00    +0.000 C 
ENDBRANCH  23  33
ENDBRANCH  22  24
ENDBRANCH  21  22
ENDBRANCH  19  21
ENDBRANCH   1  19
TORSDOF 10
ENDMDL
MODEL 9
REMARK VINA RESULT:      -7.8      1.458      2.339
REMARK  Name = 
REMARK  11 active torsions:
REMARK  status: ('A' for Active; 'I' for Inactive)
REMARK    1  A    between atoms: C_1  and  C_2
REMARK    2  A    between atoms: C_2  and  N_3
REMARK    3  A    between atoms: N_3  and  C_27
REMARK    4  A    between atoms: C_4  and  C_6
REMARK    5  A    between atoms: C_6  and  O_7
REMARK    6  A    between atoms: O_7  and  C_8
REMARK    7  A    between atoms: C_8  and  C_10
REMARK    8  A    between atoms: C_14  and  S_15
REMARK    9  A    between atoms: S_15  and  N_18
REMARK   10  A    between atoms: N_18  and  C_19
REMARK   11  A    between atoms: C_19  and  C_20
REMARK                            x       y       z     vdW  Elec       q    Type
REMARK                         _______ _______ _______ _____ _____    ______ ____
ROOT
ATOM      1  C   UNL     1       2.256   6.760  19.075  0.00  0.00    +0.000 A 
ATOM      2  C   UNL     1       1.928   6.545  20.422  0.00  0.00    +0.000 A 
ATOM      3  C   UNL     1       1.865   5.254  20.936  0.00  0.00    +0.000 A 
ATOM      4  C   UNL     1       2.131   4.165  20.110  0.00  0.00    +0.000 A 
ATOM      5  C   UNL     1       2.461   4.372  18.763  0.00  0.00    +0.000 A 
ATOM      6  C   UNL     1       2.525   5.669  18.237  0.00  0.00    +0.000 A 
ENDROOT
BRANCH   5   7
ATOM      7  S   UNL     1       2.903   2.957  17.765  0.00  0.00    +0.000 S 
ATOM      8  O   UNL     1       2.568   1.778  18.537  0.00  0.00    +0.000 OA
ATOM      9  O   UNL     1       2.362   3.188  16.445  0.00  0.00    +0.000 OA
BRANCH   7  10
ATOM     10  N   UNL     1       4.573   3.069  17.616  0.00  0.00    +0.000 NA
ATOM     11  H   UNL     1       5.043   2.165  17.631  0.00  0.00    +0.000 HD
BRANCH  10  12
ATOM     12  C   UNL     1       5.075   3.982  16.581  0.00  0.00    +0.000 C 
BRANCH  12  13
ATOM     13  C   UNL     1       5.994   5.031  17.156  0.00  0.00    +0.000 A 
ATOM     14  C   UNL     1       6.936   4.689  18.138  0.00  0.00    +0.000 A 
ATOM     15  C   UNL     1       7.801   5.654  18.654  0.00  0.00    +0.000 A 
ATOM     16  C   UNL     1       7.734   6.968  18.196  0.00  0.00    +0.000 A 
ATOM     17  C   UNL     1       6.805   7.320  17.218  0.00  0.00    +0.000 A 
ATOM     18  C   UNL     1       5.938   6.356  16.700  0.00  0.00    +0.000 A 
ENDBRANCH  12  13
ENDBRANCH  10  12
ENDBRANCH   7  10
ENDBRANCH   5   7
BRANCH   1  19
ATOM     19  C   UNL     1       2.225   8.137  18.517  0.00  0.00    +0.000 C 
ATOM     20  O   UNL     1       2.499   8.405  17.361  0.00  0.00    +0.000 OA
BRANCH  19  21
ATOM     21  O   UNL     1       1.721   8.977  19.454  0.00  0.00    +0.000 OA
BRANCH  21  22
ATOM     22  C   UNL     1       0.663   9.815  18.994  0.00  0.00    +0.000 C 
BRANCH  22  24
ATOM     23  N   UNL     1       0.165  12.174  19.689  0.00  0.00    +0.000 N 
ATOM     24  C   UNL     1       0.968  11.319  18.916  0.00  0.00    +0.000 C 
ATOM     25  O   UNL     1       1.956  11.694  18.278  0.00  0.00    +0.000 OA
BRANCH  23  26
ATOM     26  C   UNL     1       0.472  13.570  19.697  0.00  0.00    +0.000 A 
ATOM     27  C   UNL     1       1.359  14.095  20.643  0.00  0.00    +0.000 A 
ATOM     28  C   UNL     1       1.635  15.463  20.668  0.00  0.00    +0.000 A 
ATOM     29  C   UNL     1       1.013  16.317  19.760  0.00  0.00    +0.000 A 
ATOM     30  C   UNL     1       0.131  15.801  18.813  0.00  0.00    +0.000 A 
ATOM     31  C   UNL     1      -0.128  14.430  18.772  0.00  0.00    +0.000 A 
ENDBRANCH  23  26
BRANCH  23  33
ATOM     32  C   UNL     1      -1.127  11.584  21.779  0.00  0.00    +0.000 C 
ATOM     33  C   UNL     1      -1.141  11.815  20.275  0.00  0.00    +0.000 C 
ENDBRANCH  23  33
ENDBRANCH  22  24
ENDBRANCH  21  22
ENDBRANCH  19  21
ENDBRANCH   1  19
TORSDOF 10
ENDMDL
