MODEL 1
REMARK VINA RESULT:      -9.4      0.000      0.000
REMARK  Name = 
REMARK  5 active torsions:
REMARK  status: ('A' for Active; 'I' for Inactive)
REMARK    1  A    between atoms: C_4  and  C_5
REMARK    2  A    between atoms: C_9  and  C_10
REMARK    3  A    between atoms: C_14  and  C_15
REMARK    4  A    between atoms: C_18  and  C_19
REMARK    5  A    between atoms: C_19  and  N_20
REMARK                            x       y       z     vdW  Elec       q    Type
REMARK                         _______ _______ _______ _____ _____    ______ ____
ROOT
ATOM      1  C   UNL     1       4.506   4.260  16.676  0.00  0.00    +0.000 A 
ATOM      2  C   UNL     1       3.998   3.036  17.122  0.00  0.00    +0.000 A 
ATOM      3  C   UNL     1       3.063   3.029  18.176  0.00  0.00    +0.000 A 
ATOM      4  N   UNL     1       2.626   4.200  18.736  0.00  0.00    +0.000 NA
ATOM      5  C   UNL     1       3.044   5.412  18.268  0.00  0.00    +0.000 A 
ATOM      6  C   UNL     1       3.988   5.430  17.233  0.00  0.00    +0.000 A 
ENDROOT
BRANCH   1  11
ATOM      7  C   UNL     1       6.704   5.180  15.658  0.00  0.00    +0.000 A 
ATOM      8  N   UNL     1       7.323   5.114  14.463  0.00  0.00    +0.000 NA
ATOM      9  N   UNL     1       6.631   4.291  13.690  0.00  0.00    +0.000 N 
ATOM     10  C   UNL     1       5.557   3.819  14.359  0.00  0.00    +0.000 A 
ATOM     11  C   UNL     1       5.549   4.392  15.615  0.00  0.00    +0.000 A 
ATOM     12  H   UNL     1       6.887   4.057  12.705  0.00  0.00    +0.000 HD
BRANCH   7  16
ATOM     13  C   UNL     1       8.293   7.402  18.942  0.00  0.00    +0.000 A 
ATOM     14  C   UNL     1       8.118   6.025  19.079  0.00  0.00    +0.000 A 
ATOM     15  C   UNL     1       7.575   5.272  18.031  0.00  0.00    +0.000 A 
ATOM     16  C   UNL     1       7.235   5.919  16.833  0.00  0.00    +0.000 A 
ATOM     17  N   UNL     1       7.400   7.269  16.744  0.00  0.00    +0.000 NA
ATOM     18  C   UNL     1       7.907   8.018  17.756  0.00  0.00    +0.000 A 
ENDBRANCH   7  16
ENDBRANCH   1  11
BRANCH   5  19
ATOM     19  C   UNL     1       2.496   6.715  18.787  0.00  0.00    +0.000 A 
ATOM     20  C   UNL     1       2.051   6.914  20.115  0.00  0.00    +0.000 A 
ATOM     21  C   UNL     1       1.517   8.169  20.513  0.00  0.00    +0.000 A 
ATOM     22  C   UNL     1       1.414   9.230  19.583  0.00  0.00    +0.000 A 
ATOM     23  C   UNL     1       1.864   9.017  18.280  0.00  0.00    +0.000 A 
ATOM     24  C   UNL     1       2.389   7.799  17.894  0.00  0.00    +0.000 A 
BRANCH  22  25
ATOM     25  C   UNL     1       0.764  10.576  19.878  0.00  0.00    +0.000 C 
BRANCH  25  26
ATOM     26  N   UNL     1      -0.686  10.566  20.188  0.00  0.00    +0.000 NA
ATOM     27  C   UNL     1      -1.494  10.777  18.960  0.00  0.00    +0.000 C 
ATOM     28  C   UNL     1      -1.584  12.272  18.578  0.00  0.00    +0.000 C 
ATOM     29  O   UNL     1      -2.124  13.026  19.645  0.00  0.00    +0.000 OA
ATOM     30  C   UNL     1      -1.266  12.933  20.766  0.00  0.00    +0.000 C 
ATOM     31  C   UNL     1      -1.154  11.478  21.251  0.00  0.00    +0.000 C 
ENDBRANCH  25  26
ENDBRANCH  22  25
ENDBRANCH   5  19
TORSDOF 5
ENDMDL
MODEL 2
REMARK VINA RESULT:      -9.3      0.521      1.042
REMARK  Name = 
REMARK  5 active torsions:
REMARK  status: ('A' for Active; 'I' for Inactive)
REMARK    1  A    between atoms: C_4  and  C_5
REMARK    2  A    between atoms: C_9  and  C_10
REMARK    3  A    between atoms: C_14  and  C_15
REMARK    4  A    between atoms: C_18  and  C_19
REMARK    5  A    between atoms: C_19  and  N_20
REMARK                            x       y       z     vdW  Elec       q    Type
REMARK                         _______ _______ _______ _____ _____    ______ ____
ROOT
ATOM      1  C   UNL     1       4.470   4.458  16.855  0.00  0.00    +0.000 A 
ATOM      2  C   UNL     1       4.013   3.270  17.434  0.00  0.00    +0.000 A 
ATOM      3  C   UNL     1       3.077   3.338  18.485  0.00  0.00    +0.000 A 
ATOM      4  N   UNL     1       2.590   4.544  18.914  0.00  0.00    +0.000 NA
ATOM      5  C   UNL     1       2.956   5.714  18.315  0.00  0.00    +0.000 A 
ATOM      6  C   UNL     1       3.901   5.659  17.283  0.00  0.00    +0.000 A 
ENDROOT
BRANCH   1  11
ATOM      7  C   UNL     1       6.685   5.274  15.788  0.00  0.00    +0.000 A 
ATOM      8  N   UNL     1       7.294   5.141  14.593  0.00  0.00    +0.000 NA
ATOM      9  N   UNL     1       6.574   4.307  13.859  0.00  0.00    +0.000 N 
ATOM     10  C   UNL     1       5.492   3.893  14.553  0.00  0.00    +0.000 A 
ATOM     11  C   UNL     1       5.509   4.517  15.784  0.00  0.00    +0.000 A 
ATOM     12  H   UNL     1       6.816   4.026  12.883  0.00  0.00    +0.000 HD
BRANCH   7  16
ATOM     13  C   UNL     1       8.356   7.583  18.968  0.00  0.00    +0.000 A 
ATOM     14  C   UNL     1       8.167   6.214  19.155  0.00  0.00    +0.000 A 
ATOM     15  C   UNL     1       7.597   5.433  18.141  0.00  0.00    +0.000 A 
ATOM     16  C   UNL     1       7.245   6.044  16.929  0.00  0.00    +0.000 A 
ATOM     17  N   UNL     1       7.425   7.388  16.792  0.00  0.00    +0.000 NA
ATOM     18  C   UNL     1       7.958   8.164  17.769  0.00  0.00    +0.000 A 
ENDBRANCH   7  16
ENDBRANCH   1  11
BRANCH   5  19
ATOM     19  C   UNL     1       2.352   7.042  18.689  0.00  0.00    +0.000 A 
ATOM     20  C   UNL     1       2.186   8.118  17.786  0.00  0.00    +0.000 A 
ATOM     21  C   UNL     1       1.636   9.350  18.231  0.00  0.00    +0.000 A 
ATOM     22  C   UNL     1       1.261   9.519  19.584  0.00  0.00    +0.000 A 
ATOM     23  C   UNL     1       1.427   8.445  20.458  0.00  0.00    +0.000 A 
ATOM     24  C   UNL     1       1.955   7.244  20.025  0.00  0.00    +0.000 A 
BRANCH  22  25
ATOM     25  C   UNL     1       0.761  10.827  20.186  0.00  0.00    +0.000 C 
BRANCH  25  26
ATOM     26  N   UNL     1      -0.661  11.173  19.947  0.00  0.00    +0.000 NA
ATOM     27  C   UNL     1      -0.816  11.943  18.687  0.00  0.00    +0.000 C 
ATOM     28  C   UNL     1      -0.483  13.440  18.880  0.00  0.00    +0.000 C 
ATOM     29  O   UNL     1      -1.293  14.003  19.891  0.00  0.00    +0.000 OA
ATOM     30  C   UNL     1      -1.028  13.356  21.121  0.00  0.00    +0.000 C 
ATOM     31  C   UNL     1      -1.380  11.861  21.039  0.00  0.00    +0.000 C 
ENDBRANCH  25  26
ENDBRANCH  22  25
ENDBRANCH   5  19
TORSDOF 5
ENDMDL
MODEL 3
REMARK VINA RESULT:      -9.3      0.935      1.183
REMARK  Name = 
REMARK  5 active torsions:
REMARK  status: ('A' for Active; 'I' for Inactive)
REMARK    1  A    between atoms: C_4  and  C_5
REMARK    2  A    between atoms: C_9  and  C_10
REMARK    3  A    between atoms: C_14  and  C_15
REMARK    4  A    between atoms: C_18  and  C_19
REMARK    5  A    between atoms: C_19  and  N_20
REMARK                            x       y       z     vdW  Elec       q    Type
REMARK                         _______ _______ _______ _____ _____    ______ ____
ROOT
ATOM      1  C   UNL     1       4.504   4.318  16.785  0.00  0.00    +0.000 A 
ATOM      2  C   UNL     1       4.049   3.098  17.294  0.00  0.00    +0.000 A 
ATOM      3  C   UNL     1       3.130   3.104  18.362  0.00  0.00    +0.000 A 
ATOM      4  N   UNL     1       2.655   4.283  18.874  0.00  0.00    +0.000 NA
ATOM      5  C   UNL     1       3.019   5.486  18.344  0.00  0.00    +0.000 A 
ATOM      6  C   UNL     1       3.949   5.492  17.296  0.00  0.00    +0.000 A 
ENDROOT
BRANCH   1  11
ATOM      7  C   UNL     1       6.684   5.226  15.719  0.00  0.00    +0.000 A 
ATOM      8  N   UNL     1       7.280   5.149  14.513  0.00  0.00    +0.000 NA
ATOM      9  N   UNL     1       6.571   4.323  13.759  0.00  0.00    +0.000 N 
ATOM     10  C   UNL     1       5.509   3.858  14.452  0.00  0.00    +0.000 A 
ATOM     11  C   UNL     1       5.527   4.440  15.703  0.00  0.00    +0.000 A 
ATOM     12  H   UNL     1       6.807   4.081  12.771  0.00  0.00    +0.000 HD
BRANCH   7  16
ATOM     13  C   UNL     1       8.344   7.464  18.955  0.00  0.00    +0.000 A 
ATOM     14  C   UNL     1       8.144   6.093  19.115  0.00  0.00    +0.000 A 
ATOM     15  C   UNL     1       7.577   5.335  18.082  0.00  0.00    +0.000 A 
ATOM     16  C   UNL     1       7.239   5.971  16.878  0.00  0.00    +0.000 A 
ATOM     17  N   UNL     1       7.429   7.316  16.768  0.00  0.00    +0.000 NA
ATOM     18  C   UNL     1       7.959   8.070  17.764  0.00  0.00    +0.000 A 
ENDBRANCH   7  16
ENDBRANCH   1  11
BRANCH   5  19
ATOM     19  C   UNL     1       2.429   6.791  18.811  0.00  0.00    +0.000 A 
ATOM     20  C   UNL     1       1.988   7.031  20.134  0.00  0.00    +0.000 A 
ATOM     21  C   UNL     1       1.412   8.283  20.481  0.00  0.00    +0.000 A 
ATOM     22  C   UNL     1       1.262   9.297  19.507  0.00  0.00    +0.000 A 
ATOM     23  C   UNL     1       1.708   9.043  18.210  0.00  0.00    +0.000 A 
ATOM     24  C   UNL     1       2.275   7.829  17.873  0.00  0.00    +0.000 A 
BRANCH  22  25
ATOM     25  C   UNL     1       0.566  10.631  19.748  0.00  0.00    +0.000 C 
BRANCH  25  26
ATOM     26  N   UNL     1       0.907  11.347  21.001  0.00  0.00    +0.000 NA
ATOM     27  C   UNL     1      -0.198  11.244  21.989  0.00  0.00    +0.000 C 
ATOM     28  C   UNL     1      -1.321  12.268  21.708  0.00  0.00    +0.000 C 
ATOM     29  O   UNL     1      -0.804  13.583  21.698  0.00  0.00    +0.000 OA
ATOM     30  C   UNL     1       0.144  13.708  20.656  0.00  0.00    +0.000 C 
ATOM     31  C   UNL     1       1.331  12.756  20.879  0.00  0.00    +0.000 C 
ENDBRANCH  25  26
ENDBRANCH  22  25
ENDBRANCH   5  19
TORSDOF 5
ENDMDL
MODEL 4
REMARK VINA RESULT:      -9.2      1.280      1.599
REMARK  Name = 
REMARK  5 active torsions:
REMARK  status: ('A' for Active; 'I' for Inactive)
REMARK    1  A    between atoms: C_4  and  C_5
REMARK    2  A    between atoms: C_9  and  C_10
REMARK    3  A    between atoms: C_14  and  C_15
REMARK    4  A    between atoms: C_18  and  C_19
REMARK    5  A    between atoms: C_19  and  N_20
REMARK                            x       y       z     vdW  Elec       q    Type
REMARK                         _______ _______ _______ _____ _____    ______ ____
ROOT
ATOM      1  C   UNL     1       4.414   4.588  16.999  0.00  0.00    +0.000 A 
ATOM      2  C   UNL     1       3.996   3.409  17.624  0.00  0.00    +0.000 A 
ATOM      3  C   UNL     1       3.091   3.491  18.700  0.00  0.00    +0.000 A 
ATOM      4  N   UNL     1       2.595   4.701  19.111  0.00  0.00    +0.000 NA
ATOM      5  C   UNL     1       2.923   5.859  18.469  0.00  0.00    +0.000 A 
ATOM      6  C   UNL     1       3.838   5.791  17.410  0.00  0.00    +0.000 A 
ENDROOT
BRANCH   1  11
ATOM      7  C   UNL     1       6.604   5.377  15.861  0.00  0.00    +0.000 A 
ATOM      8  N   UNL     1       7.173   5.237  14.648  0.00  0.00    +0.000 NA
ATOM      9  N   UNL     1       6.420   4.411  13.937  0.00  0.00    +0.000 N 
ATOM     10  C   UNL     1       5.356   4.009  14.666  0.00  0.00    +0.000 A 
ATOM     11  C   UNL     1       5.419   4.634  15.895  0.00  0.00    +0.000 A 
ATOM     12  H   UNL     1       6.629   4.126  12.954  0.00  0.00    +0.000 HD
BRANCH   7  16
ATOM     13  C   UNL     1       8.406   7.666  18.984  0.00  0.00    +0.000 A 
ATOM     14  C   UNL     1       8.159   6.310  19.197  0.00  0.00    +0.000 A 
ATOM     15  C   UNL     1       7.546   5.537  18.203  0.00  0.00    +0.000 A 
ATOM     16  C   UNL     1       7.209   6.142  16.983  0.00  0.00    +0.000 A 
ATOM     17  N   UNL     1       7.445   7.474  16.820  0.00  0.00    +0.000 NA
ATOM     18  C   UNL     1       8.022   8.243  17.779  0.00  0.00    +0.000 A 
ENDBRANCH   7  16
ENDBRANCH   1  11
BRANCH   5  19
ATOM     19  C   UNL     1       2.308   7.187  18.824  0.00  0.00    +0.000 A 
ATOM     20  C   UNL     1       1.877   7.536  20.126  0.00  0.00    +0.000 A 
ATOM     21  C   UNL     1       1.276   8.801  20.367  0.00  0.00    +0.000 A 
ATOM     22  C   UNL     1       1.091   9.720  19.308  0.00  0.00    +0.000 A 
ATOM     23  C   UNL     1       1.527   9.359  18.034  0.00  0.00    +0.000 A 
ATOM     24  C   UNL     1       2.118   8.133  17.799  0.00  0.00    +0.000 A 
BRANCH  22  25
ATOM     25  C   UNL     1       0.366  11.054  19.438  0.00  0.00    +0.000 C 
BRANCH  25  26
ATOM     26  N   UNL     1       0.966  12.213  18.735  0.00  0.00    +0.000 NA
ATOM     27  C   UNL     1       2.115  12.762  19.500  0.00  0.00    +0.000 C 
ATOM     28  C   UNL     1       1.654  13.693  20.644  0.00  0.00    +0.000 C 
ATOM     29  O   UNL     1       0.864  14.749  20.138  0.00  0.00    +0.000 OA
ATOM     30  C   UNL     1      -0.302  14.218  19.538  0.00  0.00    +0.000 C 
ATOM     31  C   UNL     1       0.059  13.312  18.349  0.00  0.00    +0.000 C 
ENDBRANCH  25  26
ENDBRANCH  22  25
ENDBRANCH   5  19
TORSDOF 5
ENDMDL
MODEL 5
REMARK VINA RESULT:      -9.0      2.394      4.649
REMARK  Name = 
REMARK  5 active torsions:
REMARK  status: ('A' for Active; 'I' for Inactive)
REMARK    1  A    between atoms: C_4  and  C_5
REMARK    2  A    between atoms: C_9  and  C_10
REMARK    3  A    between atoms: C_14  and  C_15
REMARK    4  A    between atoms: C_18  and  C_19
REMARK    5  A    between atoms: C_19  and  N_20
REMARK                            x       y       z     vdW  Elec       q    Type
REMARK                         _______ _______ _______ _____ _____    ______ ____
ROOT
ATOM      1  C   UNL     1       2.589   6.218  19.586  0.00  0.00    +0.000 A 
ATOM      2  C   UNL     1       3.081   6.678  18.360  0.00  0.00    +0.000 A 
ATOM      3  C   UNL     1       2.726   7.969  17.923  0.00  0.00    +0.000 A 
ATOM      4  N   UNL     1       1.941   8.782  18.697  0.00  0.00    +0.000 NA
ATOM      5  C   UNL     1       1.512   8.391  19.932  0.00  0.00    +0.000 A 
ATOM      6  C   UNL     1       1.843   7.102  20.368  0.00  0.00    +0.000 A 
ENDROOT
BRANCH   1  11
ATOM      7  C   UNL     1       3.765   3.911  19.651  0.00  0.00    +0.000 A 
ATOM      8  N   UNL     1       3.603   2.757  20.328  0.00  0.00    +0.000 NA
ATOM      9  N   UNL     1       2.648   2.942  21.226  0.00  0.00    +0.000 N 
ATOM     10  C   UNL     1       2.172   4.203  21.145  0.00  0.00    +0.000 A 
ATOM     11  C   UNL     1       2.839   4.847  20.123  0.00  0.00    +0.000 A 
ATOM     12  H   UNL     1       2.316   2.207  21.890  0.00  0.00    +0.000 HD
BRANCH   7  16
ATOM     13  C   UNL     1       6.848   4.677  16.796  0.00  0.00    +0.000 A 
ATOM     14  C   UNL     1       5.648   4.115  16.360  0.00  0.00    +0.000 A 
ATOM     15  C   UNL     1       4.627   3.827  17.275  0.00  0.00    +0.000 A 
ATOM     16  C   UNL     1       4.820   4.137  18.629  0.00  0.00    +0.000 A 
ATOM     17  N   UNL     1       6.014   4.665  19.021  0.00  0.00    +0.000 NA
ATOM     18  C   UNL     1       7.022   4.933  18.152  0.00  0.00    +0.000 A 
ENDBRANCH   7  16
ENDBRANCH   1  11
BRANCH   5  19
ATOM     19  C   UNL     1       0.744   9.304  20.851  0.00  0.00    +0.000 A 
ATOM     20  C   UNL     1       0.080   8.871  22.023  0.00  0.00    +0.000 A 
ATOM     21  C   UNL     1      -0.650   9.795  22.817  0.00  0.00    +0.000 A 
ATOM     22  C   UNL     1      -0.731  11.156  22.440  0.00  0.00    +0.000 A 
ATOM     23  C   UNL     1      -0.065  11.564  21.285  0.00  0.00    +0.000 A 
ATOM     24  C   UNL     1       0.651  10.668  20.515  0.00  0.00    +0.000 A 
BRANCH  22  25
ATOM     25  C   UNL     1      -1.570  12.204  23.161  0.00  0.00    +0.000 C 
BRANCH  25  26
ATOM     26  N   UNL     1      -3.043  12.052  23.082  0.00  0.00    +0.000 NA
ATOM     27  C   UNL     1      -3.572  12.657  21.832  0.00  0.00    +0.000 C 
ATOM     28  C   UNL     1      -3.735  14.188  21.956  0.00  0.00    +0.000 C 
ATOM     29  O   UNL     1      -4.578  14.513  23.043  0.00  0.00    +0.000 OA
ATOM     30  C   UNL     1      -3.989  14.058  24.246  0.00  0.00    +0.000 C 
ATOM     31  C   UNL     1      -3.833  12.528  24.235  0.00  0.00    +0.000 C 
ENDBRANCH  25  26
ENDBRANCH  22  25
ENDBRANCH   5  19
TORSDOF 5
ENDMDL
MODEL 6
REMARK VINA RESULT:      -8.9      0.945      1.355
REMARK  Name = 
REMARK  5 active torsions:
REMARK  status: ('A' for Active; 'I' for Inactive)
REMARK    1  A    between atoms: C_4  and  C_5
REMARK    2  A    between atoms: C_9  and  C_10
REMARK    3  A    between atoms: C_14  and  C_15
REMARK    4  A    between atoms: C_18  and  C_19
REMARK    5  A    between atoms: C_19  and  N_20
REMARK                            x       y       z     vdW  Elec       q    Type
REMARK                         _______ _______ _______ _____ _____    ______ ____
ROOT
ATOM      1  C   UNL     1       4.487   4.278  16.684  0.00  0.00    +0.000 A 
ATOM      2  C   UNL     1       3.993   3.045  17.122  0.00  0.00    +0.000 A 
ATOM      3  C   UNL     1       3.063   3.018  18.180  0.00  0.00    +0.000 A 
ATOM      4  N   UNL     1       2.616   4.180  18.752  0.00  0.00    +0.000 NA
ATOM      5  C   UNL     1       3.019   5.400  18.293  0.00  0.00    +0.000 A 
ATOM      6  C   UNL     1       3.959   5.437  17.255  0.00  0.00    +0.000 A 
ENDROOT
BRANCH   1  11
ATOM      7  C   UNL     1       6.710   5.167  15.696  0.00  0.00    +0.000 A 
ATOM      8  N   UNL     1       7.314   5.147  14.491  0.00  0.00    +0.000 NA
ATOM      9  N   UNL     1       6.581   4.401  13.680  0.00  0.00    +0.000 N 
ATOM     10  C   UNL     1       5.495   3.933  14.333  0.00  0.00    +0.000 A 
ATOM     11  C   UNL     1       5.524   4.430  15.621  0.00  0.00    +0.000 A 
ATOM     12  H   UNL     1       6.817   4.215  12.680  0.00  0.00    +0.000 HD
BRANCH   7  16
ATOM     13  C   UNL     1       8.293   6.916  19.256  0.00  0.00    +0.000 A 
ATOM     14  C   UNL     1       8.007   7.740  18.169  0.00  0.00    +0.000 A 
ATOM     15  C   UNL     1       7.511   7.195  16.978  0.00  0.00    +0.000 A 
ATOM     16  C   UNL     1       7.283   5.812  16.906  0.00  0.00    +0.000 A 
ATOM     17  N   UNL     1       7.596   5.036  17.981  0.00  0.00    +0.000 NA
ATOM     18  C   UNL     1       8.095   5.545  19.137  0.00  0.00    +0.000 A 
ENDBRANCH   7  16
ENDBRANCH   1  11
BRANCH   5  19
ATOM     19  C   UNL     1       2.460   6.693  18.826  0.00  0.00    +0.000 A 
ATOM     20  C   UNL     1       2.040   6.882  20.164  0.00  0.00    +0.000 A 
ATOM     21  C   UNL     1       1.493   8.127  20.575  0.00  0.00    +0.000 A 
ATOM     22  C   UNL     1       1.351   9.187  19.650  0.00  0.00    +0.000 A 
ATOM     23  C   UNL     1       1.777   8.983  18.338  0.00  0.00    +0.000 A 
ATOM     24  C   UNL     1       2.315   7.776  17.938  0.00  0.00    +0.000 A 
BRANCH  22  25
ATOM     25  C   UNL     1       0.684  10.522  19.961  0.00  0.00    +0.000 C 
BRANCH  25  26
ATOM     26  N   UNL     1       0.273  11.351  18.802  0.00  0.00    +0.000 NA
ATOM     27  C   UNL     1       1.044  12.620  18.757  0.00  0.00    +0.000 C 
ATOM     28  C   UNL     1       0.466  13.680  19.722  0.00  0.00    +0.000 C 
ATOM     29  O   UNL     1      -0.893  13.931  19.429  0.00  0.00    +0.000 OA
ATOM     30  C   UNL     1      -1.641  12.744  19.617  0.00  0.00    +0.000 C 
ATOM     31  C   UNL     1      -1.167  11.641  18.657  0.00  0.00    +0.000 C 
ENDBRANCH  25  26
ENDBRANCH  22  25
ENDBRANCH   5  19
TORSDOF 5
ENDMDL
MODEL 7
REMARK VINA RESULT:      -8.9      0.825      1.107
REMARK  Name = 
REMARK  5 active torsions:
REMARK  status: ('A' for Active; 'I' for Inactive)
REMARK    1  A    between atoms: C_4  and  C_5
REMARK    2  A    between atoms: C_9  and  C_10
REMARK    3  A    between atoms: C_14  and  C_15
REMARK    4  A    between atoms: C_18  and  C_19
REMARK    5  A    between atoms: C_19  and  N_20
REMARK                            x       y       z     vdW  Elec       q    Type
REMARK                         _______ _______ _______ _____ _____    ______ ____
ROOT
ATOM      1  C   UNL     1       4.416   4.426  16.784  0.00  0.00    +0.000 A 
ATOM      2  C   UNL     1       3.887   3.227  17.270  0.00  0.00    +0.000 A 
ATOM      3  C   UNL     1       2.931   3.272  18.304  0.00  0.00    +0.000 A 
ATOM      4  N   UNL     1       2.495   4.469  18.806  0.00  0.00    +0.000 NA
ATOM      5  C   UNL     1       2.934   5.657  18.297  0.00  0.00    +0.000 A 
ATOM      6  C   UNL     1       3.899   5.623  17.282  0.00  0.00    +0.000 A 
ENDROOT
BRANCH   1  11
ATOM      7  C   UNL     1       6.713   5.161  15.836  0.00  0.00    +0.000 A 
ATOM      8  N   UNL     1       7.337   5.095  14.643  0.00  0.00    +0.000 NA
ATOM      9  N   UNL     1       6.572   4.395  13.820  0.00  0.00    +0.000 N 
ATOM     10  C   UNL     1       5.445   4.003  14.454  0.00  0.00    +0.000 A 
ATOM     11  C   UNL     1       5.482   4.504  15.740  0.00  0.00    +0.000 A 
ATOM     12  H   UNL     1       6.815   4.189  12.826  0.00  0.00    +0.000 HD
BRANCH   7  16
ATOM     13  C   UNL     1       8.344   6.814  19.420  0.00  0.00    +0.000 A 
ATOM     14  C   UNL     1       8.090   7.660  18.340  0.00  0.00    +0.000 A 
ATOM     15  C   UNL     1       7.580   7.145  17.142  0.00  0.00    +0.000 A 
ATOM     16  C   UNL     1       7.304   5.773  17.054  0.00  0.00    +0.000 A 
ATOM     17  N   UNL     1       7.586   4.975  18.122  0.00  0.00    +0.000 NA
ATOM     18  C   UNL     1       8.098   5.453  19.285  0.00  0.00    +0.000 A 
ENDBRANCH   7  16
ENDBRANCH   1  11
BRANCH   5  19
ATOM     19  C   UNL     1       2.389   6.986  18.750  0.00  0.00    +0.000 A 
ATOM     20  C   UNL     1       1.942   7.250  20.066  0.00  0.00    +0.000 A 
ATOM     21  C   UNL     1       1.411   8.525  20.400  0.00  0.00    +0.000 A 
ATOM     22  C   UNL     1       1.313   9.540  19.419  0.00  0.00    +0.000 A 
ATOM     23  C   UNL     1       1.764   9.261  18.129  0.00  0.00    +0.000 A 
ATOM     24  C   UNL     1       2.287   8.024  17.805  0.00  0.00    +0.000 A 
BRANCH  22  25
ATOM     25  C   UNL     1       0.666  10.901  19.645  0.00  0.00    +0.000 C 
BRANCH  25  26
ATOM     26  N   UNL     1      -0.576  10.925  20.455  0.00  0.00    +0.000 NA
ATOM     27  C   UNL     1      -1.648  11.683  19.760  0.00  0.00    +0.000 C 
ATOM     28  C   UNL     1      -1.492  13.209  19.950  0.00  0.00    +0.000 C 
ATOM     29  O   UNL     1      -1.480  13.541  21.323  0.00  0.00    +0.000 OA
ATOM     30  C   UNL     1      -0.367  12.928  21.945  0.00  0.00    +0.000 C 
ATOM     31  C   UNL     1      -0.462  11.396  21.850  0.00  0.00    +0.000 C 
ENDBRANCH  25  26
ENDBRANCH  22  25
ENDBRANCH   5  19
TORSDOF 5
ENDMDL
MODEL 8
REMARK VINA RESULT:      -8.7      2.429      4.638
REMARK  Name = 
REMARK  5 active torsions:
REMARK  status: ('A' for Active; 'I' for Inactive)
REMARK    1  A    between atoms: C_4  and  C_5
REMARK    2  A    between atoms: C_9  and  C_10
REMARK    3  A    between atoms: C_14  and  C_15
REMARK    4  A    between atoms: C_18  and  C_19
REMARK    5  A    between atoms: C_19  and  N_20
REMARK                            x       y       z     vdW  Elec       q    Type
REMARK                         _______ _______ _______ _____ _____    ______ ____
ROOT
ATOM      1  C   UNL     1       2.876   6.165  19.260  0.00  0.00    +0.000 A 
ATOM      2  C   UNL     1       3.461   6.635  18.080  0.00  0.00    +0.000 A 
ATOM      3  C   UNL     1       3.110   7.915  17.607  0.00  0.00    +0.000 A 
ATOM      4  N   UNL     1       2.239   8.709  18.306  0.00  0.00    +0.000 NA
ATOM      5  C   UNL     1       1.715   8.309  19.501  0.00  0.00    +0.000 A 
ATOM      6  C   UNL     1       2.042   7.030  19.970  0.00  0.00    +0.000 A 
ENDROOT
BRANCH   1  11
ATOM      7  C   UNL     1       4.024   3.845  19.361  0.00  0.00    +0.000 A 
ATOM      8  N   UNL     1       3.856   2.708  20.064  0.00  0.00    +0.000 NA
ATOM      9  N   UNL     1       2.911   2.923  20.967  0.00  0.00    +0.000 N 
ATOM     10  C   UNL     1       2.449   4.188  20.864  0.00  0.00    +0.000 A 
ATOM     11  C   UNL     1       3.115   4.803  19.823  0.00  0.00    +0.000 A 
ATOM     12  H   UNL     1       2.578   2.206  21.649  0.00  0.00    +0.000 HD
BRANCH   7  16
ATOM     13  C   UNL     1       7.095   4.509  16.468  0.00  0.00    +0.000 A 
ATOM     14  C   UNL     1       5.856   4.033  16.040  0.00  0.00    +0.000 A 
ATOM     15  C   UNL     1       4.836   3.780  16.967  0.00  0.00    +0.000 A 
ATOM     16  C   UNL     1       5.073   4.038  18.325  0.00  0.00    +0.000 A 
ATOM     17  N   UNL     1       6.303   4.481  18.707  0.00  0.00    +0.000 NA
ATOM     18  C   UNL     1       7.309   4.714  17.826  0.00  0.00    +0.000 A 
ENDBRANCH   7  16
ENDBRANCH   1  11
BRANCH   5  19
ATOM     19  C   UNL     1       0.846   9.203  20.346  0.00  0.00    +0.000 A 
ATOM     20  C   UNL     1       0.234  10.388  19.874  0.00  0.00    +0.000 A 
ATOM     21  C   UNL     1      -0.546  11.190  20.749  0.00  0.00    +0.000 A 
ATOM     22  C   UNL     1      -0.709  10.821  22.105  0.00  0.00    +0.000 A 
ATOM     23  C   UNL     1      -0.102   9.647  22.550  0.00  0.00    +0.000 A 
ATOM     24  C   UNL     1       0.650   8.861  21.698  0.00  0.00    +0.000 A 
BRANCH  22  25
ATOM     25  C   UNL     1      -1.434  11.662  23.148  0.00  0.00    +0.000 C 
BRANCH  25  26
ATOM     26  N   UNL     1      -2.362  12.702  22.642  0.00  0.00    +0.000 NA
ATOM     27  C   UNL     1      -1.831  14.063  22.912  0.00  0.00    +0.000 C 
ATOM     28  C   UNL     1      -2.112  14.515  24.362  0.00  0.00    +0.000 C 
ATOM     29  O   UNL     1      -3.498  14.476  24.636  0.00  0.00    +0.000 OA
ATOM     30  C   UNL     1      -3.962  13.145  24.517  0.00  0.00    +0.000 C 
ATOM     31  C   UNL     1      -3.769  12.624  23.083  0.00  0.00    +0.000 C 
ENDBRANCH  25  26
ENDBRANCH  22  25
ENDBRANCH   5  19
TORSDOF 5
ENDMDL
MODEL 9
REMARK VINA RESULT:      -8.5      3.114      9.652
REMARK  Name = 
REMARK  5 active torsions:
REMARK  status: ('A' for Active; 'I' for Inactive)
REMARK    1  A    between atoms: C_4  and  C_5
REMARK    2  A    between atoms: C_9  and  C_10
REMARK    3  A    between atoms: C_14  and  C_15
REMARK    4  A    between atoms: C_18  and  C_19
REMARK    5  A    between atoms: C_19  and  N_20
REMARK                            x       y       z     vdW  Elec       q    Type
REMARK                         _______ _______ _______ _____ _____    ______ ____
ROOT
ATOM      1  C   UNL     1       0.139  11.174  20.933  0.00  0.00    +0.000 A 
ATOM      2  C   UNL     1      -0.448  10.810  22.149  0.00  0.00    +0.000 A 
ATOM      3  C   UNL     1      -0.396   9.463  22.555  0.00  0.00    +0.000 A 
ATOM      4  N   UNL     1       0.249   8.524  21.795  0.00  0.00    +0.000 NA
ATOM      5  C   UNL     1       0.900   8.864  20.645  0.00  0.00    +0.000 A 
ATOM      6  C   UNL     1       0.837  10.198  20.221  0.00  0.00    +0.000 A 
ENDROOT
BRANCH   1  11
ATOM      7  C   UNL     1      -0.742  13.017  19.339  0.00  0.00    +0.000 A 
ATOM      8  N   UNL     1      -0.400  14.286  19.039  0.00  0.00    +0.000 NA
ATOM      9  N   UNL     1       0.577  14.649  19.854  0.00  0.00    +0.000 N 
ATOM     10  C   UNL     1       0.891  13.632  20.686  0.00  0.00    +0.000 A 
ATOM     11  C   UNL     1       0.089  12.555  20.364  0.00  0.00    +0.000 A 
ATOM     12  H   UNL     1       1.035  15.588  19.840  0.00  0.00    +0.000 HD
BRANCH   7  16
ATOM     13  C   UNL     1      -3.944  10.953  17.410  0.00  0.00    +0.000 A 
ATOM     14  C   UNL     1      -4.185  11.582  18.630  0.00  0.00    +0.000 A 
ATOM     15  C   UNL     1      -3.150  12.246  19.301  0.00  0.00    +0.000 A 
ATOM     16  C   UNL     1      -1.876  12.289  18.714  0.00  0.00    +0.000 A 
ATOM     17  N   UNL     1      -1.674  11.643  17.531  0.00  0.00    +0.000 NA
ATOM     18  C   UNL     1      -2.660  10.979  16.876  0.00  0.00    +0.000 A 
ENDBRANCH   7  16
ENDBRANCH   1  11
BRANCH   5  19
ATOM     19  C   UNL     1       1.712   7.877  19.849  0.00  0.00    +0.000 A 
ATOM     20  C   UNL     1       2.007   6.562  20.282  0.00  0.00    +0.000 A 
ATOM     21  C   UNL     1       2.809   5.706  19.481  0.00  0.00    +0.000 A 
ATOM     22  C   UNL     1       3.333   6.162  18.249  0.00  0.00    +0.000 A 
ATOM     23  C   UNL     1       3.027   7.458  17.836  0.00  0.00    +0.000 A 
ATOM     24  C   UNL     1       2.240   8.289  18.611  0.00  0.00    +0.000 A 
BRANCH  22  25
ATOM     25  C   UNL     1       4.286   5.364  17.367  0.00  0.00    +0.000 C 
BRANCH  25  26
ATOM     26  N   UNL     1       5.457   6.089  16.819  0.00  0.00    +0.000 NA
ATOM     27  C   UNL     1       5.812   5.582  15.469  0.00  0.00    +0.000 C 
ATOM     28  C   UNL     1       6.649   4.284  15.542  0.00  0.00    +0.000 C 
ATOM     29  O   UNL     1       7.821   4.490  16.303  0.00  0.00    +0.000 OA
ATOM     30  C   UNL     1       7.467   4.832  17.630  0.00  0.00    +0.000 C 
ATOM     31  C   UNL     1       6.669   6.147  17.661  0.00  0.00    +0.000 C 
ENDBRANCH  25  26
ENDBRANCH  22  25
ENDBRANCH   5  19
TORSDOF 5
ENDMDL
