MODEL 1
REMARK VINA RESULT:      -8.9      0.000      0.000
REMARK  Name = 
REMARK  11 active torsions:
REMARK  status: ('A' for Active; 'I' for Inactive)
REMARK    1  A    between atoms: C_2  and  C_3
REMARK    2  A    between atoms: C_4  and  C_5
REMARK    3  A    between atoms: C_8  and  O_9
REMARK    4  A    between atoms: O_9  and  C_10
REMARK    5  A    between atoms: C_10  and  C_11
REMARK    6  A    between atoms: C_11  and  C_12
REMARK    7  A    between atoms: C_11  and  N_22
REMARK    8  A    between atoms: C_12  and  C_13
REMARK    9  A    between atoms: N_22  and  C_23
REMARK   10  A    between atoms: C_23  and  C_24
REMARK   11  A    between atoms: N_32  and  O_33
REMARK                            x       y       z     vdW  Elec       q    Type
REMARK                         _______ _______ _______ _____ _____    ______ ____
ROOT
ATOM      1  C   UNL     1       5.470   4.354  18.607  0.00  0.00    +0.000 C 
ENDROOT
BRANCH   1   2
ATOM      2  N   UNL     1       5.308   3.186  19.496  0.00  0.00    +0.000 NA
ATOM      3  H   UNL     1       4.962   3.497  20.405  0.00  0.00    +0.000 HD
BRANCH   2   4
ATOM      4  C   UNL     1       4.424   2.129  19.002  0.00  0.00    +0.000 C 
BRANCH   4   5
ATOM      5  C   UNL     1       2.989   2.423  19.398  0.00  0.00    +0.000 A 
ATOM      6  C   UNL     1       1.946   2.382  18.456  0.00  0.00    +0.000 A 
ATOM      7  C   UNL     1       0.636   2.703  18.825  0.00  0.00    +0.000 A 
ATOM      8  C   UNL     1       0.345   3.065  20.138  0.00  0.00    +0.000 A 
ATOM      9  C   UNL     1       1.362   3.096  21.090  0.00  0.00    +0.000 A 
ATOM     10  C   UNL     1       2.672   2.776  20.724  0.00  0.00    +0.000 A 
ENDBRANCH   4   5
ENDBRANCH   2   4
ENDBRANCH   1   2
BRANCH   1  11
ATOM     11  C   UNL     1       4.702   5.548  19.228  0.00  0.00    +0.000 C 
BRANCH  11  12
ATOM     12  O   UNL     1       3.324   5.565  18.821  0.00  0.00    +0.000 OA
BRANCH  12  16
ATOM     13  C   UNL     1       1.423   9.315  18.943  0.00  0.00    +0.000 A 
ATOM     14  C   UNL     1       1.430   8.441  20.035  0.00  0.00    +0.000 A 
ATOM     15  C   UNL     1       2.085   7.200  19.961  0.00  0.00    +0.000 A 
ATOM     16  C   UNL     1       2.723   6.797  18.788  0.00  0.00    +0.000 A 
ATOM     17  C   UNL     1       2.732   7.668  17.701  0.00  0.00    +0.000 A 
ATOM     18  C   UNL     1       2.080   8.912  17.776  0.00  0.00    +0.000 A 
BRANCH  13  20
ATOM     19  C   UNL     1      -0.328  10.810  19.894  0.00  0.00    +0.000 C 
ATOM     20  C   UNL     1       0.696  10.594  19.064  0.00  0.00    +0.000 C 
BRANCH  19  22
ATOM     21  O   UNL     1      -0.628  13.102  19.329  0.00  0.00    +0.000 OA
ATOM     22  C   UNL     1      -1.016  12.127  19.970  0.00  0.00    +0.000 C 
ATOM     23  N   UNL     1      -2.084  12.153  20.787  0.00  0.00    +0.000 N 
ATOM     24  H   UNL     1      -2.458  11.372  21.322  0.00  0.00    +0.000 HD
BRANCH  23  25
ATOM     25  O   UNL     1      -2.806  13.372  20.885  0.00  0.00    +0.000 OA
ATOM     26  H   UNL     1      -3.491  13.148  21.552  0.00  0.00    +0.000 HD
ENDBRANCH  23  25
ENDBRANCH  19  22
ENDBRANCH  13  20
ENDBRANCH  12  16
ENDBRANCH  11  12
ENDBRANCH   1  11
BRANCH   1  27
ATOM     27  C   UNL     1       5.096   4.154  17.122  0.00  0.00    +0.000 C 
BRANCH  27  28
ATOM     28  C   UNL     1       6.109   4.399  16.031  0.00  0.00    +0.000 A 
ATOM     29  C   UNL     1       7.366   4.923  16.279  0.00  0.00    +0.000 A 
ATOM     30  N   UNL     1       7.632   5.671  15.167  0.00  0.00    +0.000 N 
ATOM     31  C   UNL     1       7.182   4.952  14.094  0.00  0.00    +0.000 A 
ATOM     32  C   UNL     1       7.606   4.977  12.763  0.00  0.00    +0.000 A 
ATOM     33  C   UNL     1       6.945   4.131  11.886  0.00  0.00    +0.000 A 
ATOM     34  C   UNL     1       5.823   3.405  12.312  0.00  0.00    +0.000 A 
ATOM     35  C   UNL     1       5.362   3.474  13.648  0.00  0.00    +0.000 A 
ATOM     36  C   UNL     1       6.110   4.198  14.595  0.00  0.00    +0.000 A 
ATOM     37  H   UNL     1       7.705   6.680  15.162  0.00  0.00    +0.000 HD
ENDBRANCH  27  28
ENDBRANCH   1  27
TORSDOF 11
ENDMDL
MODEL 2
REMARK VINA RESULT:      -8.7      1.129      1.576
REMARK  Name = 
REMARK  11 active torsions:
REMARK  status: ('A' for Active; 'I' for Inactive)
REMARK    1  A    between atoms: C_2  and  C_3
REMARK    2  A    between atoms: C_4  and  C_5
REMARK    3  A    between atoms: C_8  and  O_9
REMARK    4  A    between atoms: O_9  and  C_10
REMARK    5  A    between atoms: C_10  and  C_11
REMARK    6  A    between atoms: C_11  and  C_12
REMARK    7  A    between atoms: C_11  and  N_22
REMARK    8  A    between atoms: C_12  and  C_13
REMARK    9  A    between atoms: N_22  and  C_23
REMARK   10  A    between atoms: C_23  and  C_24
REMARK   11  A    between atoms: N_32  and  O_33
REMARK                            x       y       z     vdW  Elec       q    Type
REMARK                         _______ _______ _______ _____ _____    ______ ____
ROOT
ATOM      1  C   UNL     1       5.021   5.885  17.772  0.00  0.00    +0.000 C 
ENDROOT
BRANCH   1   2
ATOM      2  N   UNL     1       5.025   5.214  19.088  0.00  0.00    +0.000 NA
ATOM      3  H   UNL     1       4.334   5.657  19.696  0.00  0.00    +0.000 HD
BRANCH   2   4
ATOM      4  C   UNL     1       4.767   3.773  19.068  0.00  0.00    +0.000 C 
BRANCH   4   5
ATOM      5  C   UNL     1       3.310   3.501  19.396  0.00  0.00    +0.000 A 
ATOM      6  C   UNL     1       2.718   4.003  20.568  0.00  0.00    +0.000 A 
ATOM      7  C   UNL     1       1.388   3.703  20.881  0.00  0.00    +0.000 A 
ATOM      8  C   UNL     1       0.629   2.904  20.031  0.00  0.00    +0.000 A 
ATOM      9  C   UNL     1       1.194   2.409  18.856  0.00  0.00    +0.000 A 
ATOM     10  C   UNL     1       2.522   2.707  18.541  0.00  0.00    +0.000 A 
ENDBRANCH   4   5
ENDBRANCH   2   4
ENDBRANCH   1   2
BRANCH   1  11
ATOM     11  C   UNL     1       4.000   7.050  17.824  0.00  0.00    +0.000 C 
BRANCH  11  12
ATOM     12  O   UNL     1       2.936   6.784  18.752  0.00  0.00    +0.000 OA
BRANCH  12  16
ATOM     13  C   UNL     1       0.407   9.963  19.845  0.00  0.00    +0.000 A 
ATOM     14  C   UNL     1       0.856   9.010  20.765  0.00  0.00    +0.000 A 
ATOM     15  C   UNL     1       1.709   7.967  20.366  0.00  0.00    +0.000 A 
ATOM     16  C   UNL     1       2.110   7.842  19.036  0.00  0.00    +0.000 A 
ATOM     17  C   UNL     1       1.678   8.795  18.116  0.00  0.00    +0.000 A 
ATOM     18  C   UNL     1       0.828   9.841  18.517  0.00  0.00    +0.000 A 
BRANCH  13  20
ATOM     19  C   UNL     1      -1.204  11.833  19.511  0.00  0.00    +0.000 C 
ATOM     20  C   UNL     1      -0.510  11.021  20.312  0.00  0.00    +0.000 C 
BRANCH  19  22
ATOM     21  O   UNL     1      -3.084  12.598  20.753  0.00  0.00    +0.000 OA
ATOM     22  C   UNL     1      -2.117  12.878  20.047  0.00  0.00    +0.000 C 
ATOM     23  N   UNL     1      -1.793  14.136  19.699  0.00  0.00    +0.000 N 
ATOM     24  H   UNL     1      -0.995  14.423  19.137  0.00  0.00    +0.000 HD
BRANCH  23  25
ATOM     25  O   UNL     1      -2.606  15.187  20.201  0.00  0.00    +0.000 OA
ATOM     26  H   UNL     1      -3.372  14.694  20.565  0.00  0.00    +0.000 HD
ENDBRANCH  23  25
ENDBRANCH  19  22
ENDBRANCH  13  20
ENDBRANCH  12  16
ENDBRANCH  11  12
ENDBRANCH   1  11
BRANCH   1  27
ATOM     27  C   UNL     1       4.792   4.989  16.535  0.00  0.00    +0.000 C 
BRANCH  27  28
ATOM     28  C   UNL     1       5.882   4.794  15.511  0.00  0.00    +0.000 A 
ATOM     29  C   UNL     1       7.212   5.077  15.768  0.00  0.00    +0.000 A 
ATOM     30  N   UNL     1       7.689   5.519  14.566  0.00  0.00    +0.000 N 
ATOM     31  C   UNL     1       7.138   4.715  13.606  0.00  0.00    +0.000 A 
ATOM     32  C   UNL     1       7.615   4.388  12.335  0.00  0.00    +0.000 A 
ATOM     33  C   UNL     1       6.821   3.546  11.572  0.00  0.00    +0.000 A 
ATOM     34  C   UNL     1       5.547   3.173  12.023  0.00  0.00    +0.000 A 
ATOM     35  C   UNL     1       5.054   3.598  13.279  0.00  0.00    +0.000 A 
ATOM     36  C   UNL     1       5.902   4.319  14.140  0.00  0.00    +0.000 A 
ATOM     37  H   UNL     1       7.987   6.468  14.384  0.00  0.00    +0.000 HD
ENDBRANCH  27  28
ENDBRANCH   1  27
TORSDOF 11
ENDMDL
MODEL 3
REMARK VINA RESULT:      -8.7      0.733      1.388
REMARK  Name = 
REMARK  11 active torsions:
REMARK  status: ('A' for Active; 'I' for Inactive)
REMARK    1  A    between atoms: C_2  and  C_3
REMARK    2  A    between atoms: C_4  and  C_5
REMARK    3  A    between atoms: C_8  and  O_9
REMARK    4  A    between atoms: O_9  and  C_10
REMARK    5  A    between atoms: C_10  and  C_11
REMARK    6  A    between atoms: C_11  and  C_12
REMARK    7  A    between atoms: C_11  and  N_22
REMARK    8  A    between atoms: C_12  and  C_13
REMARK    9  A    between atoms: N_22  and  C_23
REMARK   10  A    between atoms: C_23  and  C_24
REMARK   11  A    between atoms: N_32  and  O_33
REMARK                            x       y       z     vdW  Elec       q    Type
REMARK                         _______ _______ _______ _____ _____    ______ ____
ROOT
ATOM      1  C   UNL     1       5.177   5.075  18.304  0.00  0.00    +0.000 C 
ENDROOT
BRANCH   1   2
ATOM      2  N   UNL     1       5.428   3.772  18.952  0.00  0.00    +0.000 NA
ATOM      3  H   UNL     1       5.410   3.889  19.967  0.00  0.00    +0.000 HD
BRANCH   2   4
ATOM      4  C   UNL     1       4.502   2.695  18.595  0.00  0.00    +0.000 C 
BRANCH   4   5
ATOM      5  C   UNL     1       3.246   2.785  19.444  0.00  0.00    +0.000 A 
ATOM      6  C   UNL     1       3.305   2.717  20.846  0.00  0.00    +0.000 A 
ATOM      7  C   UNL     1       2.136   2.752  21.613  0.00  0.00    +0.000 A 
ATOM      8  C   UNL     1       0.893   2.861  20.994  0.00  0.00    +0.000 A 
ATOM      9  C   UNL     1       0.816   2.947  19.605  0.00  0.00    +0.000 A 
ATOM     10  C   UNL     1       1.983   2.912  18.836  0.00  0.00    +0.000 A 
ENDBRANCH   4   5
ENDBRANCH   2   4
ENDBRANCH   1   2
BRANCH   1  11
ATOM     11  C   UNL     1       4.093   5.823  19.121  0.00  0.00    +0.000 C 
BRANCH  11  12
ATOM     12  O   UNL     1       3.005   6.260  18.289  0.00  0.00    +0.000 OA
BRANCH  12  16
ATOM     13  C   UNL     1       1.060   9.848  19.309  0.00  0.00    +0.000 A 
ATOM     14  C   UNL     1       1.572   9.608  18.029  0.00  0.00    +0.000 A 
ATOM     15  C   UNL     1       2.207   8.393  17.722  0.00  0.00    +0.000 A 
ATOM     16  C   UNL     1       2.364   7.404  18.692  0.00  0.00    +0.000 A 
ATOM     17  C   UNL     1       1.845   7.629  19.965  0.00  0.00    +0.000 A 
ATOM     18  C   UNL     1       1.206   8.844  20.271  0.00  0.00    +0.000 A 
BRANCH  13  20
ATOM     19  C   UNL     1      -0.886  11.347  19.721  0.00  0.00    +0.000 C 
ATOM     20  C   UNL     1       0.428  11.152  19.586  0.00  0.00    +0.000 C 
BRANCH  19  22
ATOM     21  O   UNL     1      -0.758  13.633  20.369  0.00  0.00    +0.000 OA
ATOM     22  C   UNL     1      -1.459  12.691  20.004  0.00  0.00    +0.000 C 
ATOM     23  N   UNL     1      -2.788  12.780  19.826  0.00  0.00    +0.000 N 
ATOM     24  H   UNL     1      -3.409  12.040  19.507  0.00  0.00    +0.000 HD
BRANCH  23  25
ATOM     25  O   UNL     1      -3.397  14.044  20.051  0.00  0.00    +0.000 OA
ATOM     26  H   UNL     1      -2.882  14.627  19.452  0.00  0.00    +0.000 HD
ENDBRANCH  23  25
ENDBRANCH  19  22
ENDBRANCH  13  20
ENDBRANCH  12  16
ENDBRANCH  11  12
ENDBRANCH   1  11
BRANCH   1  27
ATOM     27  C   UNL     1       4.830   5.048  16.799  0.00  0.00    +0.000 C 
BRANCH  27  28
ATOM     28  C   UNL     1       5.909   4.862  15.762  0.00  0.00    +0.000 A 
ATOM     29  C   UNL     1       7.244   5.122  16.014  0.00  0.00    +0.000 A 
ATOM     30  N   UNL     1       7.718   5.584  14.819  0.00  0.00    +0.000 N 
ATOM     31  C   UNL     1       7.149   4.810  13.846  0.00  0.00    +0.000 A 
ATOM     32  C   UNL     1       7.612   4.505  12.564  0.00  0.00    +0.000 A 
ATOM     33  C   UNL     1       6.801   3.691  11.789  0.00  0.00    +0.000 A 
ATOM     34  C   UNL     1       5.526   3.325  12.241  0.00  0.00    +0.000 A 
ATOM     35  C   UNL     1       5.048   3.728  13.510  0.00  0.00    +0.000 A 
ATOM     36  C   UNL     1       5.912   4.418  14.381  0.00  0.00    +0.000 A 
ATOM     37  H   UNL     1       8.027   6.533  14.656  0.00  0.00    +0.000 HD
ENDBRANCH  27  28
ENDBRANCH   1  27
TORSDOF 11
ENDMDL
MODEL 4
REMARK VINA RESULT:      -8.7      1.224      1.701
REMARK  Name = 
REMARK  11 active torsions:
REMARK  status: ('A' for Active; 'I' for Inactive)
REMARK    1  A    between atoms: C_2  and  C_3
REMARK    2  A    between atoms: C_4  and  C_5
REMARK    3  A    between atoms: C_8  and  O_9
REMARK    4  A    between atoms: O_9  and  C_10
REMARK    5  A    between atoms: C_10  and  C_11
REMARK    6  A    between atoms: C_11  and  C_12
REMARK    7  A    between atoms: C_11  and  N_22
REMARK    8  A    between atoms: C_12  and  C_13
REMARK    9  A    between atoms: N_22  and  C_23
REMARK   10  A    between atoms: C_23  and  C_24
REMARK   11  A    between atoms: N_32  and  O_33
REMARK                            x       y       z     vdW  Elec       q    Type
REMARK                         _______ _______ _______ _____ _____    ______ ____
ROOT
ATOM      1  C   UNL     1       5.661   4.702  18.197  0.00  0.00    +0.000 C 
ENDROOT
BRANCH   1   2
ATOM      2  N   UNL     1       5.416   3.608  19.159  0.00  0.00    +0.000 NA
ATOM      3  H   UNL     1       5.094   4.002  20.045  0.00  0.00    +0.000 HD
BRANCH   2   4
ATOM      4  C   UNL     1       4.456   2.588  18.732  0.00  0.00    +0.000 C 
BRANCH   4   5
ATOM      5  C   UNL     1       3.135   2.782  19.453  0.00  0.00    +0.000 A 
ATOM      6  C   UNL     1       3.047   2.704  20.854  0.00  0.00    +0.000 A 
ATOM      7  C   UNL     1       1.814   2.836  21.501  0.00  0.00    +0.000 A 
ATOM      8  C   UNL     1       0.653   3.053  20.763  0.00  0.00    +0.000 A 
ATOM      9  C   UNL     1       0.722   3.148  19.374  0.00  0.00    +0.000 A 
ATOM     10  C   UNL     1       1.953   3.017  18.725  0.00  0.00    +0.000 A 
ENDBRANCH   4   5
ENDBRANCH   2   4
ENDBRANCH   1   2
BRANCH   1  11
ATOM     11  C   UNL     1       5.122   6.019  18.811  0.00  0.00    +0.000 C 
BRANCH  11  12
ATOM     12  O   UNL     1       3.853   5.825  19.457  0.00  0.00    +0.000 OA
BRANCH  12  16
ATOM     13  C   UNL     1       1.136   8.967  18.790  0.00  0.00    +0.000 A 
ATOM     14  C   UNL     1       2.027   8.523  17.807  0.00  0.00    +0.000 A 
ATOM     15  C   UNL     1       2.914   7.463  18.063  0.00  0.00    +0.000 A 
ATOM     16  C   UNL     1       2.945   6.843  19.311  0.00  0.00    +0.000 A 
ATOM     17  C   UNL     1       2.051   7.270  20.291  0.00  0.00    +0.000 A 
ATOM     18  C   UNL     1       1.161   8.328  20.034  0.00  0.00    +0.000 A 
BRANCH  13  20
ATOM     19  C   UNL     1      -1.087  10.063  18.540  0.00  0.00    +0.000 C 
ATOM     20  C   UNL     1       0.247  10.102  18.478  0.00  0.00    +0.000 C 
BRANCH  19  22
ATOM     21  O   UNL     1      -1.672  12.366  18.658  0.00  0.00    +0.000 OA
ATOM     22  C   UNL     1      -1.927  11.247  18.216  0.00  0.00    +0.000 C 
ATOM     23  N   UNL     1      -2.970  10.988  17.408  0.00  0.00    +0.000 N 
ATOM     24  H   UNL     1      -3.212  10.089  17.000  0.00  0.00    +0.000 HD
BRANCH  23  25
ATOM     25  O   UNL     1      -3.797  12.080  17.034  0.00  0.00    +0.000 OA
ATOM     26  H   UNL     1      -3.970  11.888  16.087  0.00  0.00    +0.000 HD
ENDBRANCH  23  25
ENDBRANCH  19  22
ENDBRANCH  13  20
ENDBRANCH  12  16
ENDBRANCH  11  12
ENDBRANCH   1  11
BRANCH   1  27
ATOM     27  C   UNL     1       5.135   4.493  16.760  0.00  0.00    +0.000 C 
BRANCH  27  28
ATOM     28  C   UNL     1       6.082   4.481  15.586  0.00  0.00    +0.000 A 
ATOM     29  C   UNL     1       7.413   4.843  15.692  0.00  0.00    +0.000 A 
ATOM     30  N   UNL     1       7.689   5.429  14.490  0.00  0.00    +0.000 N 
ATOM     31  C   UNL     1       7.063   4.677  13.534  0.00  0.00    +0.000 A 
ATOM     32  C   UNL     1       7.379   4.508  12.184  0.00  0.00    +0.000 A 
ATOM     33  C   UNL     1       6.544   3.680  11.451  0.00  0.00    +0.000 A 
ATOM     34  C   UNL     1       5.372   3.169  12.025  0.00  0.00    +0.000 A 
ATOM     35  C   UNL     1       5.031   3.436  13.372  0.00  0.00    +0.000 A 
ATOM     36  C   UNL     1       5.942   4.138  14.183  0.00  0.00    +0.000 A 
ATOM     37  H   UNL     1       7.896   6.412  14.368  0.00  0.00    +0.000 HD
ENDBRANCH  27  28
ENDBRANCH   1  27
TORSDOF 11
ENDMDL
MODEL 5
REMARK VINA RESULT:      -8.6      1.357      5.788
REMARK  Name = 
REMARK  11 active torsions:
REMARK  status: ('A' for Active; 'I' for Inactive)
REMARK    1  A    between atoms: C_2  and  C_3
REMARK    2  A    between atoms: C_4  and  C_5
REMARK    3  A    between atoms: C_8  and  O_9
REMARK    4  A    between atoms: O_9  and  C_10
REMARK    5  A    between atoms: C_10  and  C_11
REMARK    6  A    between atoms: C_11  and  C_12
REMARK    7  A    between atoms: C_11  and  N_22
REMARK    8  A    between atoms: C_12  and  C_13
REMARK    9  A    between atoms: N_22  and  C_23
REMARK   10  A    between atoms: C_23  and  C_24
REMARK   11  A    between atoms: N_32  and  O_33
REMARK                            x       y       z     vdW  Elec       q    Type
REMARK                         _______ _______ _______ _____ _____    ______ ____
ROOT
ATOM      1  C   UNL     1       4.822   5.998  16.519  0.00  0.00    +0.000 C 
ENDROOT
BRANCH   1   2
ATOM      2  N   UNL     1       6.283   6.129  16.347  0.00  0.00    +0.000 NA
ATOM      3  H   UNL     1       6.689   6.535  17.192  0.00  0.00    +0.000 HD
BRANCH   2   4
ATOM      4  C   UNL     1       7.000   4.890  16.040  0.00  0.00    +0.000 C 
BRANCH   4   5
ATOM      5  C   UNL     1       7.003   4.649  14.541  0.00  0.00    +0.000 A 
ATOM      6  C   UNL     1       7.792   5.428  13.676  0.00  0.00    +0.000 A 
ATOM      7  C   UNL     1       7.748   5.227  12.293  0.00  0.00    +0.000 A 
ATOM      8  C   UNL     1       6.922   4.244  11.752  0.00  0.00    +0.000 A 
ATOM      9  C   UNL     1       6.145   3.451  12.594  0.00  0.00    +0.000 A 
ATOM     10  C   UNL     1       6.187   3.650  13.977  0.00  0.00    +0.000 A 
ENDBRANCH   4   5
ENDBRANCH   2   4
ENDBRANCH   1   2
BRANCH   1  11
ATOM     11  C   UNL     1       4.369   7.008  17.604  0.00  0.00    +0.000 C 
BRANCH  11  12
ATOM     12  O   UNL     1       3.390   7.931  17.098  0.00  0.00    +0.000 OA
BRANCH  12  16
ATOM     13  C   UNL     1       0.564   9.561  19.753  0.00  0.00    +0.000 A 
ATOM     14  C   UNL     1       0.839  10.132  18.505  0.00  0.00    +0.000 A 
ATOM     15  C   UNL     1       1.783   9.553  17.640  0.00  0.00    +0.000 A 
ATOM     16  C   UNL     1       2.487   8.408  18.013  0.00  0.00    +0.000 A 
ATOM     17  C   UNL     1       2.209   7.826  19.248  0.00  0.00    +0.000 A 
ATOM     18  C   UNL     1       1.262   8.403  20.113  0.00  0.00    +0.000 A 
BRANCH  13  20
ATOM     19  C   UNL     1      -0.376  11.515  20.978  0.00  0.00    +0.000 C 
ATOM     20  C   UNL     1      -0.415  10.226  20.635  0.00  0.00    +0.000 C 
BRANCH  19  22
ATOM     21  O   UNL     1      -1.913  13.215  21.621  0.00  0.00    +0.000 OA
ATOM     22  C   UNL     1      -1.399  12.126  21.870  0.00  0.00    +0.000 C 
ATOM     23  N   UNL     1      -1.707  11.390  22.952  0.00  0.00    +0.000 N 
ATOM     24  H   UNL     1      -1.329  10.477  23.192  0.00  0.00    +0.000 HD
BRANCH  23  25
ATOM     25  O   UNL     1      -2.699  11.900  23.832  0.00  0.00    +0.000 OA
ATOM     26  H   UNL     1      -2.338  12.786  24.052  0.00  0.00    +0.000 HD
ENDBRANCH  23  25
ENDBRANCH  19  22
ENDBRANCH  13  20
ENDBRANCH  12  16
ENDBRANCH  11  12
ENDBRANCH   1  11
BRANCH   1  27
ATOM     27  C   UNL     1       4.279   4.581  16.804  0.00  0.00    +0.000 C 
BRANCH  27  28
ATOM     28  C   UNL     1       4.117   4.087  18.220  0.00  0.00    +0.000 A 
ATOM     29  C   UNL     1       5.193   3.784  19.036  0.00  0.00    +0.000 A 
ATOM     30  N   UNL     1       4.742   2.743  19.797  0.00  0.00    +0.000 N 
ATOM     31  C   UNL     1       3.448   3.035  20.132  0.00  0.00    +0.000 A 
ATOM     32  C   UNL     1       2.696   2.619  21.233  0.00  0.00    +0.000 A 
ATOM     33  C   UNL     1       1.389   3.075  21.300  0.00  0.00    +0.000 A 
ATOM     34  C   UNL     1       0.836   3.798  20.233  0.00  0.00    +0.000 A 
ATOM     35  C   UNL     1       1.599   4.124  19.088  0.00  0.00    +0.000 A 
ATOM     36  C   UNL     1       2.971   3.813  19.066  0.00  0.00    +0.000 A 
ATOM     37  H   UNL     1       5.095   1.797  19.738  0.00  0.00    +0.000 HD
ENDBRANCH  27  28
ENDBRANCH   1  27
TORSDOF 11
ENDMDL
MODEL 6
REMARK VINA RESULT:      -8.6      1.296      1.760
REMARK  Name = 
REMARK  11 active torsions:
REMARK  status: ('A' for Active; 'I' for Inactive)
REMARK    1  A    between atoms: C_2  and  C_3
REMARK    2  A    between atoms: C_4  and  C_5
REMARK    3  A    between atoms: C_8  and  O_9
REMARK    4  A    between atoms: O_9  and  C_10
REMARK    5  A    between atoms: C_10  and  C_11
REMARK    6  A    between atoms: C_11  and  C_12
REMARK    7  A    between atoms: C_11  and  N_22
REMARK    8  A    between atoms: C_12  and  C_13
REMARK    9  A    between atoms: N_22  and  C_23
REMARK   10  A    between atoms: C_23  and  C_24
REMARK   11  A    between atoms: N_32  and  O_33
REMARK                            x       y       z     vdW  Elec       q    Type
REMARK                         _______ _______ _______ _____ _____    ______ ____
ROOT
ATOM      1  C   UNL     1       4.824   5.836  17.717  0.00  0.00    +0.000 C 
ENDROOT
BRANCH   1   2
ATOM      2  N   UNL     1       4.908   5.169  19.033  0.00  0.00    +0.000 NA
ATOM      3  H   UNL     1       4.232   5.592  19.671  0.00  0.00    +0.000 HD
BRANCH   2   4
ATOM      4  C   UNL     1       4.693   3.721  19.026  0.00  0.00    +0.000 C 
BRANCH   4   5
ATOM      5  C   UNL     1       3.379   3.387  19.709  0.00  0.00    +0.000 A 
ATOM      6  C   UNL     1       2.144   3.667  19.097  0.00  0.00    +0.000 A 
ATOM      7  C   UNL     1       0.942   3.398  19.760  0.00  0.00    +0.000 A 
ATOM      8  C   UNL     1       0.952   2.842  21.036  0.00  0.00    +0.000 A 
ATOM      9  C   UNL     1       2.166   2.543  21.653  0.00  0.00    +0.000 A 
ATOM     10  C   UNL     1       3.369   2.811  20.994  0.00  0.00    +0.000 A 
ENDBRANCH   4   5
ENDBRANCH   2   4
ENDBRANCH   1   2
BRANCH   1  11
ATOM     11  C   UNL     1       3.704   6.905  17.786  0.00  0.00    +0.000 C 
BRANCH  11  12
ATOM     12  O   UNL     1       2.949   6.808  19.004  0.00  0.00    +0.000 OA
BRANCH  12  16
ATOM     13  C   UNL     1       0.509  10.167  19.685  0.00  0.00    +0.000 A 
ATOM     14  C   UNL     1       1.186   9.962  18.478  0.00  0.00    +0.000 A 
ATOM     15  C   UNL     1       1.985   8.822  18.283  0.00  0.00    +0.000 A 
ATOM     16  C   UNL     1       2.142   7.878  19.297  0.00  0.00    +0.000 A 
ATOM     17  C   UNL     1       1.460   8.067  20.497  0.00  0.00    +0.000 A 
ATOM     18  C   UNL     1       0.658   9.206  20.691  0.00  0.00    +0.000 A 
BRANCH  13  20
ATOM     19  C   UNL     1       0.015  12.579  19.314  0.00  0.00    +0.000 C 
ATOM     20  C   UNL     1      -0.292  11.395  19.848  0.00  0.00    +0.000 C 
BRANCH  19  22
ATOM     21  O   UNL     1      -1.806  13.772  20.275  0.00  0.00    +0.000 OA
ATOM     22  C   UNL     1      -0.840  13.781  19.514  0.00  0.00    +0.000 C 
ATOM     23  N   UNL     1      -0.466  14.858  18.802  0.00  0.00    +0.000 N 
ATOM     24  H   UNL     1       0.334  14.924  18.177  0.00  0.00    +0.000 HD
BRANCH  23  25
ATOM     25  O   UNL     1      -1.221  16.049  18.968  0.00  0.00    +0.000 OA
ATOM     26  H   UNL     1      -0.776  16.467  19.736  0.00  0.00    +0.000 HD
ENDBRANCH  23  25
ENDBRANCH  19  22
ENDBRANCH  13  20
ENDBRANCH  12  16
ENDBRANCH  11  12
ENDBRANCH   1  11
BRANCH   1  27
ATOM     27  C   UNL     1       4.657   4.922  16.484  0.00  0.00    +0.000 C 
BRANCH  27  28
ATOM     28  C   UNL     1       5.783   4.747  15.495  0.00  0.00    +0.000 A 
ATOM     29  C   UNL     1       7.100   5.046  15.798  0.00  0.00    +0.000 A 
ATOM     30  N   UNL     1       7.611   5.500  14.615  0.00  0.00    +0.000 N 
ATOM     31  C   UNL     1       7.103   4.694  13.634  0.00  0.00    +0.000 A 
ATOM     32  C   UNL     1       7.626   4.379  12.378  0.00  0.00    +0.000 A 
ATOM     33  C   UNL     1       6.869   3.531  11.585  0.00  0.00    +0.000 A 
ATOM     34  C   UNL     1       5.586   3.140  11.991  0.00  0.00    +0.000 A 
ATOM     35  C   UNL     1       5.046   3.552  13.232  0.00  0.00    +0.000 A 
ATOM     36  C   UNL     1       5.855   4.279  14.124  0.00  0.00    +0.000 A 
ATOM     37  H   UNL     1       7.902   6.454  14.447  0.00  0.00    +0.000 HD
ENDBRANCH  27  28
ENDBRANCH   1  27
TORSDOF 11
ENDMDL
MODEL 7
REMARK VINA RESULT:      -8.6      1.027      1.432
REMARK  Name = 
REMARK  11 active torsions:
REMARK  status: ('A' for Active; 'I' for Inactive)
REMARK    1  A    between atoms: C_2  and  C_3
REMARK    2  A    between atoms: C_4  and  C_5
REMARK    3  A    between atoms: C_8  and  O_9
REMARK    4  A    between atoms: O_9  and  C_10
REMARK    5  A    between atoms: C_10  and  C_11
REMARK    6  A    between atoms: C_11  and  C_12
REMARK    7  A    between atoms: C_11  and  N_22
REMARK    8  A    between atoms: C_12  and  C_13
REMARK    9  A    between atoms: N_22  and  C_23
REMARK   10  A    between atoms: C_23  and  C_24
REMARK   11  A    between atoms: N_32  and  O_33
REMARK                            x       y       z     vdW  Elec       q    Type
REMARK                         _______ _______ _______ _____ _____    ______ ____
ROOT
ATOM      1  C   UNL     1       5.188   5.781  17.845  0.00  0.00    +0.000 C 
ENDROOT
BRANCH   1   2
ATOM      2  N   UNL     1       4.997   5.156  19.169  0.00  0.00    +0.000 NA
ATOM      3  H   UNL     1       4.220   5.612  19.651  0.00  0.00    +0.000 HD
BRANCH   2   4
ATOM      4  C   UNL     1       4.751   3.712  19.160  0.00  0.00    +0.000 C 
BRANCH   4   5
ATOM      5  C   UNL     1       3.278   3.434  19.400  0.00  0.00    +0.000 A 
ATOM      6  C   UNL     1       2.586   2.463  18.655  0.00  0.00    +0.000 A 
ATOM      7  C   UNL     1       1.218   2.251  18.854  0.00  0.00    +0.000 A 
ATOM      8  C   UNL     1       0.521   2.999  19.800  0.00  0.00    +0.000 A 
ATOM      9  C   UNL     1       1.194   3.955  20.560  0.00  0.00    +0.000 A 
ATOM     10  C   UNL     1       2.561   4.169  20.363  0.00  0.00    +0.000 A 
ENDBRANCH   4   5
ENDBRANCH   2   4
ENDBRANCH   1   2
BRANCH   1  11
ATOM     11  C   UNL     1       4.353   7.086  17.799  0.00  0.00    +0.000 C 
BRANCH  11  12
ATOM     12  O   UNL     1       2.944   6.820  17.910  0.00  0.00    +0.000 OA
BRANCH  12  16
ATOM     13  C   UNL     1       0.679   9.705  19.969  0.00  0.00    +0.000 A 
ATOM     14  C   UNL     1       0.920   9.781  18.593  0.00  0.00    +0.000 A 
ATOM     15  C   UNL     1       1.673   8.793  17.937  0.00  0.00    +0.000 A 
ATOM     16  C   UNL     1       2.220   7.724  18.645  0.00  0.00    +0.000 A 
ATOM     17  C   UNL     1       1.974   7.634  20.013  0.00  0.00    +0.000 A 
ATOM     18  C   UNL     1       1.217   8.621  20.670  0.00  0.00    +0.000 A 
BRANCH  13  20
ATOM     19  C   UNL     1      -1.040  11.507  20.009  0.00  0.00    +0.000 C 
ATOM     20  C   UNL     1      -0.093  10.785  20.613  0.00  0.00    +0.000 C 
BRANCH  19  22
ATOM     21  O   UNL     1      -1.938  13.700  20.229  0.00  0.00    +0.000 OA
ATOM     22  C   UNL     1      -1.786  12.581  20.718  0.00  0.00    +0.000 C 
ATOM     23  N   UNL     1      -2.272  12.224  21.920  0.00  0.00    +0.000 N 
ATOM     24  H   UNL     1      -2.193  11.311  22.359  0.00  0.00    +0.000 HD
BRANCH  23  25
ATOM     25  O   UNL     1      -3.021  13.193  22.640  0.00  0.00    +0.000 OA
ATOM     26  H   UNL     1      -2.489  13.293  23.459  0.00  0.00    +0.000 HD
ENDBRANCH  23  25
ENDBRANCH  19  22
ENDBRANCH  13  20
ENDBRANCH  12  16
ENDBRANCH  11  12
ENDBRANCH   1  11
BRANCH   1  27
ATOM     27  C   UNL     1       4.917   4.894  16.610  0.00  0.00    +0.000 C 
BRANCH  27  28
ATOM     28  C   UNL     1       5.964   4.722  15.538  0.00  0.00    +0.000 A 
ATOM     29  C   UNL     1       7.304   4.997  15.748  0.00  0.00    +0.000 A 
ATOM     30  N   UNL     1       7.733   5.466  14.539  0.00  0.00    +0.000 N 
ATOM     31  C   UNL     1       7.142   4.687  13.583  0.00  0.00    +0.000 A 
ATOM     32  C   UNL     1       7.566   4.390  12.286  0.00  0.00    +0.000 A 
ATOM     33  C   UNL     1       6.740   3.568  11.536  0.00  0.00    +0.000 A 
ATOM     34  C   UNL     1       5.484   3.187  12.029  0.00  0.00    +0.000 A 
ATOM     35  C   UNL     1       5.043   3.583  13.314  0.00  0.00    +0.000 A 
ATOM     36  C   UNL     1       5.927   4.281  14.157  0.00  0.00    +0.000 A 
ATOM     37  H   UNL     1       8.027   6.419  14.368  0.00  0.00    +0.000 HD
ENDBRANCH  27  28
ENDBRANCH   1  27
TORSDOF 11
ENDMDL
MODEL 8
REMARK VINA RESULT:      -8.4      1.396      1.574
REMARK  Name = 
REMARK  11 active torsions:
REMARK  status: ('A' for Active; 'I' for Inactive)
REMARK    1  A    between atoms: C_2  and  C_3
REMARK    2  A    between atoms: C_4  and  C_5
REMARK    3  A    between atoms: C_8  and  O_9
REMARK    4  A    between atoms: O_9  and  C_10
REMARK    5  A    between atoms: C_10  and  C_11
REMARK    6  A    between atoms: C_11  and  C_12
REMARK    7  A    between atoms: C_11  and  N_22
REMARK    8  A    between atoms: C_12  and  C_13
REMARK    9  A    between atoms: N_22  and  C_23
REMARK   10  A    between atoms: C_23  and  C_24
REMARK   11  A    between atoms: N_32  and  O_33
REMARK                            x       y       z     vdW  Elec       q    Type
REMARK                         _______ _______ _______ _____ _____    ______ ____
ROOT
ATOM      1  C   UNL     1       5.279   5.484  17.618  0.00  0.00    +0.000 C 
ENDROOT
BRANCH   1   2
ATOM      2  N   UNL     1       5.074   4.501  18.701  0.00  0.00    +0.000 NA
ATOM      3  H   UNL     1       4.680   4.971  19.517  0.00  0.00    +0.000 HD
BRANCH   2   4
ATOM      4  C   UNL     1       4.221   3.359  18.368  0.00  0.00    +0.000 C 
BRANCH   4   5
ATOM      5  C   UNL     1       3.126   3.206  19.409  0.00  0.00    +0.000 A 
ATOM      6  C   UNL     1       1.799   3.579  19.135  0.00  0.00    +0.000 A 
ATOM      7  C   UNL     1       0.811   3.478  20.120  0.00  0.00    +0.000 A 
ATOM      8  C   UNL     1       1.129   3.002  21.389  0.00  0.00    +0.000 A 
ATOM      9  C   UNL     1       2.437   2.612  21.675  0.00  0.00    +0.000 A 
ATOM     10  C   UNL     1       3.426   2.712  20.693  0.00  0.00    +0.000 A 
ENDBRANCH   4   5
ENDBRANCH   2   4
ENDBRANCH   1   2
BRANCH   1  11
ATOM     11  C   UNL     1       4.581   6.807  18.026  0.00  0.00    +0.000 C 
BRANCH  11  12
ATOM     12  O   UNL     1       3.180   6.789  17.708  0.00  0.00    +0.000 OA
BRANCH  12  16
ATOM     13  C   UNL     1       0.797   9.252  20.148  0.00  0.00    +0.000 A 
ATOM     14  C   UNL     1       1.439   8.108  20.634  0.00  0.00    +0.000 A 
ATOM     15  C   UNL     1       2.236   7.315  19.791  0.00  0.00    +0.000 A 
ATOM     16  C   UNL     1       2.388   7.634  18.442  0.00  0.00    +0.000 A 
ATOM     17  C   UNL     1       1.763   8.780  17.954  0.00  0.00    +0.000 A 
ATOM     18  C   UNL     1       0.969   9.576  18.798  0.00  0.00    +0.000 A 
BRANCH  13  20
ATOM     19  C   UNL     1       0.262  11.238  21.553  0.00  0.00    +0.000 C 
ATOM     20  C   UNL     1      -0.051  10.033  21.068  0.00  0.00    +0.000 C 
BRANCH  19  22
ATOM     21  O   UNL     1      -0.319  13.049  22.983  0.00  0.00    +0.000 OA
ATOM     22  C   UNL     1      -0.642  11.975  22.476  0.00  0.00    +0.000 C 
ATOM     23  N   UNL     1      -1.823  11.374  22.701  0.00  0.00    +0.000 N 
ATOM     24  H   UNL     1      -2.147  10.501  22.292  0.00  0.00    +0.000 HD
BRANCH  23  25
ATOM     25  O   UNL     1      -2.747  12.039  23.550  0.00  0.00    +0.000 OA
ATOM     26  H   UNL     1      -2.415  11.795  24.441  0.00  0.00    +0.000 HD
ENDBRANCH  23  25
ENDBRANCH  19  22
ENDBRANCH  13  20
ENDBRANCH  12  16
ENDBRANCH  11  12
ENDBRANCH   1  11
BRANCH   1  27
ATOM     27  C   UNL     1       4.872   5.047  16.194  0.00  0.00    +0.000 C 
BRANCH  27  28
ATOM     28  C   UNL     1       5.917   4.760  15.146  0.00  0.00    +0.000 A 
ATOM     29  C   UNL     1       7.261   5.037  15.331  0.00  0.00    +0.000 A 
ATOM     30  N   UNL     1       7.697   5.384  14.084  0.00  0.00    +0.000 N 
ATOM     31  C   UNL     1       7.097   4.524  13.206  0.00  0.00    +0.000 A 
ATOM     32  C   UNL     1       7.519   4.099  11.944  0.00  0.00    +0.000 A 
ATOM     33  C   UNL     1       6.683   3.220  11.274  0.00  0.00    +0.000 A 
ATOM     34  C   UNL     1       5.422   2.903  11.798  0.00  0.00    +0.000 A 
ATOM     35  C   UNL     1       4.985   3.425  13.039  0.00  0.00    +0.000 A 
ATOM     36  C   UNL     1       5.877   4.189  13.813  0.00  0.00    +0.000 A 
ATOM     37  H   UNL     1       8.002   6.312  13.824  0.00  0.00    +0.000 HD
ENDBRANCH  27  28
ENDBRANCH   1  27
TORSDOF 11
ENDMDL
MODEL 9
REMARK VINA RESULT:      -8.4      2.930      9.174
REMARK  Name = 
REMARK  11 active torsions:
REMARK  status: ('A' for Active; 'I' for Inactive)
REMARK    1  A    between atoms: C_2  and  C_3
REMARK    2  A    between atoms: C_4  and  C_5
REMARK    3  A    between atoms: C_8  and  O_9
REMARK    4  A    between atoms: O_9  and  C_10
REMARK    5  A    between atoms: C_10  and  C_11
REMARK    6  A    between atoms: C_11  and  C_12
REMARK    7  A    between atoms: C_11  and  N_22
REMARK    8  A    between atoms: C_12  and  C_13
REMARK    9  A    between atoms: N_22  and  C_23
REMARK   10  A    between atoms: C_23  and  C_24
REMARK   11  A    between atoms: N_32  and  O_33
REMARK                            x       y       z     vdW  Elec       q    Type
REMARK                         _______ _______ _______ _____ _____    ______ ____
ROOT
ATOM      1  C   UNL     1       1.506   6.366  20.465  0.00  0.00    +0.000 C 
ENDROOT
BRANCH   1   2
ATOM      2  N   UNL     1       1.971   5.191  21.230  0.00  0.00    +0.000 NA
ATOM      3  H   UNL     1       1.881   5.380  22.230  0.00  0.00    +0.000 HD
BRANCH   2   4
ATOM      4  C   UNL     1       1.288   3.930  20.935  0.00  0.00    +0.000 C 
BRANCH   4   5
ATOM      5  C   UNL     1       2.176   3.044  20.081  0.00  0.00    +0.000 A 
ATOM      6  C   UNL     1       1.673   2.373  18.953  0.00  0.00    +0.000 A 
ATOM      7  C   UNL     1       2.491   1.522  18.203  0.00  0.00    +0.000 A 
ATOM      8  C   UNL     1       3.823   1.331  18.563  0.00  0.00    +0.000 A 
ATOM      9  C   UNL     1       4.345   2.000  19.670  0.00  0.00    +0.000 A 
ATOM     10  C   UNL     1       3.529   2.851  20.420  0.00  0.00    +0.000 A 
ENDBRANCH   4   5
ENDBRANCH   2   4
ENDBRANCH   1   2
BRANCH   1  11
ATOM     11  C   UNL     1       1.850   6.140  18.971  0.00  0.00    +0.000 C 
BRANCH  11  12
ATOM     12  O   UNL     1       3.083   6.782  18.605  0.00  0.00    +0.000 OA
BRANCH  12  16
ATOM     13  C   UNL     1       5.389   5.103  15.513  0.00  0.00    +0.000 A 
ATOM     14  C   UNL     1       5.319   6.483  15.734  0.00  0.00    +0.000 A 
ATOM     15  C   UNL     1       4.546   7.007  16.783  0.00  0.00    +0.000 A 
ATOM     16  C   UNL     1       3.810   6.166  17.618  0.00  0.00    +0.000 A 
ATOM     17  C   UNL     1       3.886   4.790  17.414  0.00  0.00    +0.000 A 
ATOM     18  C   UNL     1       4.662   4.265  16.365  0.00  0.00    +0.000 A 
BRANCH  13  20
ATOM     19  C   UNL     1       5.709   3.891  13.361  0.00  0.00    +0.000 C 
ATOM     20  C   UNL     1       6.192   4.607  14.379  0.00  0.00    +0.000 C 
BRANCH  19  22
ATOM     21  O   UNL     1       7.363   4.177  11.674  0.00  0.00    +0.000 OA
ATOM     22  C   UNL     1       6.574   3.425  12.244  0.00  0.00    +0.000 C 
ATOM     23  N   UNL     1       6.421   2.129  11.922  0.00  0.00    +0.000 N 
ATOM     24  H   UNL     1       5.800   1.461  12.373  0.00  0.00    +0.000 HD
BRANCH  23  25
ATOM     25  O   UNL     1       7.237   1.609  10.882  0.00  0.00    +0.000 OA
ATOM     26  H   UNL     1       7.216   0.646  11.070  0.00  0.00    +0.000 HD
ENDBRANCH  23  25
ENDBRANCH  19  22
ENDBRANCH  13  20
ENDBRANCH  12  16
ENDBRANCH  11  12
ENDBRANCH   1  11
BRANCH   1  27
ATOM     27  C   UNL     1       1.990   7.749  20.952  0.00  0.00    +0.000 C 
BRANCH  27  28
ATOM     28  C   UNL     1       1.155   8.984  20.723  0.00  0.00    +0.000 A 
ATOM     29  C   UNL     1       1.035   9.589  19.484  0.00  0.00    +0.000 A 
ATOM     30  N   UNL     1       0.926  10.919  19.780  0.00  0.00    +0.000 N 
ATOM     31  C   UNL     1       0.115  11.011  20.878  0.00  0.00    +0.000 A 
ATOM     32  C   UNL     1      -0.703  12.062  21.296  0.00  0.00    +0.000 A 
ATOM     33  C   UNL     1      -1.410  11.867  22.473  0.00  0.00    +0.000 A 
ATOM     34  C   UNL     1      -1.187  10.724  23.252  0.00  0.00    +0.000 A 
ATOM     35  C   UNL     1      -0.279   9.718  22.845  0.00  0.00    +0.000 A 
ATOM     36  C   UNL     1       0.329   9.814  21.579  0.00  0.00    +0.000 A 
ATOM     37  H   UNL     1       1.625  11.613  19.552  0.00  0.00    +0.000 HD
ENDBRANCH  27  28
ENDBRANCH   1  27
TORSDOF 11
ENDMDL
