MODEL 1
REMARK VINA RESULT:      -7.5      0.000      0.000
REMARK  Name = 
REMARK  4 active torsions:
REMARK  status: ('A' for Active; 'I' for Inactive)
REMARK    1  A    between atoms: C_1  and  C_2
REMARK    2  A    between atoms: C_5  and  C_6
REMARK    3  A    between atoms: C_10  and  C_11
REMARK    4  A    between atoms: C_13  and  C_14
REMARK                            x       y       z     vdW  Elec       q    Type
REMARK                         _______ _______ _______ _____ _____    ______ ____
ROOT
ATOM      1  C   UNL     1       3.068   5.504  17.886  0.00  0.00    +0.000 C 
ATOM      2  O   UNL     1       2.320   4.589  17.547  0.00  0.00    +0.000 OA
ATOM      3  N   UNL     1       4.373   5.592  17.378  0.00  0.00    +0.000 N 
ATOM      4  C   UNL     1       4.783   4.574  16.405  0.00  0.00    +0.000 C 
ATOM      5  C   UNL     1       5.759   5.168  15.377  0.00  0.00    +0.000 C 
ATOM      6  C   UNL     1       6.276   4.090  14.435  0.00  0.00    +0.000 C 
ATOM      7  O   UNL     1       6.889   5.767  16.038  0.00  0.00    +0.000 OA
ATOM      8  C   UNL     1       6.470   6.817  16.931  0.00  0.00    +0.000 C 
ATOM      9  C   UNL     1       7.725   7.420  17.547  0.00  0.00    +0.000 C 
ATOM     10  C   UNL     1       5.515   6.268  18.011  0.00  0.00    +0.000 C 
ENDROOT
BRANCH   1  15
ATOM     11  C   UNL     1       0.641   9.771  21.009  0.00  0.00    +0.000 C 
ATOM     12  C   UNL     1       1.281   8.677  20.208  0.00  0.00    +0.000 A 
ATOM     13  C   UNL     1       1.652   8.882  18.880  0.00  0.00    +0.000 A 
ATOM     14  C   UNL     1       2.229   7.843  18.138  0.00  0.00    +0.000 A 
ATOM     15  C   UNL     1       2.506   6.598  18.728  0.00  0.00    +0.000 A 
ATOM     16  C   UNL     1       2.106   6.386  20.058  0.00  0.00    +0.000 A 
ATOM     17 CL   UNL     1       2.348   4.900  20.914  0.00  0.00    +0.000 Cl
ATOM     18  C   UNL     1       1.497   7.423  20.786  0.00  0.00    +0.000 A 
ENDBRANCH   1  15
TORSDOF 1
ENDMDL
MODEL 2
REMARK VINA RESULT:      -7.0      1.371      1.798
REMARK  Name = 
REMARK  4 active torsions:
REMARK  status: ('A' for Active; 'I' for Inactive)
REMARK    1  A    between atoms: C_1  and  C_2
REMARK    2  A    between atoms: C_5  and  C_6
REMARK    3  A    between atoms: C_10  and  C_11
REMARK    4  A    between atoms: C_13  and  C_14
REMARK                            x       y       z     vdW  Elec       q    Type
REMARK                         _______ _______ _______ _____ _____    ______ ____
ROOT
ATOM      1  C   UNL     1       3.277   4.969  17.771  0.00  0.00    +0.000 C 
ATOM      2  O   UNL     1       2.615   4.059  17.275  0.00  0.00    +0.000 OA
ATOM      3  N   UNL     1       4.577   5.242  17.320  0.00  0.00    +0.000 N 
ATOM      4  C   UNL     1       5.088   4.426  16.214  0.00  0.00    +0.000 C 
ATOM      5  C   UNL     1       6.025   5.251  15.318  0.00  0.00    +0.000 C 
ATOM      6  C   UNL     1       6.647   4.379  14.237  0.00  0.00    +0.000 C 
ATOM      7  O   UNL     1       7.088   5.831  16.095  0.00  0.00    +0.000 OA
ATOM      8  C   UNL     1       6.567   6.691  17.126  0.00  0.00    +0.000 C 
ATOM      9  C   UNL     1       7.755   7.293  17.862  0.00  0.00    +0.000 C 
ATOM     10  C   UNL     1       5.646   5.904  18.082  0.00  0.00    +0.000 C 
ENDROOT
BRANCH   1  15
ATOM     11  C   UNL     1       0.886   8.433  21.789  0.00  0.00    +0.000 C 
ATOM     12  C   UNL     1       1.487   7.536  20.747  0.00  0.00    +0.000 A 
ATOM     13  C   UNL     1       1.607   6.164  20.963  0.00  0.00    +0.000 A 
ATOM     14  C   UNL     1       2.191   5.344  19.989  0.00  0.00    +0.000 A 
ATOM     15  C   UNL     1       2.609   5.869  18.755  0.00  0.00    +0.000 A 
ATOM     16  C   UNL     1       2.512   7.256  18.551  0.00  0.00    +0.000 A 
ATOM     17 CL   UNL     1       3.011   8.057  17.099  0.00  0.00    +0.000 Cl
ATOM     18  C   UNL     1       1.955   8.077  19.547  0.00  0.00    +0.000 A 
ENDBRANCH   1  15
TORSDOF 1
ENDMDL
MODEL 3
REMARK VINA RESULT:      -6.4      2.951      4.399
REMARK  Name = 
REMARK  4 active torsions:
REMARK  status: ('A' for Active; 'I' for Inactive)
REMARK    1  A    between atoms: C_1  and  C_2
REMARK    2  A    between atoms: C_5  and  C_6
REMARK    3  A    between atoms: C_10  and  C_11
REMARK    4  A    between atoms: C_13  and  C_14
REMARK                            x       y       z     vdW  Elec       q    Type
REMARK                         _______ _______ _______ _____ _____    ______ ____
ROOT
ATOM      1  C   UNL     1       2.112   7.937  19.238  0.00  0.00    +0.000 C 
ATOM      2  O   UNL     1       2.632   8.579  18.327  0.00  0.00    +0.000 OA
ATOM      3  N   UNL     1       2.452   6.594  19.458  0.00  0.00    +0.000 N 
ATOM      4  C   UNL     1       3.477   6.011  18.585  0.00  0.00    +0.000 C 
ATOM      5  C   UNL     1       4.314   4.974  19.349  0.00  0.00    +0.000 C 
ATOM      6  C   UNL     1       5.302   4.284  18.419  0.00  0.00    +0.000 C 
ATOM      7  O   UNL     1       3.466   3.966  19.930  0.00  0.00    +0.000 OA
ATOM      8  C   UNL     1       2.518   4.552  20.844  0.00  0.00    +0.000 C 
ATOM      9  C   UNL     1       1.700   3.416  21.442  0.00  0.00    +0.000 C 
ATOM     10  C   UNL     1       1.622   5.578  20.120  0.00  0.00    +0.000 C 
ENDROOT
BRANCH   1  15
ATOM     11  C   UNL     1      -1.118  10.910  23.057  0.00  0.00    +0.000 C 
ATOM     12  C   UNL     1      -0.296  10.131  22.074  0.00  0.00    +0.000 A 
ATOM     13  C   UNL     1       0.668   9.221  22.504  0.00  0.00    +0.000 A 
ATOM     14  C   UNL     1       1.443   8.518  21.573  0.00  0.00    +0.000 A 
ATOM     15  C   UNL     1       1.226   8.663  20.193  0.00  0.00    +0.000 A 
ATOM     16  C   UNL     1       0.273   9.601  19.761  0.00  0.00    +0.000 A 
ATOM     17 CL   UNL     1      -0.088   9.916  18.097  0.00  0.00    +0.000 Cl
ATOM     18  C   UNL     1      -0.478  10.327  20.702  0.00  0.00    +0.000 A 
ENDBRANCH   1  15
TORSDOF 1
ENDMDL
MODEL 4
REMARK VINA RESULT:      -6.3      2.598      6.203
REMARK  Name = 
REMARK  4 active torsions:
REMARK  status: ('A' for Active; 'I' for Inactive)
REMARK    1  A    between atoms: C_1  and  C_2
REMARK    2  A    between atoms: C_5  and  C_6
REMARK    3  A    between atoms: C_10  and  C_11
REMARK    4  A    between atoms: C_13  and  C_14
REMARK                            x       y       z     vdW  Elec       q    Type
REMARK                         _______ _______ _______ _____ _____    ______ ____
ROOT
ATOM      1  C   UNL     1       4.428   3.471  17.178  0.00  0.00    +0.000 C 
ATOM      2  O   UNL     1       4.385   2.278  17.474  0.00  0.00    +0.000 OA
ATOM      3  N   UNL     1       3.693   4.420  17.905  0.00  0.00    +0.000 N 
ATOM      4  C   UNL     1       2.913   3.931  19.047  0.00  0.00    +0.000 C 
ATOM      5  C   UNL     1       2.865   4.986  20.164  0.00  0.00    +0.000 C 
ATOM      6  C   UNL     1       1.963   4.530  21.301  0.00  0.00    +0.000 C 
ATOM      7  O   UNL     1       2.357   6.235  19.660  0.00  0.00    +0.000 OA
ATOM      8  C   UNL     1       3.183   6.736  18.591  0.00  0.00    +0.000 C 
ATOM      9  C   UNL     1       2.601   8.073  18.154  0.00  0.00    +0.000 C 
ATOM     10  C   UNL     1       3.236   5.730  17.422  0.00  0.00    +0.000 C 
ENDROOT
BRANCH   1  15
ATOM     11  C   UNL     1       8.013   5.349  12.997  0.00  0.00    +0.000 C 
ATOM     12  C   UNL     1       7.095   4.850  14.074  0.00  0.00    +0.000 A 
ATOM     13  C   UNL     1       5.887   4.230  13.758  0.00  0.00    +0.000 A 
ATOM     14  C   UNL     1       5.031   3.790  14.775  0.00  0.00    +0.000 A 
ATOM     15  C   UNL     1       5.394   3.902  16.128  0.00  0.00    +0.000 A 
ATOM     16  C   UNL     1       6.600   4.551  16.444  0.00  0.00    +0.000 A 
ATOM     17 CL   UNL     1       7.171   4.794  18.060  0.00  0.00    +0.000 Cl
ATOM     18  C   UNL     1       7.438   5.020  15.418  0.00  0.00    +0.000 A 
ENDBRANCH   1  15
TORSDOF 1
ENDMDL
MODEL 5
REMARK VINA RESULT:      -6.2      2.571      5.594
REMARK  Name = 
REMARK  4 active torsions:
REMARK  status: ('A' for Active; 'I' for Inactive)
REMARK    1  A    between atoms: C_1  and  C_2
REMARK    2  A    between atoms: C_5  and  C_6
REMARK    3  A    between atoms: C_10  and  C_11
REMARK    4  A    between atoms: C_13  and  C_14
REMARK                            x       y       z     vdW  Elec       q    Type
REMARK                         _______ _______ _______ _____ _____    ______ ____
ROOT
ATOM      1  C   UNL     1       4.871   4.490  17.371  0.00  0.00    +0.000 C 
ATOM      2  O   UNL     1       5.192   3.639  16.543  0.00  0.00    +0.000 OA
ATOM      3  N   UNL     1       3.692   4.357  18.119  0.00  0.00    +0.000 N 
ATOM      4  C   UNL     1       2.891   3.148  17.898  0.00  0.00    +0.000 C 
ATOM      5  C   UNL     1       2.199   2.710  19.198  0.00  0.00    +0.000 C 
ATOM      6  C   UNL     1       1.277   1.525  18.949  0.00  0.00    +0.000 C 
ATOM      7  O   UNL     1       1.412   3.785  19.741  0.00  0.00    +0.000 OA
ATOM      8  C   UNL     1       2.232   4.936  20.024  0.00  0.00    +0.000 C 
ATOM      9  C   UNL     1       1.330   6.000  20.634  0.00  0.00    +0.000 C 
ATOM     10  C   UNL     1       2.924   5.444  18.742  0.00  0.00    +0.000 C 
ENDROOT
BRANCH   1  15
ATOM     11  C   UNL     1       8.858   8.591  18.440  0.00  0.00    +0.000 C 
ATOM     12  C   UNL     1       7.821   7.540  18.176  0.00  0.00    +0.000 A 
ATOM     13  C   UNL     1       7.784   6.363  18.922  0.00  0.00    +0.000 A 
ATOM     14  C   UNL     1       6.823   5.382  18.649  0.00  0.00    +0.000 A 
ATOM     15  C   UNL     1       5.839   5.584  17.667  0.00  0.00    +0.000 A 
ATOM     16  C   UNL     1       5.895   6.759  16.897  0.00  0.00    +0.000 A 
ATOM     17 CL   UNL     1       4.776   7.140  15.633  0.00  0.00    +0.000 Cl
ATOM     18  C   UNL     1       6.884   7.725  17.156  0.00  0.00    +0.000 A 
ENDBRANCH   1  15
TORSDOF 1
ENDMDL
MODEL 6
REMARK VINA RESULT:      -6.2      2.381      6.104
REMARK  Name = 
REMARK  4 active torsions:
REMARK  status: ('A' for Active; 'I' for Inactive)
REMARK    1  A    between atoms: C_1  and  C_2
REMARK    2  A    between atoms: C_5  and  C_6
REMARK    3  A    between atoms: C_10  and  C_11
REMARK    4  A    between atoms: C_13  and  C_14
REMARK                            x       y       z     vdW  Elec       q    Type
REMARK                         _______ _______ _______ _____ _____    ______ ____
ROOT
ATOM      1  C   UNL     1       2.891   5.596  19.810  0.00  0.00    +0.000 C 
ATOM      2  O   UNL     1       2.743   4.803  20.739  0.00  0.00    +0.000 OA
ATOM      3  N   UNL     1       2.217   6.827  19.801  0.00  0.00    +0.000 N 
ATOM      4  C   UNL     1       1.369   7.135  20.958  0.00  0.00    +0.000 C 
ATOM      5  C   UNL     1       1.378   8.643  21.251  0.00  0.00    +0.000 C 
ATOM      6  C   UNL     1       0.411   8.982  22.376  0.00  0.00    +0.000 C 
ATOM      7  O   UNL     1       0.987   9.389  20.083  0.00  0.00    +0.000 OA
ATOM      8  C   UNL     1       1.879   9.131  18.981  0.00  0.00    +0.000 C 
ATOM      9  C   UNL     1       1.420   9.991  17.812  0.00  0.00    +0.000 C 
ATOM     10  C   UNL     1       1.882   7.632  18.618  0.00  0.00    +0.000 C 
ENDROOT
BRANCH   1  15
ATOM     11  C   UNL     1       7.033   4.224  15.961  0.00  0.00    +0.000 C 
ATOM     12  C   UNL     1       5.962   4.592  16.946  0.00  0.00    +0.000 A 
ATOM     13  C   UNL     1       6.248   5.389  18.053  0.00  0.00    +0.000 A 
ATOM     14  C   UNL     1       5.242   5.705  18.975  0.00  0.00    +0.000 A 
ATOM     15  C   UNL     1       3.917   5.284  18.775  0.00  0.00    +0.000 A 
ATOM     16  C   UNL     1       3.637   4.459  17.673  0.00  0.00    +0.000 A 
ATOM     17 CL   UNL     1       2.064   3.835  17.307  0.00  0.00    +0.000 Cl
ATOM     18  C   UNL     1       4.659   4.118  16.769  0.00  0.00    +0.000 A 
ENDBRANCH   1  15
TORSDOF 1
ENDMDL
MODEL 7
REMARK VINA RESULT:      -6.1      2.448      5.368
REMARK  Name = 
REMARK  4 active torsions:
REMARK  status: ('A' for Active; 'I' for Inactive)
REMARK    1  A    between atoms: C_1  and  C_2
REMARK    2  A    between atoms: C_5  and  C_6
REMARK    3  A    between atoms: C_10  and  C_11
REMARK    4  A    between atoms: C_13  and  C_14
REMARK                            x       y       z     vdW  Elec       q    Type
REMARK                         _______ _______ _______ _____ _____    ______ ____
ROOT
ATOM      1  C   UNL     1       6.374   5.167  17.311  0.00  0.00    +0.000 C 
ATOM      2  O   UNL     1       6.921   4.346  16.577  0.00  0.00    +0.000 OA
ATOM      3  N   UNL     1       5.136   4.886  17.907  0.00  0.00    +0.000 N 
ATOM      4  C   UNL     1       4.552   3.566  17.649  0.00  0.00    +0.000 C 
ATOM      5  C   UNL     1       3.761   3.074  18.871  0.00  0.00    +0.000 C 
ATOM      6  C   UNL     1       3.058   1.759  18.568  0.00  0.00    +0.000 C 
ATOM      7  O   UNL     1       2.763   4.039  19.251  0.00  0.00    +0.000 OA
ATOM      8  C   UNL     1       3.365   5.307  19.576  0.00  0.00    +0.000 C 
ATOM      9  C   UNL     1       2.248   6.246  20.008  0.00  0.00    +0.000 C 
ATOM     10  C   UNL     1       4.145   5.868  18.369  0.00  0.00    +0.000 C 
ENDROOT
BRANCH   1  15
ATOM     11  C   UNL     1       9.071  10.109  18.782  0.00  0.00    +0.000 C 
ATOM     12  C   UNL     1       8.387   8.832  18.392  0.00  0.00    +0.000 A 
ATOM     13  C   UNL     1       7.536   8.780  17.289  0.00  0.00    +0.000 A 
ATOM     14  C   UNL     1       6.888   7.585  16.951  0.00  0.00    +0.000 A 
ATOM     15  C   UNL     1       7.128   6.402  17.670  0.00  0.00    +0.000 A 
ATOM     16  C   UNL     1       7.966   6.463  18.797  0.00  0.00    +0.000 A 
ATOM     17 CL   UNL     1       8.335   5.102  19.802  0.00  0.00    +0.000 Cl
ATOM     18  C   UNL     1       8.586   7.675  19.150  0.00  0.00    +0.000 A 
ENDBRANCH   1  15
TORSDOF 1
ENDMDL
MODEL 8
REMARK VINA RESULT:      -5.9      3.278      6.600
REMARK  Name = 
REMARK  4 active torsions:
REMARK  status: ('A' for Active; 'I' for Inactive)
REMARK    1  A    between atoms: C_1  and  C_2
REMARK    2  A    between atoms: C_5  and  C_6
REMARK    3  A    between atoms: C_10  and  C_11
REMARK    4  A    between atoms: C_13  and  C_14
REMARK                            x       y       z     vdW  Elec       q    Type
REMARK                         _______ _______ _______ _____ _____    ______ ____
ROOT
ATOM      1  C   UNL     1       2.076   7.956  18.971  0.00  0.00    +0.000 C 
ATOM      2  O   UNL     1       2.341   8.257  17.808  0.00  0.00    +0.000 OA
ATOM      3  N   UNL     1       1.309   8.810  19.779  0.00  0.00    +0.000 N 
ATOM      4  C   UNL     1       0.811  10.045  19.164  0.00  0.00    +0.000 C 
ATOM      5  C   UNL     1      -0.558  10.428  19.747  0.00  0.00    +0.000 C 
ATOM      6  C   UNL     1      -1.026  11.767  19.197  0.00  0.00    +0.000 C 
ATOM      7  O   UNL     1      -0.487  10.531  21.181  0.00  0.00    +0.000 OA
ATOM      8  C   UNL     1      -0.071   9.284  21.770  0.00  0.00    +0.000 C 
ATOM      9  C   UNL     1      -0.069   9.471  23.281  0.00  0.00    +0.000 C 
ATOM     10  C   UNL     1       1.319   8.868  21.247  0.00  0.00    +0.000 C 
ENDROOT
BRANCH   1  15
ATOM     11  C   UNL     1       3.335   2.555  20.730  0.00  0.00    +0.000 C 
ATOM     12  C   UNL     1       3.018   3.953  20.289  0.00  0.00    +0.000 A 
ATOM     13  C   UNL     1       1.927   4.643  20.816  0.00  0.00    +0.000 A 
ATOM     14  C   UNL     1       1.633   5.940  20.377  0.00  0.00    +0.000 A 
ATOM     15  C   UNL     1       2.459   6.598  19.451  0.00  0.00    +0.000 A 
ATOM     16  C   UNL     1       3.542   5.891  18.902  0.00  0.00    +0.000 A 
ATOM     17 CL   UNL     1       4.633   6.551  17.730  0.00  0.00    +0.000 Cl
ATOM     18  C   UNL     1       3.812   4.577  19.323  0.00  0.00    +0.000 A 
ENDBRANCH   1  15
TORSDOF 1
ENDMDL
MODEL 9
REMARK VINA RESULT:      -5.9      3.003      6.383
REMARK  Name = 
REMARK  4 active torsions:
REMARK  status: ('A' for Active; 'I' for Inactive)
REMARK    1  A    between atoms: C_1  and  C_2
REMARK    2  A    between atoms: C_5  and  C_6
REMARK    3  A    between atoms: C_10  and  C_11
REMARK    4  A    between atoms: C_13  and  C_14
REMARK                            x       y       z     vdW  Elec       q    Type
REMARK                         _______ _______ _______ _____ _____    ______ ____
ROOT
ATOM      1  C   UNL     1       4.369   5.692  17.455  0.00  0.00    +0.000 C 
ATOM      2  O   UNL     1       3.831   6.798  17.427  0.00  0.00    +0.000 OA
ATOM      3  N   UNL     1       4.048   4.762  18.455  0.00  0.00    +0.000 N 
ATOM      4  C   UNL     1       3.022   5.151  19.429  0.00  0.00    +0.000 C 
ATOM      5  C   UNL     1       2.206   3.928  19.876  0.00  0.00    +0.000 C 
ATOM      6  C   UNL     1       1.219   4.306  20.970  0.00  0.00    +0.000 C 
ATOM      7  O   UNL     1       3.073   2.900  20.389  0.00  0.00    +0.000 OA
ATOM      8  C   UNL     1       4.022   2.477  19.391  0.00  0.00    +0.000 C 
ATOM      9  C   UNL     1       4.861   1.363  20.002  0.00  0.00    +0.000 C 
ATOM     10  C   UNL     1       4.898   3.661  18.931  0.00  0.00    +0.000 C 
ENDROOT
BRANCH   1  15
ATOM     11  C   UNL     1       7.658   4.358  12.845  0.00  0.00    +0.000 C 
ATOM     12  C   UNL     1       6.814   4.688  14.041  0.00  0.00    +0.000 A 
ATOM     13  C   UNL     1       5.501   4.230  14.142  0.00  0.00    +0.000 A 
ATOM     14  C   UNL     1       4.719   4.565  15.254  0.00  0.00    +0.000 A 
ATOM     15  C   UNL     1       5.254   5.311  16.318  0.00  0.00    +0.000 A 
ATOM     16  C   UNL     1       6.568   5.794  16.201  0.00  0.00    +0.000 A 
ATOM     17 CL   UNL     1       7.358   6.750  17.410  0.00  0.00    +0.000 Cl
ATOM     18  C   UNL     1       7.337   5.481  15.066  0.00  0.00    +0.000 A 
ENDBRANCH   1  15
TORSDOF 1
ENDMDL
