MODEL 1
REMARK VINA RESULT:      -7.8      0.000      0.000
REMARK  Name = 
REMARK  9 active torsions:
REMARK  status: ('A' for Active; 'I' for Inactive)
REMARK    1  A    between atoms: C_1  and  O_2
REMARK    2  A    between atoms: O_2  and  C_3
REMARK    3  A    between atoms: C_6  and  C_7
REMARK    4  A    between atoms: C_9  and  S_10
REMARK    5  A    between atoms: S_10  and  N_13
REMARK    6  A    between atoms: N_13  and  C_14
REMARK    7  A    between atoms: N_13  and  C_18
REMARK    8  A    between atoms: C_14  and  C_15
REMARK    9  A    between atoms: C_18  and  C_19
REMARK                            x       y       z     vdW  Elec       q    Type
REMARK                         _______ _______ _______ _____ _____    ______ ____
ROOT
ATOM      1  N   UNL     1       2.920   4.696  18.221  0.00  0.00    +0.000 NA
ENDROOT
BRANCH   1   2
ATOM      2  S   UNL     1       4.302   3.633  18.112  0.00  0.00    +0.000 S 
ATOM      3  O   UNL     1       3.777   2.409  17.547  0.00  0.00    +0.000 OA
ATOM      4  O   UNL     1       4.973   3.610  19.404  0.00  0.00    +0.000 OA
BRANCH   2  11
ATOM      5  C   UNL     1       6.465   5.286  17.250  0.00  0.00    +0.000 A 
ATOM      6  C   UNL     1       7.213   5.806  16.174  0.00  0.00    +0.000 A 
ATOM      7  C   UNL     1       7.066   5.307  14.873  0.00  0.00    +0.000 A 
ATOM      8  C   UNL     1       6.243   4.206  14.626  0.00  0.00    +0.000 A 
ATOM      9  C   UNL     1       6.104   3.637  13.244  0.00  0.00    +0.000 C 
ATOM     10  C   UNL     1       5.508   3.675  15.686  0.00  0.00    +0.000 A 
ATOM     11  C   UNL     1       5.548   4.261  16.966  0.00  0.00    +0.000 A 
BRANCH   5  13
ATOM     12  C   UNL     1       7.784   5.774  19.217  0.00  0.00    +0.000 C 
ATOM     13  O   UNL     1       6.534   5.829  18.505  0.00  0.00    +0.000 OA
ENDBRANCH   5  13
ENDBRANCH   2  11
ENDBRANCH   1   2
BRANCH   1  14
ATOM     14  C   UNL     1       1.534   4.094  18.377  0.00  0.00    +0.000 C 
BRANCH  14  15
ATOM     15  C   UNL     1       1.141   2.995  19.345  0.00  0.00    +0.000 C 
ATOM     16  N   UNL     1       1.090   1.774  18.732  0.00  0.00    +0.000 N 
ATOM     17  O   UNL     1       0.751   3.178  20.470  0.00  0.00    +0.000 OA
ATOM     18  H   UNL     1       0.861   1.844  17.750  0.00  0.00    +0.000 HD
ATOM     19  H   UNL     1       0.676   1.011  19.253  0.00  0.00    +0.000 HD
ENDBRANCH  14  15
ENDBRANCH   1  14
BRANCH   1  20
ATOM     20  C   UNL     1       3.083   5.647  19.401  0.00  0.00    +0.000 C 
BRANCH  20  21
ATOM     21  C   UNL     1       2.441   7.019  19.314  0.00  0.00    +0.000 A 
ATOM     22  C   UNL     1       2.474   7.687  18.080  0.00  0.00    +0.000 A 
ATOM     23  C   UNL     1       1.870   8.925  17.904  0.00  0.00    +0.000 A 
ATOM     24  C   UNL     1       1.196   9.514  18.969  0.00  0.00    +0.000 A 
ATOM     25  C   UNL     1       1.147   8.870  20.204  0.00  0.00    +0.000 A 
ATOM     26  C   UNL     1       1.770   7.631  20.383  0.00  0.00    +0.000 A 
ENDBRANCH  20  21
ENDBRANCH   1  20
TORSDOF 7
ENDMDL
MODEL 2
REMARK VINA RESULT:      -7.6      0.610      1.151
REMARK  Name = 
REMARK  9 active torsions:
REMARK  status: ('A' for Active; 'I' for Inactive)
REMARK    1  A    between atoms: C_1  and  O_2
REMARK    2  A    between atoms: O_2  and  C_3
REMARK    3  A    between atoms: C_6  and  C_7
REMARK    4  A    between atoms: C_9  and  S_10
REMARK    5  A    between atoms: S_10  and  N_13
REMARK    6  A    between atoms: N_13  and  C_14
REMARK    7  A    between atoms: N_13  and  C_18
REMARK    8  A    between atoms: C_14  and  C_15
REMARK    9  A    between atoms: C_18  and  C_19
REMARK                            x       y       z     vdW  Elec       q    Type
REMARK                         _______ _______ _______ _____ _____    ______ ____
ROOT
ATOM      1  N   UNL     1       3.173   4.894  17.938  0.00  0.00    +0.000 NA
ENDROOT
BRANCH   1   2
ATOM      2  S   UNL     1       4.485   3.740  17.918  0.00  0.00    +0.000 S 
ATOM      3  O   UNL     1       3.859   2.481  17.579  0.00  0.00    +0.000 OA
ATOM      4  O   UNL     1       5.235   3.870  19.160  0.00  0.00    +0.000 OA
BRANCH   2  11
ATOM      5  C   UNL     1       6.862   4.856  16.796  0.00  0.00    +0.000 A 
ATOM      6  C   UNL     1       7.569   5.237  15.638  0.00  0.00    +0.000 A 
ATOM      7  C   UNL     1       7.131   4.866  14.360  0.00  0.00    +0.000 A 
ATOM      8  C   UNL     1       6.032   4.018  14.207  0.00  0.00    +0.000 A 
ATOM      9  C   UNL     1       5.574   3.581  12.846  0.00  0.00    +0.000 C 
ATOM     10  C   UNL     1       5.333   3.623  15.348  0.00  0.00    +0.000 A 
ATOM     11  C   UNL     1       5.688   4.107  16.622  0.00  0.00    +0.000 A 
BRANCH   5  13
ATOM     12  C   UNL     1       7.569   6.679  18.219  0.00  0.00    +0.000 C 
ATOM     13  O   UNL     1       7.230   5.291  18.041  0.00  0.00    +0.000 OA
ENDBRANCH   5  13
ENDBRANCH   2  11
ENDBRANCH   1   2
BRANCH   1  14
ATOM     14  C   UNL     1       1.754   4.396  18.154  0.00  0.00    +0.000 C 
BRANCH  14  15
ATOM     15  C   UNL     1       1.249   3.633  19.363  0.00  0.00    +0.000 C 
ATOM     16  N   UNL     1       1.174   2.290  19.119  0.00  0.00    +0.000 N 
ATOM     17  O   UNL     1       0.801   4.142  20.359  0.00  0.00    +0.000 OA
ATOM     18  H   UNL     1       1.009   2.082  18.143  0.00  0.00    +0.000 HD
ATOM     19  H   UNL     1       0.692   1.721  19.804  0.00  0.00    +0.000 HD
ENDBRANCH  14  15
ENDBRANCH   1  14
BRANCH   1  20
ATOM     20  C   UNL     1       3.407   5.935  19.026  0.00  0.00    +0.000 C 
BRANCH  20  21
ATOM     21  C   UNL     1       2.576   7.203  18.999  0.00  0.00    +0.000 A 
ATOM     22  C   UNL     1       1.930   7.595  20.182  0.00  0.00    +0.000 A 
ATOM     23  C   UNL     1       1.188   8.766  20.255  0.00  0.00    +0.000 A 
ATOM     24  C   UNL     1       1.096   9.588  19.136  0.00  0.00    +0.000 A 
ATOM     25  C   UNL     1       1.730   9.222  17.950  0.00  0.00    +0.000 A 
ATOM     26  C   UNL     1       2.463   8.034  17.875  0.00  0.00    +0.000 A 
ENDBRANCH  20  21
ENDBRANCH   1  20
TORSDOF 7
ENDMDL
MODEL 3
REMARK VINA RESULT:      -7.6      0.955      1.375
REMARK  Name = 
REMARK  9 active torsions:
REMARK  status: ('A' for Active; 'I' for Inactive)
REMARK    1  A    between atoms: C_1  and  O_2
REMARK    2  A    between atoms: O_2  and  C_3
REMARK    3  A    between atoms: C_6  and  C_7
REMARK    4  A    between atoms: C_9  and  S_10
REMARK    5  A    between atoms: S_10  and  N_13
REMARK    6  A    between atoms: N_13  and  C_14
REMARK    7  A    between atoms: N_13  and  C_18
REMARK    8  A    between atoms: C_14  and  C_15
REMARK    9  A    between atoms: C_18  and  C_19
REMARK                            x       y       z     vdW  Elec       q    Type
REMARK                         _______ _______ _______ _____ _____    ______ ____
ROOT
ATOM      1  N   UNL     1       2.829   4.614  18.558  0.00  0.00    +0.000 NA
ENDROOT
BRANCH   1   2
ATOM      2  S   UNL     1       4.087   3.412  18.406  0.00  0.00    +0.000 S 
ATOM      3  O   UNL     1       3.439   2.284  17.773  0.00  0.00    +0.000 OA
ATOM      4  O   UNL     1       4.733   3.249  19.701  0.00  0.00    +0.000 OA
BRANCH   2  11
ATOM      5  C   UNL     1       6.540   4.691  17.700  0.00  0.00    +0.000 A 
ATOM      6  C   UNL     1       7.357   5.226  16.683  0.00  0.00    +0.000 A 
ATOM      7  C   UNL     1       7.068   5.016  15.328  0.00  0.00    +0.000 A 
ATOM      8  C   UNL     1       6.015   4.180  14.951  0.00  0.00    +0.000 A 
ATOM      9  C   UNL     1       5.717   3.915  13.504  0.00  0.00    +0.000 C 
ATOM     10  C   UNL     1       5.208   3.635  15.950  0.00  0.00    +0.000 A 
ATOM     11  C   UNL     1       5.411   3.956  17.306  0.00  0.00    +0.000 A 
BRANCH   5  13
ATOM     12  C   UNL     1       7.874   5.809  19.379  0.00  0.00    +0.000 C 
ATOM     13  O   UNL     1       6.761   4.969  19.023  0.00  0.00    +0.000 OA
ENDBRANCH   5  13
ENDBRANCH   2  11
ENDBRANCH   1   2
BRANCH   1  14
ATOM     14  C   UNL     1       1.603   4.299  19.398  0.00  0.00    +0.000 C 
BRANCH  14  15
ATOM     15  C   UNL     1       1.533   3.303  20.539  0.00  0.00    +0.000 C 
ATOM     16  N   UNL     1       2.173   3.766  21.655  0.00  0.00    +0.000 N 
ATOM     17  O   UNL     1       1.125   2.174  20.442  0.00  0.00    +0.000 OA
ATOM     18  H   UNL     1       2.928   4.400  21.433  0.00  0.00    +0.000 HD
ATOM     19  H   UNL     1       2.325   3.107  22.408  0.00  0.00    +0.000 HD
ENDBRANCH  14  15
ENDBRANCH   1  14
BRANCH   1  20
ATOM     20  C   UNL     1       3.401   5.899  19.144  0.00  0.00    +0.000 C 
BRANCH  20  21
ATOM     21  C   UNL     1       2.571   7.165  19.051  0.00  0.00    +0.000 A 
ATOM     22  C   UNL     1       1.944   7.632  20.218  0.00  0.00    +0.000 A 
ATOM     23  C   UNL     1       1.204   8.807  20.228  0.00  0.00    +0.000 A 
ATOM     24  C   UNL     1       1.094   9.556  19.061  0.00  0.00    +0.000 A 
ATOM     25  C   UNL     1       1.708   9.115  17.891  0.00  0.00    +0.000 A 
ATOM     26  C   UNL     1       2.439   7.923  17.878  0.00  0.00    +0.000 A 
ENDBRANCH  20  21
ENDBRANCH   1  20
TORSDOF 7
ENDMDL
MODEL 4
REMARK VINA RESULT:      -7.5      1.228      1.269
REMARK  Name = 
REMARK  9 active torsions:
REMARK  status: ('A' for Active; 'I' for Inactive)
REMARK    1  A    between atoms: C_1  and  O_2
REMARK    2  A    between atoms: O_2  and  C_3
REMARK    3  A    between atoms: C_6  and  C_7
REMARK    4  A    between atoms: C_9  and  S_10
REMARK    5  A    between atoms: S_10  and  N_13
REMARK    6  A    between atoms: N_13  and  C_14
REMARK    7  A    between atoms: N_13  and  C_18
REMARK    8  A    between atoms: C_14  and  C_15
REMARK    9  A    between atoms: C_18  and  C_19
REMARK                            x       y       z     vdW  Elec       q    Type
REMARK                         _______ _______ _______ _____ _____    ______ ____
ROOT
ATOM      1  N   UNL     1       2.715   4.639  18.794  0.00  0.00    +0.000 NA
ENDROOT
BRANCH   1   2
ATOM      2  S   UNL     1       3.432   3.328  17.890  0.00  0.00    +0.000 S 
ATOM      3  O   UNL     1       2.462   3.020  16.862  0.00  0.00    +0.000 OA
ATOM      4  O   UNL     1       3.854   2.295  18.826  0.00  0.00    +0.000 OA
BRANCH   2  11
ATOM      5  C   UNL     1       6.066   4.412  17.688  0.00  0.00    +0.000 A 
ATOM      6  C   UNL     1       7.073   4.952  16.863  0.00  0.00    +0.000 A 
ATOM      7  C   UNL     1       6.981   4.896  15.466  0.00  0.00    +0.000 A 
ATOM      8  C   UNL     1       5.931   4.209  14.853  0.00  0.00    +0.000 A 
ATOM      9  C   UNL     1       5.839   4.108  13.358  0.00  0.00    +0.000 C 
ATOM     10  C   UNL     1       4.935   3.659  15.661  0.00  0.00    +0.000 A 
ATOM     11  C   UNL     1       4.953   3.833  17.058  0.00  0.00    +0.000 A 
BRANCH   5  13
ATOM     12  C   UNL     1       7.015   5.493  19.631  0.00  0.00    +0.000 C 
ATOM     13  O   UNL     1       6.102   4.545  19.050  0.00  0.00    +0.000 OA
ENDBRANCH   5  13
ENDBRANCH   2  11
ENDBRANCH   1   2
BRANCH   1  14
ATOM     14  C   UNL     1       2.731   4.585  20.312  0.00  0.00    +0.000 C 
BRANCH  14  15
ATOM     15  C   UNL     1       1.928   3.636  21.181  0.00  0.00    +0.000 C 
ATOM     16  N   UNL     1       0.696   3.379  20.647  0.00  0.00    +0.000 N 
ATOM     17  O   UNL     1       2.247   3.282  22.288  0.00  0.00    +0.000 OA
ATOM     18  H   UNL     1       0.351   4.145  20.085  0.00  0.00    +0.000 HD
ATOM     19  H   UNL     1       0.029   2.895  21.234  0.00  0.00    +0.000 HD
ENDBRANCH  14  15
ENDBRANCH   1  14
BRANCH   1  20
ATOM     20  C   UNL     1       3.389   5.957  18.430  0.00  0.00    +0.000 C 
BRANCH  20  21
ATOM     21  C   UNL     1       2.644   7.248  18.710  0.00  0.00    +0.000 A 
ATOM     22  C   UNL     1       2.517   8.178  17.666  0.00  0.00    +0.000 A 
ATOM     23  C   UNL     1       1.812   9.363  17.826  0.00  0.00    +0.000 A 
ATOM     24  C   UNL     1       1.196   9.633  19.044  0.00  0.00    +0.000 A 
ATOM     25  C   UNL     1       1.305   8.725  20.095  0.00  0.00    +0.000 A 
ATOM     26  C   UNL     1       2.030   7.539  19.937  0.00  0.00    +0.000 A 
ENDBRANCH  20  21
ENDBRANCH   1  20
TORSDOF 7
ENDMDL
MODEL 5
REMARK VINA RESULT:      -7.3      1.742      6.562
REMARK  Name = 
REMARK  9 active torsions:
REMARK  status: ('A' for Active; 'I' for Inactive)
REMARK    1  A    between atoms: C_1  and  O_2
REMARK    2  A    between atoms: O_2  and  C_3
REMARK    3  A    between atoms: C_6  and  C_7
REMARK    4  A    between atoms: C_9  and  S_10
REMARK    5  A    between atoms: S_10  and  N_13
REMARK    6  A    between atoms: N_13  and  C_14
REMARK    7  A    between atoms: N_13  and  C_18
REMARK    8  A    between atoms: C_14  and  C_15
REMARK    9  A    between atoms: C_18  and  C_19
REMARK                            x       y       z     vdW  Elec       q    Type
REMARK                         _______ _______ _______ _____ _____    ______ ____
ROOT
ATOM      1  N   UNL     1       5.601   4.427  17.130  0.00  0.00    +0.000 NA
ENDROOT
BRANCH   1   2
ATOM      2  S   UNL     1       4.488   3.841  18.342  0.00  0.00    +0.000 S 
ATOM      3  O   UNL     1       5.334   3.321  19.394  0.00  0.00    +0.000 OA
ATOM      4  O   UNL     1       3.512   2.975  17.697  0.00  0.00    +0.000 OA
BRANCH   2  11
ATOM      5  C   UNL     1       2.731   5.075  20.224  0.00  0.00    +0.000 A 
ATOM      6  C   UNL     1       1.851   6.137  20.516  0.00  0.00    +0.000 A 
ATOM      7  C   UNL     1       1.764   7.263  19.686  0.00  0.00    +0.000 A 
ATOM      8  C   UNL     1       2.627   7.408  18.598  0.00  0.00    +0.000 A 
ATOM      9  C   UNL     1       2.572   8.625  17.721  0.00  0.00    +0.000 C 
ATOM     10  C   UNL     1       3.512   6.368  18.308  0.00  0.00    +0.000 A 
ATOM     11  C   UNL     1       3.505   5.176  19.058  0.00  0.00    +0.000 A 
BRANCH   5  13
ATOM     12  C   UNL     1       1.534   3.191  21.152  0.00  0.00    +0.000 C 
ATOM     13  O   UNL     1       2.755   3.932  20.977  0.00  0.00    +0.000 OA
ENDBRANCH   5  13
ENDBRANCH   2  11
ENDBRANCH   1   2
BRANCH   1  14
ATOM     14  C   UNL     1       7.048   4.681  17.516  0.00  0.00    +0.000 C 
BRANCH  14  15
ATOM     15  C   UNL     1       7.555   5.812  18.388  0.00  0.00    +0.000 C 
ATOM     16  N   UNL     1       7.594   5.456  19.707  0.00  0.00    +0.000 N 
ATOM     17  O   UNL     1       7.739   6.942  18.011  0.00  0.00    +0.000 OA
ATOM     18  H   UNL     1       6.901   4.758  19.941  0.00  0.00    +0.000 HD
ATOM     19  H   UNL     1       7.757   6.193  20.381  0.00  0.00    +0.000 HD
ENDBRANCH  14  15
ENDBRANCH   1  14
BRANCH   1  20
ATOM     20  C   UNL     1       5.659   3.453  15.959  0.00  0.00    +0.000 C 
BRANCH  20  21
ATOM     21  C   UNL     1       6.222   3.946  14.640  0.00  0.00    +0.000 A 
ATOM     22  C   UNL     1       7.180   4.973  14.672  0.00  0.00    +0.000 A 
ATOM     23  C   UNL     1       7.778   5.450  13.513  0.00  0.00    +0.000 A 
ATOM     24  C   UNL     1       7.439   4.887  12.288  0.00  0.00    +0.000 A 
ATOM     25  C   UNL     1       6.492   3.865  12.229  0.00  0.00    +0.000 A 
ATOM     26  C   UNL     1       5.879   3.398  13.395  0.00  0.00    +0.000 A 
ENDBRANCH  20  21
ENDBRANCH   1  20
TORSDOF 7
ENDMDL
MODEL 6
REMARK VINA RESULT:      -7.1      1.776      6.645
REMARK  Name = 
REMARK  9 active torsions:
REMARK  status: ('A' for Active; 'I' for Inactive)
REMARK    1  A    between atoms: C_1  and  O_2
REMARK    2  A    between atoms: O_2  and  C_3
REMARK    3  A    between atoms: C_6  and  C_7
REMARK    4  A    between atoms: C_9  and  S_10
REMARK    5  A    between atoms: S_10  and  N_13
REMARK    6  A    between atoms: N_13  and  C_14
REMARK    7  A    between atoms: N_13  and  C_18
REMARK    8  A    between atoms: C_14  and  C_15
REMARK    9  A    between atoms: C_18  and  C_19
REMARK                            x       y       z     vdW  Elec       q    Type
REMARK                         _______ _______ _______ _____ _____    ______ ____
ROOT
ATOM      1  N   UNL     1       5.590   4.616  16.940  0.00  0.00    +0.000 NA
ENDROOT
BRANCH   1   2
ATOM      2  S   UNL     1       4.670   3.990  18.285  0.00  0.00    +0.000 S 
ATOM      3  O   UNL     1       5.663   3.642  19.277  0.00  0.00    +0.000 OA
ATOM      4  O   UNL     1       3.751   2.975  17.787  0.00  0.00    +0.000 OA
BRANCH   2  11
ATOM      5  C   UNL     1       2.824   5.077  20.173  0.00  0.00    +0.000 A 
ATOM      6  C   UNL     1       1.878   6.077  20.477  0.00  0.00    +0.000 A 
ATOM      7  C   UNL     1       1.730   7.212  19.668  0.00  0.00    +0.000 A 
ATOM      8  C   UNL     1       2.592   7.430  18.591  0.00  0.00    +0.000 A 
ATOM      9  C   UNL     1       2.471   8.659  17.738  0.00  0.00    +0.000 C 
ATOM     10  C   UNL     1       3.541   6.453  18.290  0.00  0.00    +0.000 A 
ATOM     11  C   UNL     1       3.600   5.248  19.016  0.00  0.00    +0.000 A 
BRANCH   5  13
ATOM     12  C   UNL     1       1.697   3.242  21.275  0.00  0.00    +0.000 C 
ATOM     13  O   UNL     1       2.910   3.922  20.904  0.00  0.00    +0.000 OA
ENDBRANCH   5  13
ENDBRANCH   2  11
ENDBRANCH   1   2
BRANCH   1  14
ATOM     14  C   UNL     1       7.025   5.060  17.168  0.00  0.00    +0.000 C 
BRANCH  14  15
ATOM     15  C   UNL     1       7.467   6.305  17.913  0.00  0.00    +0.000 C 
ATOM     16  N   UNL     1       7.481   7.403  17.099  0.00  0.00    +0.000 N 
ATOM     17  O   UNL     1       7.920   6.313  19.029  0.00  0.00    +0.000 OA
ATOM     18  H   UNL     1       7.655   7.167  16.132  0.00  0.00    +0.000 HD
ATOM     19  H   UNL     1       7.921   8.241  17.459  0.00  0.00    +0.000 HD
ENDBRANCH  14  15
ENDBRANCH   1  14
BRANCH   1  20
ATOM     20  C   UNL     1       5.660   3.579  15.825  0.00  0.00    +0.000 C 
BRANCH  20  21
ATOM     21  C   UNL     1       6.304   3.977  14.511  0.00  0.00    +0.000 A 
ATOM     22  C   UNL     1       5.865   3.340  13.339  0.00  0.00    +0.000 A 
ATOM     23  C   UNL     1       6.370   3.677  12.091  0.00  0.00    +0.000 A 
ATOM     24  C   UNL     1       7.321   4.687  11.989  0.00  0.00    +0.000 A 
ATOM     25  C   UNL     1       7.772   5.337  13.137  0.00  0.00    +0.000 A 
ATOM     26  C   UNL     1       7.275   4.983  14.394  0.00  0.00    +0.000 A 
ENDBRANCH  20  21
ENDBRANCH   1  20
TORSDOF 7
ENDMDL
MODEL 7
REMARK VINA RESULT:      -7.1      1.366      2.800
REMARK  Name = 
REMARK  9 active torsions:
REMARK  status: ('A' for Active; 'I' for Inactive)
REMARK    1  A    between atoms: C_1  and  O_2
REMARK    2  A    between atoms: O_2  and  C_3
REMARK    3  A    between atoms: C_6  and  C_7
REMARK    4  A    between atoms: C_9  and  S_10
REMARK    5  A    between atoms: S_10  and  N_13
REMARK    6  A    between atoms: N_13  and  C_14
REMARK    7  A    between atoms: N_13  and  C_18
REMARK    8  A    between atoms: C_14  and  C_15
REMARK    9  A    between atoms: C_18  and  C_19
REMARK                            x       y       z     vdW  Elec       q    Type
REMARK                         _______ _______ _______ _____ _____    ______ ____
ROOT
ATOM      1  N   UNL     1       2.625   4.865  18.360  0.00  0.00    +0.000 NA
ENDROOT
BRANCH   1   2
ATOM      2  S   UNL     1       4.178   4.101  18.125  0.00  0.00    +0.000 S 
ATOM      3  O   UNL     1       4.138   3.601  16.768  0.00  0.00    +0.000 OA
ATOM      4  O   UNL     1       4.417   3.185  19.232  0.00  0.00    +0.000 OA
BRANCH   2  11
ATOM      5  C   UNL     1       5.787   6.305  17.286  0.00  0.00    +0.000 A 
ATOM      6  C   UNL     1       7.012   6.995  17.387  0.00  0.00    +0.000 A 
ATOM      7  C   UNL     1       7.939   6.691  18.394  0.00  0.00    +0.000 A 
ATOM      8  C   UNL     1       7.625   5.763  19.389  0.00  0.00    +0.000 A 
ATOM      9  C   UNL     1       8.593   5.455  20.494  0.00  0.00    +0.000 C 
ATOM     10  C   UNL     1       6.409   5.085  19.305  0.00  0.00    +0.000 A 
ATOM     11  C   UNL     1       5.536   5.287  18.219  0.00  0.00    +0.000 A 
BRANCH   5  13
ATOM     12  C   UNL     1       5.295   6.116  14.926  0.00  0.00    +0.000 C 
ATOM     13  O   UNL     1       4.918   6.530  16.252  0.00  0.00    +0.000 OA
ENDBRANCH   5  13
ENDBRANCH   2  11
ENDBRANCH   1   2
BRANCH   1  14
ATOM     14  C   UNL     1       1.413   3.999  18.656  0.00  0.00    +0.000 C 
BRANCH  14  15
ATOM     15  C   UNL     1       1.382   2.783  19.561  0.00  0.00    +0.000 C 
ATOM     16  N   UNL     1       1.614   1.629  18.867  0.00  0.00    +0.000 N 
ATOM     17  O   UNL     1       1.027   2.792  20.712  0.00  0.00    +0.000 OA
ATOM     18  H   UNL     1       1.315   1.690  17.903  0.00  0.00    +0.000 HD
ATOM     19  H   UNL     1       1.447   0.756  19.350  0.00  0.00    +0.000 HD
ENDBRANCH  14  15
ENDBRANCH   1  14
BRANCH   1  20
ATOM     20  C   UNL     1       2.701   5.862  19.510  0.00  0.00    +0.000 C 
BRANCH  20  21
ATOM     21  C   UNL     1       2.159   7.261  19.288  0.00  0.00    +0.000 A 
ATOM     22  C   UNL     1       1.565   7.921  20.376  0.00  0.00    +0.000 A 
ATOM     23  C   UNL     1       1.085   9.219  20.268  0.00  0.00    +0.000 A 
ATOM     24  C   UNL     1       1.211   9.896  19.060  0.00  0.00    +0.000 A 
ATOM     25  C   UNL     1       1.797   9.264  17.965  0.00  0.00    +0.000 A 
ATOM     26  C   UNL     1       2.265   7.950  18.071  0.00  0.00    +0.000 A 
ENDBRANCH  20  21
ENDBRANCH   1  20
TORSDOF 7
ENDMDL
MODEL 8
REMARK VINA RESULT:      -7.0      2.669      6.549
REMARK  Name = 
REMARK  9 active torsions:
REMARK  status: ('A' for Active; 'I' for Inactive)
REMARK    1  A    between atoms: C_1  and  O_2
REMARK    2  A    between atoms: O_2  and  C_3
REMARK    3  A    between atoms: C_6  and  C_7
REMARK    4  A    between atoms: C_9  and  S_10
REMARK    5  A    between atoms: S_10  and  N_13
REMARK    6  A    between atoms: N_13  and  C_14
REMARK    7  A    between atoms: N_13  and  C_18
REMARK    8  A    between atoms: C_14  and  C_15
REMARK    9  A    between atoms: C_18  and  C_19
REMARK                            x       y       z     vdW  Elec       q    Type
REMARK                         _______ _______ _______ _____ _____    ______ ____
ROOT
ATOM      1  N   UNL     1       6.720   5.452  16.721  0.00  0.00    +0.000 NA
ENDROOT
BRANCH   1   2
ATOM      2  S   UNL     1       5.240   6.373  16.828  0.00  0.00    +0.000 S 
ATOM      3  O   UNL     1       4.948   6.754  15.464  0.00  0.00    +0.000 OA
ATOM      4  O   UNL     1       5.404   7.397  17.851  0.00  0.00    +0.000 OA
BRANCH   2  11
ATOM      5  C   UNL     1       2.648   5.870  17.914  0.00  0.00    +0.000 A 
ATOM      6  C   UNL     1       1.771   4.957  18.534  0.00  0.00    +0.000 A 
ATOM      7  C   UNL     1       2.083   3.594  18.629  0.00  0.00    +0.000 A 
ATOM      8  C   UNL     1       3.231   3.087  18.017  0.00  0.00    +0.000 A 
ATOM      9  C   UNL     1       3.560   1.624  18.077  0.00  0.00    +0.000 C 
ATOM     10  C   UNL     1       4.100   3.981  17.388  0.00  0.00    +0.000 A 
ATOM     11  C   UNL     1       3.858   5.368  17.412  0.00  0.00    +0.000 A 
BRANCH   5  13
ATOM     12  C   UNL     1       2.181   7.895  19.151  0.00  0.00    +0.000 C 
ATOM     13  O   UNL     1       2.395   7.216  17.900  0.00  0.00    +0.000 OA
ENDBRANCH   5  13
ENDBRANCH   2  11
ENDBRANCH   1   2
BRANCH   1  14
ATOM     14  C   UNL     1       7.379   4.961  17.999  0.00  0.00    +0.000 C 
BRANCH  14  15
ATOM     15  C   UNL     1       7.750   5.813  19.197  0.00  0.00    +0.000 C 
ATOM     16  N   UNL     1       8.282   7.014  18.819  0.00  0.00    +0.000 N 
ATOM     17  O   UNL     1       7.748   5.431  20.339  0.00  0.00    +0.000 OA
ATOM     18  H   UNL     1       8.752   6.966  17.925  0.00  0.00    +0.000 HD
ATOM     19  H   UNL     1       8.713   7.578  19.541  0.00  0.00    +0.000 HD
ENDBRANCH  14  15
ENDBRANCH   1  14
BRANCH   1  20
ATOM     20  C   UNL     1       6.500   4.203  15.875  0.00  0.00    +0.000 C 
BRANCH  20  21
ATOM     21  C   UNL     1       6.774   4.285  14.385  0.00  0.00    +0.000 A 
ATOM     22  C   UNL     1       6.083   3.406  13.537  0.00  0.00    +0.000 A 
ATOM     23  C   UNL     1       6.242   3.446  12.158  0.00  0.00    +0.000 A 
ATOM     24  C   UNL     1       7.090   4.393  11.595  0.00  0.00    +0.000 A 
ATOM     25  C   UNL     1       7.786   5.279  12.416  0.00  0.00    +0.000 A 
ATOM     26  C   UNL     1       7.637   5.226  13.805  0.00  0.00    +0.000 A 
ENDBRANCH  20  21
ENDBRANCH   1  20
TORSDOF 7
ENDMDL
MODEL 9
REMARK VINA RESULT:      -7.0      1.951      6.803
REMARK  Name = 
REMARK  9 active torsions:
REMARK  status: ('A' for Active; 'I' for Inactive)
REMARK    1  A    between atoms: C_1  and  O_2
REMARK    2  A    between atoms: O_2  and  C_3
REMARK    3  A    between atoms: C_6  and  C_7
REMARK    4  A    between atoms: C_9  and  S_10
REMARK    5  A    between atoms: S_10  and  N_13
REMARK    6  A    between atoms: N_13  and  C_14
REMARK    7  A    between atoms: N_13  and  C_18
REMARK    8  A    between atoms: C_14  and  C_15
REMARK    9  A    between atoms: C_18  and  C_19
REMARK                            x       y       z     vdW  Elec       q    Type
REMARK                         _______ _______ _______ _____ _____    ______ ____
ROOT
ATOM      1  N   UNL     1       5.580   5.530  16.666  0.00  0.00    +0.000 NA
ENDROOT
BRANCH   1   2
ATOM      2  S   UNL     1       4.802   4.505  17.847  0.00  0.00    +0.000 S 
ATOM      3  O   UNL     1       5.874   4.067  18.714  0.00  0.00    +0.000 OA
ATOM      4  O   UNL     1       3.986   3.524  17.144  0.00  0.00    +0.000 OA
BRANCH   2  11
ATOM      5  C   UNL     1       2.958   4.908  19.989  0.00  0.00    +0.000 A 
ATOM      6  C   UNL     1       1.911   5.680  20.533  0.00  0.00    +0.000 A 
ATOM      7  C   UNL     1       1.564   6.924  19.990  0.00  0.00    +0.000 A 
ATOM      8  C   UNL     1       2.317   7.479  18.954  0.00  0.00    +0.000 A 
ATOM      9  C   UNL     1       1.979   8.828  18.387  0.00  0.00    +0.000 C 
ATOM     10  C   UNL     1       3.364   6.729  18.417  0.00  0.00    +0.000 A 
ATOM     11  C   UNL     1       3.628   5.421  18.868  0.00  0.00    +0.000 A 
BRANCH   5  13
ATOM     12  C   UNL     1       2.294   2.594  20.222  0.00  0.00    +0.000 C 
ATOM     13  O   UNL     1       3.243   3.651  20.454  0.00  0.00    +0.000 OA
ENDBRANCH   5  13
ENDBRANCH   2  11
ENDBRANCH   1   2
BRANCH   1  14
ATOM     14  C   UNL     1       6.114   6.885  17.101  0.00  0.00    +0.000 C 
BRANCH  14  15
ATOM     15  C   UNL     1       7.420   7.139  17.829  0.00  0.00    +0.000 C 
ATOM     16  N   UNL     1       8.026   8.285  17.397  0.00  0.00    +0.000 N 
ATOM     17  O   UNL     1       7.958   6.355  18.569  0.00  0.00    +0.000 OA
ATOM     18  H   UNL     1       7.802   8.503  16.435  0.00  0.00    +0.000 HD
ATOM     19  H   UNL     1       8.978   8.449  17.700  0.00  0.00    +0.000 HD
ENDBRANCH  14  15
ENDBRANCH   1  14
BRANCH   1  20
ATOM     20  C   UNL     1       6.770   4.807  16.047  0.00  0.00    +0.000 C 
BRANCH  20  21
ATOM     21  C   UNL     1       6.771   4.575  14.548  0.00  0.00    +0.000 A 
ATOM     22  C   UNL     1       7.675   5.312  13.766  0.00  0.00    +0.000 A 
ATOM     23  C   UNL     1       7.771   5.128  12.393  0.00  0.00    +0.000 A 
ATOM     24  C   UNL     1       6.969   4.175  11.774  0.00  0.00    +0.000 A 
ATOM     25  C   UNL     1       6.066   3.429  12.528  0.00  0.00    +0.000 A 
ATOM     26  C   UNL     1       5.958   3.628  13.908  0.00  0.00    +0.000 A 
ENDBRANCH  20  21
ENDBRANCH   1  20
TORSDOF 7
ENDMDL
