MODEL 1
REMARK VINA RESULT:      -7.7      0.000      0.000
REMARK  Name = 
REMARK  18 active torsions:
REMARK  status: ('A' for Active; 'I' for Inactive)
REMARK    1  A    between atoms: C_1  and  C_2
REMARK    2  A    between atoms: C_2  and  C_3
REMARK    3  A    between atoms: C_3  and  C_4
REMARK    4  A    between atoms: C_4  and  C_5
REMARK    5  A    between atoms: C_5  and  C_6
REMARK    6  A    between atoms: C_6  and  C_7
REMARK    7  A    between atoms: C_7  and  C_8
REMARK    8  A    between atoms: C_8  and  C_9
REMARK    9  A    between atoms: C_9  and  C_10
REMARK   10  A    between atoms: C_10  and  C_11
REMARK   11  A    between atoms: C_11  and  C_12
REMARK   12  A    between atoms: C_12  and  N_13
REMARK   13  A    between atoms: C_16  and  C_17
REMARK   14  A    between atoms: C_17  and  N_18
REMARK   15  A    between atoms: C_17  and  C_29
REMARK   16  A    between atoms: C_19  and  C_21
REMARK   17  A    between atoms: C_22  and  C_23
REMARK   18  A    between atoms: C_27  and  C_28
REMARK                            x       y       z     vdW  Elec       q    Type
REMARK                         _______ _______ _______ _____ _____    ______ ____
ROOT
ATOM      1  C   UNL     1       6.472   4.427  16.552  0.00  0.00    +0.000 C 
ENDROOT
BRANCH   1   2
ATOM      2  C   UNL     1       6.530   4.274  15.031  0.00  0.00    +0.000 A 
ATOM      3  C   UNL     1       5.563   3.568  14.286  0.00  0.00    +0.000 A 
ATOM      4  C   UNL     1       5.626   3.495  12.887  0.00  0.00    +0.000 A 
ATOM      5  C   UNL     1       6.646   4.143  12.198  0.00  0.00    +0.000 A 
ATOM      6  C   UNL     1       7.587   4.883  12.905  0.00  0.00    +0.000 A 
ATOM      7  C   UNL     1       7.509   4.965  14.298  0.00  0.00    +0.000 A 
ENDBRANCH   1   2
BRANCH   1  11
ATOM      8  N   UNL     1       7.578   7.550  17.740  0.00  0.00    +0.000 N 
ATOM      9  N   UNL     1       6.509   7.989  17.056  0.00  0.00    +0.000 NA
ATOM     10  N   UNL     1       5.985   6.899  16.515  0.00  0.00    +0.000 NA
ATOM     11  C   UNL     1       6.791   5.849  16.896  0.00  0.00    +0.000 A 
ATOM     12  N   UNL     1       7.812   6.228  17.681  0.00  0.00    +0.000 NA
BRANCH   8  13
ATOM     13  C   UNL     1       8.449   8.444  18.465  0.00  0.00    +0.000 C 
BRANCH  13  14
ATOM     14  C   UNL     1       8.730   9.711  17.665  0.00  0.00    +0.000 C 
BRANCH  14  15
ATOM     15  C   UNL     1       8.663  10.953  18.551  0.00  0.00    +0.000 C 
BRANCH  15  16
ATOM     16  C   UNL     1       9.425  12.109  17.906  0.00  0.00    +0.000 C 
BRANCH  16  17
ATOM     17  C   UNL     1      10.913  11.798  17.782  0.00  0.00    +0.000 C 
BRANCH  17  18
ATOM     18  C   UNL     1      11.656  12.969  17.143  0.00  0.00    +0.000 C 
BRANCH  18  19
ATOM     19  C   UNL     1      10.953  14.294  17.426  0.00  0.00    +0.000 C 
BRANCH  19  20
ATOM     20  C   UNL     1      11.481  14.926  18.712  0.00  0.00    +0.000 C 
BRANCH  20  21
ATOM     21  C   UNL     1      10.348  15.547  19.526  0.00  0.00    +0.000 C 
BRANCH  21  22
ATOM     22  C   UNL     1      10.386  15.061  20.975  0.00  0.00    +0.000 C 
BRANCH  22  24
ATOM     23  C   UNL     1       9.091  12.982  21.545  0.00  0.00    +0.000 C 
ATOM     24  C   UNL     1      10.416  13.535  21.045  0.00  0.00    +0.000 C 
ENDBRANCH  22  24
ENDBRANCH  21  22
ENDBRANCH  20  21
ENDBRANCH  19  20
ENDBRANCH  18  19
ENDBRANCH  17  18
ENDBRANCH  16  17
ENDBRANCH  15  16
ENDBRANCH  14  15
ENDBRANCH  13  14
ENDBRANCH   8  13
ENDBRANCH   1  11
BRANCH   1  25
ATOM     25  N   UNL     1       5.144   4.220  17.114  0.00  0.00    +0.000 N 
ATOM     26  C   UNL     1       4.954   3.932  18.441  0.00  0.00    +0.000 C 
ATOM     27  O   UNL     1       5.890   3.892  19.223  0.00  0.00    +0.000 OA
ATOM     28  H   UNL     1       4.372   4.484  16.517  0.00  0.00    +0.000 HD
BRANCH  26  29
ATOM     29  C   UNL     1       3.545   3.675  18.890  0.00  0.00    +0.000 A 
ATOM     30  C   UNL     1       2.682   4.729  19.283  0.00  0.00    +0.000 A 
ATOM     31  C   UNL     1       3.010   6.195  19.347  0.00  0.00    +0.000 C 
ATOM     32  C   UNL     1       1.354   4.422  19.634  0.00  0.00    +0.000 A 
ATOM     33  C   UNL     1       0.861   3.124  19.567  0.00  0.00    +0.000 A 
ATOM     34  C   UNL     1       1.702   2.093  19.168  0.00  0.00    +0.000 A 
ATOM     35  C   UNL     1       3.043   2.343  18.834  0.00  0.00    +0.000 A 
ATOM     36  C   UNL     1       3.879   1.154  18.434  0.00  0.00    +0.000 C 
ENDBRANCH  26  29
ENDBRANCH   1  25
TORSDOF 15
ENDMDL
MODEL 2
REMARK VINA RESULT:      -7.5      1.544      3.093
REMARK  Name = 
REMARK  18 active torsions:
REMARK  status: ('A' for Active; 'I' for Inactive)
REMARK    1  A    between atoms: C_1  and  C_2
REMARK    2  A    between atoms: C_2  and  C_3
REMARK    3  A    between atoms: C_3  and  C_4
REMARK    4  A    between atoms: C_4  and  C_5
REMARK    5  A    between atoms: C_5  and  C_6
REMARK    6  A    between atoms: C_6  and  C_7
REMARK    7  A    between atoms: C_7  and  C_8
REMARK    8  A    between atoms: C_8  and  C_9
REMARK    9  A    between atoms: C_9  and  C_10
REMARK   10  A    between atoms: C_10  and  C_11
REMARK   11  A    between atoms: C_11  and  C_12
REMARK   12  A    between atoms: C_12  and  N_13
REMARK   13  A    between atoms: C_16  and  C_17
REMARK   14  A    between atoms: C_17  and  N_18
REMARK   15  A    between atoms: C_17  and  C_29
REMARK   16  A    between atoms: C_19  and  C_21
REMARK   17  A    between atoms: C_22  and  C_23
REMARK   18  A    between atoms: C_27  and  C_28
REMARK                            x       y       z     vdW  Elec       q    Type
REMARK                         _______ _______ _______ _____ _____    ______ ____
ROOT
ATOM      1  C   UNL     1       6.504   4.529  16.378  0.00  0.00    +0.000 C 
ENDROOT
BRANCH   1   2
ATOM      2  C   UNL     1       6.597   4.457  14.852  0.00  0.00    +0.000 A 
ATOM      3  C   UNL     1       7.595   5.116  14.106  0.00  0.00    +0.000 A 
ATOM      4  C   UNL     1       7.674   4.981  12.712  0.00  0.00    +0.000 A 
ATOM      5  C   UNL     1       6.772   4.168  12.035  0.00  0.00    +0.000 A 
ATOM      6  C   UNL     1       5.807   3.470  12.752  0.00  0.00    +0.000 A 
ATOM      7  C   UNL     1       5.743   3.597  14.143  0.00  0.00    +0.000 A 
ENDBRANCH   1   2
BRANCH   1  11
ATOM      8  N   UNL     1       7.625   7.575  17.740  0.00  0.00    +0.000 N 
ATOM      9  N   UNL     1       6.542   8.052  17.105  0.00  0.00    +0.000 NA
ATOM     10  N   UNL     1       6.011   6.997  16.507  0.00  0.00    +0.000 NA
ATOM     11  C   UNL     1       6.826   5.928  16.806  0.00  0.00    +0.000 A 
ATOM     12  N   UNL     1       7.861   6.260  17.593  0.00  0.00    +0.000 NA
BRANCH   8  13
ATOM     13  C   UNL     1       8.508   8.424  18.503  0.00  0.00    +0.000 C 
BRANCH  13  14
ATOM     14  C   UNL     1       8.433   9.870  18.025  0.00  0.00    +0.000 C 
BRANCH  14  15
ATOM     15  C   UNL     1       9.624  10.683  18.528  0.00  0.00    +0.000 C 
BRANCH  15  16
ATOM     16  C   UNL     1       9.292  12.174  18.519  0.00  0.00    +0.000 C 
BRANCH  16  17
ATOM     17  C   UNL     1       9.659  12.836  19.843  0.00  0.00    +0.000 C 
BRANCH  17  18
ATOM     18  C   UNL     1       9.439  11.871  21.006  0.00  0.00    +0.000 C 
BRANCH  18  19
ATOM     19  C   UNL     1       9.027  12.614  22.275  0.00  0.00    +0.000 C 
BRANCH  19  20
ATOM     20  C   UNL     1       7.960  11.833  23.040  0.00  0.00    +0.000 C 
BRANCH  20  21
ATOM     21  C   UNL     1       8.283  11.775  24.531  0.00  0.00    +0.000 C 
BRANCH  21  22
ATOM     22  C   UNL     1       7.425  12.767  25.316  0.00  0.00    +0.000 C 
BRANCH  22  24
ATOM     23  C   UNL     1       5.581  14.318  24.597  0.00  0.00    +0.000 C 
ATOM     24  C   UNL     1       6.019  12.868  24.727  0.00  0.00    +0.000 C 
ENDBRANCH  22  24
ENDBRANCH  21  22
ENDBRANCH  20  21
ENDBRANCH  19  20
ENDBRANCH  18  19
ENDBRANCH  17  18
ENDBRANCH  16  17
ENDBRANCH  15  16
ENDBRANCH  14  15
ENDBRANCH  13  14
ENDBRANCH   8  13
ENDBRANCH   1  11
BRANCH   1  25
ATOM     25  N   UNL     1       5.163   4.304  16.897  0.00  0.00    +0.000 N 
ATOM     26  C   UNL     1       4.935   4.000  18.215  0.00  0.00    +0.000 C 
ATOM     27  O   UNL     1       5.848   3.959  19.025  0.00  0.00    +0.000 OA
ATOM     28  H   UNL     1       4.405   4.569  16.281  0.00  0.00    +0.000 HD
BRANCH  26  29
ATOM     29  C   UNL     1       3.516   3.726  18.619  0.00  0.00    +0.000 A 
ATOM     30  C   UNL     1       2.997   2.408  18.679  0.00  0.00    +0.000 A 
ATOM     31  C   UNL     1       3.718   1.132  18.341  0.00  0.00    +0.000 C 
ATOM     32  C   UNL     1       1.676   2.220  19.125  0.00  0.00    +0.000 A 
ATOM     33  C   UNL     1       0.886   3.284  19.542  0.00  0.00    +0.000 A 
ATOM     34  C   UNL     1       1.398   4.574  19.497  0.00  0.00    +0.000 A 
ATOM     35  C   UNL     1       2.701   4.818  19.033  0.00  0.00    +0.000 A 
ATOM     36  C   UNL     1       3.156   6.255  19.004  0.00  0.00    +0.000 C 
ENDBRANCH  26  29
ENDBRANCH   1  25
TORSDOF 15
ENDMDL
MODEL 3
REMARK VINA RESULT:      -7.5      1.849      2.636
REMARK  Name = 
REMARK  18 active torsions:
REMARK  status: ('A' for Active; 'I' for Inactive)
REMARK    1  A    between atoms: C_1  and  C_2
REMARK    2  A    between atoms: C_2  and  C_3
REMARK    3  A    between atoms: C_3  and  C_4
REMARK    4  A    between atoms: C_4  and  C_5
REMARK    5  A    between atoms: C_5  and  C_6
REMARK    6  A    between atoms: C_6  and  C_7
REMARK    7  A    between atoms: C_7  and  C_8
REMARK    8  A    between atoms: C_8  and  C_9
REMARK    9  A    between atoms: C_9  and  C_10
REMARK   10  A    between atoms: C_10  and  C_11
REMARK   11  A    between atoms: C_11  and  C_12
REMARK   12  A    between atoms: C_12  and  N_13
REMARK   13  A    between atoms: C_16  and  C_17
REMARK   14  A    between atoms: C_17  and  N_18
REMARK   15  A    between atoms: C_17  and  C_29
REMARK   16  A    between atoms: C_19  and  C_21
REMARK   17  A    between atoms: C_22  and  C_23
REMARK   18  A    between atoms: C_27  and  C_28
REMARK                            x       y       z     vdW  Elec       q    Type
REMARK                         _______ _______ _______ _____ _____    ______ ____
ROOT
ATOM      1  C   UNL     1       6.538   4.459  16.488  0.00  0.00    +0.000 C 
ENDROOT
BRANCH   1   2
ATOM      2  C   UNL     1       6.629   4.322  14.967  0.00  0.00    +0.000 A 
ATOM      3  C   UNL     1       5.681   3.620  14.195  0.00  0.00    +0.000 A 
ATOM      4  C   UNL     1       5.775   3.562  12.797  0.00  0.00    +0.000 A 
ATOM      5  C   UNL     1       6.805   4.223  12.136  0.00  0.00    +0.000 A 
ATOM      6  C   UNL     1       7.726   4.961  12.870  0.00  0.00    +0.000 A 
ATOM      7  C   UNL     1       7.619   5.027  14.262  0.00  0.00    +0.000 A 
ENDBRANCH   1   2
BRANCH   1  11
ATOM      8  N   UNL     1       7.642   7.559  17.735  0.00  0.00    +0.000 N 
ATOM      9  N   UNL     1       6.590   8.015  17.034  0.00  0.00    +0.000 NA
ATOM     10  N   UNL     1       6.070   6.935  16.470  0.00  0.00    +0.000 NA
ATOM     11  C   UNL     1       6.860   5.875  16.855  0.00  0.00    +0.000 A 
ATOM     12  N   UNL     1       7.867   6.237  17.666  0.00  0.00    +0.000 NA
BRANCH   8  13
ATOM     13  C   UNL     1       8.504   8.438  18.488  0.00  0.00    +0.000 C 
BRANCH  13  14
ATOM     14  C   UNL     1       8.297   9.894  18.084  0.00  0.00    +0.000 C 
BRANCH  14  15
ATOM     15  C   UNL     1       9.558  10.722  18.326  0.00  0.00    +0.000 C 
BRANCH  15  16
ATOM     16  C   UNL     1       9.237  12.213  18.256  0.00  0.00    +0.000 C 
BRANCH  16  17
ATOM     17  C   UNL     1       9.329  12.869  19.630  0.00  0.00    +0.000 C 
BRANCH  17  18
ATOM     18  C   UNL     1       9.235  14.389  19.508  0.00  0.00    +0.000 C 
BRANCH  18  19
ATOM     19  C   UNL     1       8.866  14.810  18.088  0.00  0.00    +0.000 C 
BRANCH  19  20
ATOM     20  C   UNL     1       8.018  16.081  18.100  0.00  0.00    +0.000 C 
BRANCH  20  21
ATOM     21  C   UNL     1       6.612  15.800  18.625  0.00  0.00    +0.000 C 
BRANCH  21  22
ATOM     22  C   UNL     1       5.954  14.661  17.846  0.00  0.00    +0.000 C 
BRANCH  22  24
ATOM     23  C   UNL     1       4.070  15.100  19.452  0.00  0.00    +0.000 C 
ATOM     24  C   UNL     1       4.440  14.659  18.045  0.00  0.00    +0.000 C 
ENDBRANCH  22  24
ENDBRANCH  21  22
ENDBRANCH  20  21
ENDBRANCH  19  20
ENDBRANCH  18  19
ENDBRANCH  17  18
ENDBRANCH  16  17
ENDBRANCH  15  16
ENDBRANCH  14  15
ENDBRANCH  13  14
ENDBRANCH   8  13
ENDBRANCH   1  11
BRANCH   1  25
ATOM     25  N   UNL     1       5.197   4.255  17.018  0.00  0.00    +0.000 N 
ATOM     26  C   UNL     1       4.971   4.003  18.347  0.00  0.00    +0.000 C 
ATOM     27  O   UNL     1       5.886   3.993  19.156  0.00  0.00    +0.000 OA
ATOM     28  H   UNL     1       4.439   4.496  16.393  0.00  0.00    +0.000 HD
BRANCH  26  29
ATOM     29  C   UNL     1       3.553   3.746  18.763  0.00  0.00    +0.000 A 
ATOM     30  C   UNL     1       3.028   2.433  18.858  0.00  0.00    +0.000 A 
ATOM     31  C   UNL     1       3.741   1.146  18.548  0.00  0.00    +0.000 C 
ATOM     32  C   UNL     1       1.708   2.263  19.314  0.00  0.00    +0.000 A 
ATOM     33  C   UNL     1       0.924   3.341  19.708  0.00  0.00    +0.000 A 
ATOM     34  C   UNL     1       1.443   4.627  19.629  0.00  0.00    +0.000 A 
ATOM     35  C   UNL     1       2.745   4.853  19.154  0.00  0.00    +0.000 A 
ATOM     36  C   UNL     1       3.207   6.287  19.087  0.00  0.00    +0.000 C 
ENDBRANCH  26  29
ENDBRANCH   1  25
TORSDOF 15
ENDMDL
MODEL 4
REMARK VINA RESULT:      -7.4      1.083      1.982
REMARK  Name = 
REMARK  18 active torsions:
REMARK  status: ('A' for Active; 'I' for Inactive)
REMARK    1  A    between atoms: C_1  and  C_2
REMARK    2  A    between atoms: C_2  and  C_3
REMARK    3  A    between atoms: C_3  and  C_4
REMARK    4  A    between atoms: C_4  and  C_5
REMARK    5  A    between atoms: C_5  and  C_6
REMARK    6  A    between atoms: C_6  and  C_7
REMARK    7  A    between atoms: C_7  and  C_8
REMARK    8  A    between atoms: C_8  and  C_9
REMARK    9  A    between atoms: C_9  and  C_10
REMARK   10  A    between atoms: C_10  and  C_11
REMARK   11  A    between atoms: C_11  and  C_12
REMARK   12  A    between atoms: C_12  and  N_13
REMARK   13  A    between atoms: C_16  and  C_17
REMARK   14  A    between atoms: C_17  and  N_18
REMARK   15  A    between atoms: C_17  and  C_29
REMARK   16  A    between atoms: C_19  and  C_21
REMARK   17  A    between atoms: C_22  and  C_23
REMARK   18  A    between atoms: C_27  and  C_28
REMARK                            x       y       z     vdW  Elec       q    Type
REMARK                         _______ _______ _______ _____ _____    ______ ____
ROOT
ATOM      1  C   UNL     1       6.511   4.355  16.394  0.00  0.00    +0.000 C 
ENDROOT
BRANCH   1   2
ATOM      2  C   UNL     1       6.612   4.264  14.870  0.00  0.00    +0.000 A 
ATOM      3  C   UNL     1       5.686   3.560  14.074  0.00  0.00    +0.000 A 
ATOM      4  C   UNL     1       5.785   3.544  12.676  0.00  0.00    +0.000 A 
ATOM      5  C   UNL     1       6.800   4.251  12.039  0.00  0.00    +0.000 A 
ATOM      6  C   UNL     1       7.699   4.992  12.797  0.00  0.00    +0.000 A 
ATOM      7  C   UNL     1       7.585   5.015  14.190  0.00  0.00    +0.000 A 
ENDBRANCH   1   2
BRANCH   1  11
ATOM      8  N   UNL     1       7.624   7.406  17.752  0.00  0.00    +0.000 N 
ATOM      9  N   UNL     1       6.599   7.894  17.035  0.00  0.00    +0.000 NA
ATOM     10  N   UNL     1       6.079   6.837  16.428  0.00  0.00    +0.000 NA
ATOM     11  C   UNL     1       6.843   5.756  16.807  0.00  0.00    +0.000 A 
ATOM     12  N   UNL     1       7.833   6.082  17.654  0.00  0.00    +0.000 NA
BRANCH   8  13
ATOM     13  C   UNL     1       8.477   8.252  18.551  0.00  0.00    +0.000 C 
BRANCH  13  14
ATOM     14  C   UNL     1       8.459   9.690  18.046  0.00  0.00    +0.000 C 
BRANCH  14  15
ATOM     15  C   UNL     1       9.447  10.563  18.817  0.00  0.00    +0.000 C 
BRANCH  15  16
ATOM     16  C   UNL     1       9.988  11.675  17.920  0.00  0.00    +0.000 C 
BRANCH  16  17
ATOM     17  C   UNL     1      10.172  12.977  18.694  0.00  0.00    +0.000 C 
BRANCH  17  18
ATOM     18  C   UNL     1       9.910  14.180  17.792  0.00  0.00    +0.000 C 
BRANCH  18  19
ATOM     19  C   UNL     1      10.881  15.319  18.088  0.00  0.00    +0.000 C 
BRANCH  19  20
ATOM     20  C   UNL     1      10.255  16.671  17.750  0.00  0.00    +0.000 C 
BRANCH  20  21
ATOM     21  C   UNL     1       8.781  16.710  18.146  0.00  0.00    +0.000 C 
BRANCH  21  22
ATOM     22  C   UNL     1       8.602  17.329  19.532  0.00  0.00    +0.000 C 
BRANCH  22  24
ATOM     23  C   UNL     1       7.070  15.351  19.779  0.00  0.00    +0.000 C 
ATOM     24  C   UNL     1       7.974  16.333  20.505  0.00  0.00    +0.000 C 
ENDBRANCH  22  24
ENDBRANCH  21  22
ENDBRANCH  20  21
ENDBRANCH  19  20
ENDBRANCH  18  19
ENDBRANCH  17  18
ENDBRANCH  16  17
ENDBRANCH  15  16
ENDBRANCH  14  15
ENDBRANCH  13  14
ENDBRANCH   8  13
ENDBRANCH   1  11
BRANCH   1  25
ATOM     25  N   UNL     1       5.165   4.147  16.909  0.00  0.00    +0.000 N 
ATOM     26  C   UNL     1       4.919   3.960  18.245  0.00  0.00    +0.000 C 
ATOM     27  O   UNL     1       5.817   4.015  19.071  0.00  0.00    +0.000 OA
ATOM     28  H   UNL     1       4.415   4.336  16.258  0.00  0.00    +0.000 HD
BRANCH  26  29
ATOM     29  C   UNL     1       3.499   3.691  18.647  0.00  0.00    +0.000 A 
ATOM     30  C   UNL     1       2.985   2.373  18.742  0.00  0.00    +0.000 A 
ATOM     31  C   UNL     1       3.714   1.092  18.446  0.00  0.00    +0.000 C 
ATOM     32  C   UNL     1       1.662   2.192  19.186  0.00  0.00    +0.000 A 
ATOM     33  C   UNL     1       0.865   3.264  19.567  0.00  0.00    +0.000 A 
ATOM     34  C   UNL     1       1.371   4.555  19.488  0.00  0.00    +0.000 A 
ATOM     35  C   UNL     1       2.676   4.792  19.025  0.00  0.00    +0.000 A 
ATOM     36  C   UNL     1       3.125   6.229  18.957  0.00  0.00    +0.000 C 
ENDBRANCH  26  29
ENDBRANCH   1  25
TORSDOF 15
ENDMDL
MODEL 5
REMARK VINA RESULT:      -7.1      1.323      2.722
REMARK  Name = 
REMARK  18 active torsions:
REMARK  status: ('A' for Active; 'I' for Inactive)
REMARK    1  A    between atoms: C_1  and  C_2
REMARK    2  A    between atoms: C_2  and  C_3
REMARK    3  A    between atoms: C_3  and  C_4
REMARK    4  A    between atoms: C_4  and  C_5
REMARK    5  A    between atoms: C_5  and  C_6
REMARK    6  A    between atoms: C_6  and  C_7
REMARK    7  A    between atoms: C_7  and  C_8
REMARK    8  A    between atoms: C_8  and  C_9
REMARK    9  A    between atoms: C_9  and  C_10
REMARK   10  A    between atoms: C_10  and  C_11
REMARK   11  A    between atoms: C_11  and  C_12
REMARK   12  A    between atoms: C_12  and  N_13
REMARK   13  A    between atoms: C_16  and  C_17
REMARK   14  A    between atoms: C_17  and  N_18
REMARK   15  A    between atoms: C_17  and  C_29
REMARK   16  A    between atoms: C_19  and  C_21
REMARK   17  A    between atoms: C_22  and  C_23
REMARK   18  A    between atoms: C_27  and  C_28
REMARK                            x       y       z     vdW  Elec       q    Type
REMARK                         _______ _______ _______ _____ _____    ______ ____
ROOT
ATOM      1  C   UNL     1       6.517   4.508  16.332  0.00  0.00    +0.000 C 
ENDROOT
BRANCH   1   2
ATOM      2  C   UNL     1       6.598   4.434  14.806  0.00  0.00    +0.000 A 
ATOM      3  C   UNL     1       7.591   5.090  14.050  0.00  0.00    +0.000 A 
ATOM      4  C   UNL     1       7.659   4.954  12.656  0.00  0.00    +0.000 A 
ATOM      5  C   UNL     1       6.749   4.142  11.987  0.00  0.00    +0.000 A 
ATOM      6  C   UNL     1       5.789   3.448  12.713  0.00  0.00    +0.000 A 
ATOM      7  C   UNL     1       5.736   3.575  14.104  0.00  0.00    +0.000 A 
ENDBRANCH   1   2
BRANCH   1  11
ATOM      8  N   UNL     1       7.637   7.556  17.689  0.00  0.00    +0.000 N 
ATOM      9  N   UNL     1       6.563   8.035  17.039  0.00  0.00    +0.000 NA
ATOM     10  N   UNL     1       6.034   6.979  16.441  0.00  0.00    +0.000 NA
ATOM     11  C   UNL     1       6.841   5.908  16.755  0.00  0.00    +0.000 A 
ATOM     12  N   UNL     1       7.868   6.240  17.553  0.00  0.00    +0.000 NA
BRANCH   8  13
ATOM     13  C   UNL     1       8.514   8.406  18.458  0.00  0.00    +0.000 C 
BRANCH  13  14
ATOM     14  C   UNL     1       8.267   9.879  18.149  0.00  0.00    +0.000 C 
BRANCH  14  15
ATOM     15  C   UNL     1       9.573  10.670  18.136  0.00  0.00    +0.000 C 
BRANCH  15  16
ATOM     16  C   UNL     1       9.382  12.024  18.817  0.00  0.00    +0.000 C 
BRANCH  16  17
ATOM     17  C   UNL     1      10.631  12.446  19.583  0.00  0.00    +0.000 C 
BRANCH  17  18
ATOM     18  C   UNL     1      10.255  13.265  20.816  0.00  0.00    +0.000 C 
BRANCH  18  19
ATOM     19  C   UNL     1       9.526  12.411  21.849  0.00  0.00    +0.000 C 
BRANCH  19  20
ATOM     20  C   UNL     1       8.270  13.120  22.354  0.00  0.00    +0.000 C 
BRANCH  20  21
ATOM     21  C   UNL     1       8.354  13.387  23.855  0.00  0.00    +0.000 C 
BRANCH  21  22
ATOM     22  C   UNL     1       7.783  14.762  24.200  0.00  0.00    +0.000 C 
BRANCH  22  24
ATOM     23  C   UNL     1       6.438  16.634  23.194  0.00  0.00    +0.000 C 
ATOM     24  C   UNL     1       7.495  15.572  22.937  0.00  0.00    +0.000 C 
ENDBRANCH  22  24
ENDBRANCH  21  22
ENDBRANCH  20  21
ENDBRANCH  19  20
ENDBRANCH  18  19
ENDBRANCH  17  18
ENDBRANCH  16  17
ENDBRANCH  15  16
ENDBRANCH  14  15
ENDBRANCH  13  14
ENDBRANCH   8  13
ENDBRANCH   1  11
BRANCH   1  25
ATOM     25  N   UNL     1       5.181   4.281  16.863  0.00  0.00    +0.000 N 
ATOM     26  C   UNL     1       4.959   4.037  18.194  0.00  0.00    +0.000 C 
ATOM     27  O   UNL     1       5.873   4.054  19.004  0.00  0.00    +0.000 OA
ATOM     28  H   UNL     1       4.419   4.500  16.235  0.00  0.00    +0.000 HD
BRANCH  26  29
ATOM     29  C   UNL     1       3.546   3.754  18.612  0.00  0.00    +0.000 A 
ATOM     30  C   UNL     1       3.015   2.440  18.612  0.00  0.00    +0.000 A 
ATOM     31  C   UNL     1       3.717   1.178  18.191  0.00  0.00    +0.000 C 
ATOM     32  C   UNL     1       1.702   2.240  19.075  0.00  0.00    +0.000 A 
ATOM     33  C   UNL     1       0.931   3.287  19.565  0.00  0.00    +0.000 A 
ATOM     34  C   UNL     1       1.455   4.573  19.578  0.00  0.00    +0.000 A 
ATOM     35  C   UNL     1       2.751   4.830  19.101  0.00  0.00    +0.000 A 
ATOM     36  C   UNL     1       3.220   6.263  19.140  0.00  0.00    +0.000 C 
ENDBRANCH  26  29
ENDBRANCH   1  25
TORSDOF 15
ENDMDL
MODEL 6
REMARK VINA RESULT:      -7.1      0.958      1.969
REMARK  Name = 
REMARK  18 active torsions:
REMARK  status: ('A' for Active; 'I' for Inactive)
REMARK    1  A    between atoms: C_1  and  C_2
REMARK    2  A    between atoms: C_2  and  C_3
REMARK    3  A    between atoms: C_3  and  C_4
REMARK    4  A    between atoms: C_4  and  C_5
REMARK    5  A    between atoms: C_5  and  C_6
REMARK    6  A    between atoms: C_6  and  C_7
REMARK    7  A    between atoms: C_7  and  C_8
REMARK    8  A    between atoms: C_8  and  C_9
REMARK    9  A    between atoms: C_9  and  C_10
REMARK   10  A    between atoms: C_10  and  C_11
REMARK   11  A    between atoms: C_11  and  C_12
REMARK   12  A    between atoms: C_12  and  N_13
REMARK   13  A    between atoms: C_16  and  C_17
REMARK   14  A    between atoms: C_17  and  N_18
REMARK   15  A    between atoms: C_17  and  C_29
REMARK   16  A    between atoms: C_19  and  C_21
REMARK   17  A    between atoms: C_22  and  C_23
REMARK   18  A    between atoms: C_27  and  C_28
REMARK                            x       y       z     vdW  Elec       q    Type
REMARK                         _______ _______ _______ _____ _____    ______ ____
ROOT
ATOM      1  C   UNL     1       6.501   4.580  16.443  0.00  0.00    +0.000 C 
ENDROOT
BRANCH   1   2
ATOM      2  C   UNL     1       6.569   4.453  14.919  0.00  0.00    +0.000 A 
ATOM      3  C   UNL     1       7.561   5.075  14.135  0.00  0.00    +0.000 A 
ATOM      4  C   UNL     1       7.618   4.891  12.746  0.00  0.00    +0.000 A 
ATOM      5  C   UNL     1       6.698   4.063  12.112  0.00  0.00    +0.000 A 
ATOM      6  C   UNL     1       5.738   3.401  12.868  0.00  0.00    +0.000 A 
ATOM      7  C   UNL     1       5.696   3.577  14.254  0.00  0.00    +0.000 A 
ENDBRANCH   1   2
BRANCH   1  11
ATOM      8  N   UNL     1       7.535   7.715  17.661  0.00  0.00    +0.000 N 
ATOM      9  N   UNL     1       6.412   8.125  17.049  0.00  0.00    +0.000 NA
ATOM     10  N   UNL     1       5.907   7.028  16.505  0.00  0.00    +0.000 NA
ATOM     11  C   UNL     1       6.777   6.005  16.811  0.00  0.00    +0.000 A 
ATOM     12  N   UNL     1       7.822   6.407  17.551  0.00  0.00    +0.000 NA
BRANCH   8  13
ATOM     13  C   UNL     1       8.404   8.627  18.365  0.00  0.00    +0.000 C 
BRANCH  13  14
ATOM     14  C   UNL     1       8.615   9.913  17.573  0.00  0.00    +0.000 C 
BRANCH  14  15
ATOM     15  C   UNL     1       8.987  11.076  18.489  0.00  0.00    +0.000 C 
BRANCH  15  16
ATOM     16  C   UNL     1       9.487  10.555  19.835  0.00  0.00    +0.000 C 
BRANCH  16  17
ATOM     17  C   UNL     1      10.742  11.293  20.289  0.00  0.00    +0.000 C 
BRANCH  17  18
ATOM     18  C   UNL     1      10.398  12.709  20.745  0.00  0.00    +0.000 C 
BRANCH  18  19
ATOM     19  C   UNL     1      11.206  13.752  19.977  0.00  0.00    +0.000 C 
BRANCH  19  20
ATOM     20  C   UNL     1      10.381  15.017  19.746  0.00  0.00    +0.000 C 
BRANCH  20  21
ATOM     21  C   UNL     1      10.803  16.132  20.700  0.00  0.00    +0.000 C 
BRANCH  21  22
ATOM     22  C   UNL     1      11.268  17.366  19.928  0.00  0.00    +0.000 C 
BRANCH  22  24
ATOM     23  C   UNL     1      11.562  17.833  17.475  0.00  0.00    +0.000 C 
ATOM     24  C   UNL     1      12.002  16.972  18.648  0.00  0.00    +0.000 C 
ENDBRANCH  22  24
ENDBRANCH  21  22
ENDBRANCH  20  21
ENDBRANCH  19  20
ENDBRANCH  18  19
ENDBRANCH  17  18
ENDBRANCH  16  17
ENDBRANCH  15  16
ENDBRANCH  14  15
ENDBRANCH  13  14
ENDBRANCH   8  13
ENDBRANCH   1  11
BRANCH   1  25
ATOM     25  N   UNL     1       5.179   4.324  16.996  0.00  0.00    +0.000 N 
ATOM     26  C   UNL     1       4.992   4.007  18.317  0.00  0.00    +0.000 C 
ATOM     27  O   UNL     1       5.927   3.980  19.102  0.00  0.00    +0.000 OA
ATOM     28  H   UNL     1       4.400   4.577  16.402  0.00  0.00    +0.000 HD
BRANCH  26  29
ATOM     29  C   UNL     1       3.590   3.702  18.757  0.00  0.00    +0.000 A 
ATOM     30  C   UNL     1       2.695   4.723  19.163  0.00  0.00    +0.000 A 
ATOM     31  C   UNL     1       2.980   6.196  19.253  0.00  0.00    +0.000 C 
ATOM     32  C   UNL     1       1.376   4.371  19.504  0.00  0.00    +0.000 A 
ATOM     33  C   UNL     1       0.922   3.061  19.415  0.00  0.00    +0.000 A 
ATOM     34  C   UNL     1       1.794   2.062  19.002  0.00  0.00    +0.000 A 
ATOM     35  C   UNL     1       3.128   2.356  18.678  0.00  0.00    +0.000 A 
ATOM     36  C   UNL     1       4.000   1.199  18.261  0.00  0.00    +0.000 C 
ENDBRANCH  26  29
ENDBRANCH   1  25
TORSDOF 15
ENDMDL
MODEL 7
REMARK VINA RESULT:      -7.0      6.424     11.491
REMARK  Name = 
REMARK  18 active torsions:
REMARK  status: ('A' for Active; 'I' for Inactive)
REMARK    1  A    between atoms: C_1  and  C_2
REMARK    2  A    between atoms: C_2  and  C_3
REMARK    3  A    between atoms: C_3  and  C_4
REMARK    4  A    between atoms: C_4  and  C_5
REMARK    5  A    between atoms: C_5  and  C_6
REMARK    6  A    between atoms: C_6  and  C_7
REMARK    7  A    between atoms: C_7  and  C_8
REMARK    8  A    between atoms: C_8  and  C_9
REMARK    9  A    between atoms: C_9  and  C_10
REMARK   10  A    between atoms: C_10  and  C_11
REMARK   11  A    between atoms: C_11  and  C_12
REMARK   12  A    between atoms: C_12  and  N_13
REMARK   13  A    between atoms: C_16  and  C_17
REMARK   14  A    between atoms: C_17  and  N_18
REMARK   15  A    between atoms: C_17  and  C_29
REMARK   16  A    between atoms: C_19  and  C_21
REMARK   17  A    between atoms: C_22  and  C_23
REMARK   18  A    between atoms: C_27  and  C_28
REMARK                            x       y       z     vdW  Elec       q    Type
REMARK                         _______ _______ _______ _____ _____    ______ ____
ROOT
ATOM      1  C   UNL     1      -0.538  11.690  19.488  0.00  0.00    +0.000 C 
ENDROOT
BRANCH   1   2
ATOM      2  C   UNL     1      -1.889  11.335  18.864  0.00  0.00    +0.000 A 
ATOM      3  C   UNL     1      -2.092  10.199  18.053  0.00  0.00    +0.000 A 
ATOM      4  C   UNL     1      -3.359   9.882  17.543  0.00  0.00    +0.000 A 
ATOM      5  C   UNL     1      -4.456  10.680  17.847  0.00  0.00    +0.000 A 
ATOM      6  C   UNL     1      -4.292  11.780  18.681  0.00  0.00    +0.000 A 
ATOM      7  C   UNL     1      -3.030  12.082  19.200  0.00  0.00    +0.000 A 
ENDBRANCH   1   2
BRANCH   1  11
ATOM      8  N   UNL     1       1.657   9.135  18.469  0.00  0.00    +0.000 N 
ATOM      9  N   UNL     1       1.365   8.643  19.684  0.00  0.00    +0.000 NA
ATOM     10  N   UNL     1       0.541   9.533  20.218  0.00  0.00    +0.000 NA
ATOM     11  C   UNL     1       0.395  10.536  19.285  0.00  0.00    +0.000 A 
ATOM     12  N   UNL     1       1.088  10.312  18.158  0.00  0.00    +0.000 NA
BRANCH   8  13
ATOM     13  C   UNL     1       2.557   8.463  17.563  0.00  0.00    +0.000 C 
BRANCH  13  14
ATOM     14  C   UNL     1       3.237   7.277  18.238  0.00  0.00    +0.000 C 
BRANCH  14  15
ATOM     15  C   UNL     1       4.408   6.760  17.405  0.00  0.00    +0.000 C 
BRANCH  15  16
ATOM     16  C   UNL     1       5.225   5.747  18.204  0.00  0.00    +0.000 C 
BRANCH  16  17
ATOM     17  C   UNL     1       4.349   4.969  19.181  0.00  0.00    +0.000 C 
BRANCH  17  18
ATOM     18  C   UNL     1       4.305   3.490  18.803  0.00  0.00    +0.000 C 
BRANCH  18  19
ATOM     19  C   UNL     1       3.214   3.213  17.772  0.00  0.00    +0.000 C 
BRANCH  19  20
ATOM     20  C   UNL     1       2.341   2.036  18.206  0.00  0.00    +0.000 C 
BRANCH  20  21
ATOM     21  C   UNL     1       0.939   2.502  18.588  0.00  0.00    +0.000 C 
BRANCH  21  22
ATOM     22  C   UNL     1       0.990   3.504  19.741  0.00  0.00    +0.000 C 
BRANCH  22  24
ATOM     23  C   UNL     1       2.302   3.408  21.884  0.00  0.00    +0.000 C 
ATOM     24  C   UNL     1       1.166   2.793  21.082  0.00  0.00    +0.000 C 
ENDBRANCH  22  24
ENDBRANCH  21  22
ENDBRANCH  20  21
ENDBRANCH  19  20
ENDBRANCH  18  19
ENDBRANCH  17  18
ENDBRANCH  16  17
ENDBRANCH  15  16
ENDBRANCH  14  15
ENDBRANCH  13  14
ENDBRANCH   8  13
ENDBRANCH   1  11
BRANCH   1  25
ATOM     25  N   UNL     1       0.136  12.805  18.838  0.00  0.00    +0.000 N 
ATOM     26  C   UNL     1       0.773  13.786  19.553  0.00  0.00    +0.000 C 
ATOM     27  O   UNL     1       0.849  13.737  20.771  0.00  0.00    +0.000 OA
ATOM     28  H   UNL     1       0.269  12.712  17.840  0.00  0.00    +0.000 HD
BRANCH  26  29
ATOM     29  C   UNL     1       1.376  14.918  18.775  0.00  0.00    +0.000 A 
ATOM     30  C   UNL     1       0.716  16.165  18.636  0.00  0.00    +0.000 A 
ATOM     31  C   UNL     1      -0.633  16.543  19.181  0.00  0.00    +0.000 C 
ATOM     32  C   UNL     1       1.368  17.203  17.944  0.00  0.00    +0.000 A 
ATOM     33  C   UNL     1       2.650  17.048  17.432  0.00  0.00    +0.000 A 
ATOM     34  C   UNL     1       3.303  15.832  17.580  0.00  0.00    +0.000 A 
ATOM     35  C   UNL     1       2.686  14.755  18.237  0.00  0.00    +0.000 A 
ATOM     36  C   UNL     1       3.470  13.471  18.328  0.00  0.00    +0.000 C 
ENDBRANCH  26  29
ENDBRANCH   1  25
TORSDOF 15
ENDMDL
MODEL 8
REMARK VINA RESULT:      -6.9      6.550     11.462
REMARK  Name = 
REMARK  18 active torsions:
REMARK  status: ('A' for Active; 'I' for Inactive)
REMARK    1  A    between atoms: C_1  and  C_2
REMARK    2  A    between atoms: C_2  and  C_3
REMARK    3  A    between atoms: C_3  and  C_4
REMARK    4  A    between atoms: C_4  and  C_5
REMARK    5  A    between atoms: C_5  and  C_6
REMARK    6  A    between atoms: C_6  and  C_7
REMARK    7  A    between atoms: C_7  and  C_8
REMARK    8  A    between atoms: C_8  and  C_9
REMARK    9  A    between atoms: C_9  and  C_10
REMARK   10  A    between atoms: C_10  and  C_11
REMARK   11  A    between atoms: C_11  and  C_12
REMARK   12  A    between atoms: C_12  and  N_13
REMARK   13  A    between atoms: C_16  and  C_17
REMARK   14  A    between atoms: C_17  and  N_18
REMARK   15  A    between atoms: C_17  and  C_29
REMARK   16  A    between atoms: C_19  and  C_21
REMARK   17  A    between atoms: C_22  and  C_23
REMARK   18  A    between atoms: C_27  and  C_28
REMARK                            x       y       z     vdW  Elec       q    Type
REMARK                         _______ _______ _______ _____ _____    ______ ____
ROOT
ATOM      1  C   UNL     1      -1.165  11.574  19.209  0.00  0.00    +0.000 C 
ENDROOT
BRANCH   1   2
ATOM      2  C   UNL     1      -2.212  11.153  18.176  0.00  0.00    +0.000 A 
ATOM      3  C   UNL     1      -3.473  11.771  18.056  0.00  0.00    +0.000 A 
ATOM      4  C   UNL     1      -4.384  11.389  17.060  0.00  0.00    +0.000 A 
ATOM      5  C   UNL     1      -4.046  10.395  16.148  0.00  0.00    +0.000 A 
ATOM      6  C   UNL     1      -2.792   9.801  16.215  0.00  0.00    +0.000 A 
ATOM      7  C   UNL     1      -1.882  10.198  17.201  0.00  0.00    +0.000 A 
ENDBRANCH   1   2
BRANCH   1  11
ATOM      8  N   UNL     1       0.994   8.932  20.072  0.00  0.00    +0.000 N 
ATOM      9  N   UNL     1       1.591   9.281  18.921  0.00  0.00    +0.000 NA
ATOM     10  N   UNL     1       0.858  10.278  18.450  0.00  0.00    +0.000 NA
ATOM     11  C   UNL     1      -0.168  10.466  19.350  0.00  0.00    +0.000 A 
ATOM     12  N   UNL     1      -0.108   9.629  20.398  0.00  0.00    +0.000 NA
BRANCH   8  13
ATOM     13  C   UNL     1       1.478   7.850  20.895  0.00  0.00    +0.000 C 
BRANCH  13  14
ATOM     14  C   UNL     1       1.972   6.686  20.042  0.00  0.00    +0.000 C 
BRANCH  14  15
ATOM     15  C   UNL     1       1.988   5.383  20.837  0.00  0.00    +0.000 C 
BRANCH  15  16
ATOM     16  C   UNL     1       0.941   4.413  20.292  0.00  0.00    +0.000 C 
BRANCH  16  17
ATOM     17  C   UNL     1       1.331   2.962  20.558  0.00  0.00    +0.000 C 
BRANCH  17  18
ATOM     18  C   UNL     1       1.559   2.218  19.244  0.00  0.00    +0.000 C 
BRANCH  18  19
ATOM     19  C   UNL     1       2.930   2.537  18.655  0.00  0.00    +0.000 C 
BRANCH  19  20
ATOM     20  C   UNL     1       2.792   3.237  17.304  0.00  0.00    +0.000 C 
BRANCH  20  21
ATOM     21  C   UNL     1       4.132   3.802  16.837  0.00  0.00    +0.000 C 
BRANCH  21  22
ATOM     22  C   UNL     1       4.714   4.760  17.875  0.00  0.00    +0.000 C 
BRANCH  22  24
ATOM     23  C   UNL     1       5.056   6.531  16.123  0.00  0.00    +0.000 C 
ATOM     24  C   UNL     1       4.461   6.216  17.485  0.00  0.00    +0.000 C 
ENDBRANCH  22  24
ENDBRANCH  21  22
ENDBRANCH  20  21
ENDBRANCH  19  20
ENDBRANCH  18  19
ENDBRANCH  17  18
ENDBRANCH  16  17
ENDBRANCH  15  16
ENDBRANCH  14  15
ENDBRANCH  13  14
ENDBRANCH   8  13
ENDBRANCH   1  11
BRANCH   1  25
ATOM     25  N   UNL     1      -0.363  12.719  18.802  0.00  0.00    +0.000 N 
ATOM     26  C   UNL     1       0.290  13.510  19.712  0.00  0.00    +0.000 C 
ATOM     27  O   UNL     1       0.272  13.253  20.906  0.00  0.00    +0.000 OA
ATOM     28  H   UNL     1      -0.164  12.783  17.812  0.00  0.00    +0.000 HD
BRANCH  26  29
ATOM     29  C   UNL     1       1.033  14.699  19.178  0.00  0.00    +0.000 A 
ATOM     30  C   UNL     1       2.288  14.568  18.532  0.00  0.00    +0.000 A 
ATOM     31  C   UNL     1       3.066  13.301  18.310  0.00  0.00    +0.000 C 
ATOM     32  C   UNL     1       2.900  15.718  18.000  0.00  0.00    +0.000 A 
ATOM     33  C   UNL     1       2.289  16.965  18.058  0.00  0.00    +0.000 A 
ATOM     34  C   UNL     1       1.052  17.092  18.677  0.00  0.00    +0.000 A 
ATOM     35  C   UNL     1       0.412  15.980  19.249  0.00  0.00    +0.000 A 
ATOM     36  C   UNL     1      -0.917  16.225  19.916  0.00  0.00    +0.000 C 
ENDBRANCH  26  29
ENDBRANCH   1  25
TORSDOF 15
ENDMDL
MODEL 9
REMARK VINA RESULT:      -6.9      6.781     11.153
REMARK  Name = 
REMARK  18 active torsions:
REMARK  status: ('A' for Active; 'I' for Inactive)
REMARK    1  A    between atoms: C_1  and  C_2
REMARK    2  A    between atoms: C_2  and  C_3
REMARK    3  A    between atoms: C_3  and  C_4
REMARK    4  A    between atoms: C_4  and  C_5
REMARK    5  A    between atoms: C_5  and  C_6
REMARK    6  A    between atoms: C_6  and  C_7
REMARK    7  A    between atoms: C_7  and  C_8
REMARK    8  A    between atoms: C_8  and  C_9
REMARK    9  A    between atoms: C_9  and  C_10
REMARK   10  A    between atoms: C_10  and  C_11
REMARK   11  A    between atoms: C_11  and  C_12
REMARK   12  A    between atoms: C_12  and  N_13
REMARK   13  A    between atoms: C_16  and  C_17
REMARK   14  A    between atoms: C_17  and  N_18
REMARK   15  A    between atoms: C_17  and  C_29
REMARK   16  A    between atoms: C_19  and  C_21
REMARK   17  A    between atoms: C_22  and  C_23
REMARK   18  A    between atoms: C_27  and  C_28
REMARK                            x       y       z     vdW  Elec       q    Type
REMARK                         _______ _______ _______ _____ _____    ______ ____
ROOT
ATOM      1  C   UNL     1      -1.397  10.688  19.322  0.00  0.00    +0.000 C 
ENDROOT
BRANCH   1   2
ATOM      2  C   UNL     1      -2.355  10.865  18.142  0.00  0.00    +0.000 A 
ATOM      3  C   UNL     1      -2.118  10.320  16.864  0.00  0.00    +0.000 A 
ATOM      4  C   UNL     1      -3.047  10.463  15.824  0.00  0.00    +0.000 A 
ATOM      5  C   UNL     1      -4.245  11.136  16.043  0.00  0.00    +0.000 A 
ATOM      6  C   UNL     1      -4.524  11.643  17.306  0.00  0.00    +0.000 A 
ATOM      7  C   UNL     1      -3.600  11.484  18.343  0.00  0.00    +0.000 A 
ENDBRANCH   1   2
BRANCH   1  11
ATOM      8  N   UNL     1       1.804   9.768  18.183  0.00  0.00    +0.000 N 
ATOM      9  N   UNL     1       1.997  11.097  18.199  0.00  0.00    +0.000 NA
ATOM     10  N   UNL     1       0.837  11.600  18.596  0.00  0.00    +0.000 NA
ATOM     11  C   UNL     1      -0.008  10.529  18.783  0.00  0.00    +0.000 A 
ATOM     12  N   UNL     1       0.577   9.347  18.534  0.00  0.00    +0.000 NA
BRANCH   8  13
ATOM     13  C   UNL     1       2.836   8.845  17.777  0.00  0.00    +0.000 C 
BRANCH  13  14
ATOM     14  C   UNL     1       2.414   7.401  18.023  0.00  0.00    +0.000 C 
BRANCH  14  15
ATOM     15  C   UNL     1       3.594   6.548  18.484  0.00  0.00    +0.000 C 
BRANCH  15  16
ATOM     16  C   UNL     1       4.517   6.234  17.308  0.00  0.00    +0.000 C 
BRANCH  16  17
ATOM     17  C   UNL     1       5.504   5.123  17.652  0.00  0.00    +0.000 C 
BRANCH  17  18
ATOM     18  C   UNL     1       4.768   3.900  18.196  0.00  0.00    +0.000 C 
BRANCH  18  19
ATOM     19  C   UNL     1       3.885   3.262  17.127  0.00  0.00    +0.000 C 
BRANCH  19  20
ATOM     20  C   UNL     1       2.732   2.489  17.764  0.00  0.00    +0.000 C 
BRANCH  20  21
ATOM     21  C   UNL     1       1.599   3.426  18.175  0.00  0.00    +0.000 C 
BRANCH  21  22
ATOM     22  C   UNL     1       0.691   2.766  19.212  0.00  0.00    +0.000 C 
BRANCH  22  24
ATOM     23  C   UNL     1       1.623   4.572  20.693  0.00  0.00    +0.000 C 
ATOM     24  C   UNL     1       1.112   3.142  20.632  0.00  0.00    +0.000 C 
ENDBRANCH  22  24
ENDBRANCH  21  22
ENDBRANCH  20  21
ENDBRANCH  19  20
ENDBRANCH  18  19
ENDBRANCH  17  18
ENDBRANCH  16  17
ENDBRANCH  15  16
ENDBRANCH  14  15
ENDBRANCH  13  14
ENDBRANCH   8  13
ENDBRANCH   1  11
BRANCH   1  25
ATOM     25  N   UNL     1      -1.306  11.855  20.187  0.00  0.00    +0.000 N 
ATOM     26  C   UNL     1      -0.918  11.759  21.499  0.00  0.00    +0.000 C 
ATOM     27  O   UNL     1      -0.577  10.692  21.984  0.00  0.00    +0.000 OA
ATOM     28  H   UNL     1      -1.360  12.751  19.720  0.00  0.00    +0.000 HD
BRANCH  26  29
ATOM     29  C   UNL     1      -0.924  13.023  22.309  0.00  0.00    +0.000 A 
ATOM     30  C   UNL     1       0.061  14.026  22.136  0.00  0.00    +0.000 A 
ATOM     31  C   UNL     1       1.233  13.995  21.194  0.00  0.00    +0.000 C 
ATOM     32  C   UNL     1      -0.041  15.213  22.886  0.00  0.00    +0.000 A 
ATOM     33  C   UNL     1      -1.100  15.439  23.757  0.00  0.00    +0.000 A 
ATOM     34  C   UNL     1      -2.074  14.461  23.916  0.00  0.00    +0.000 A 
ATOM     35  C   UNL     1      -2.003  13.248  23.212  0.00  0.00    +0.000 A 
ATOM     36  C   UNL     1      -3.097  12.244  23.471  0.00  0.00    +0.000 C 
ENDBRANCH  26  29
ENDBRANCH   1  25
TORSDOF 15
ENDMDL
