MODEL 1
REMARK VINA RESULT:      -8.7      0.000      0.000
REMARK  Name = 
REMARK  9 active torsions:
REMARK  status: ('A' for Active; 'I' for Inactive)
REMARK    1  A    between atoms: C_1  and  O_2
REMARK    2  A    between atoms: O_2  and  C_3
REMARK    3  A    between atoms: C_7  and  C_8
REMARK    4  A    between atoms: N_10  and  C_11
REMARK    5  A    between atoms: C_14  and  C_15
REMARK    6  A    between atoms: C_15  and  O_17
REMARK    7  A    between atoms: O_17  and  C_18
REMARK    8  A    between atoms: C_18  and  C_19
REMARK    9  A    between atoms: C_25  and  C_26
REMARK                            x       y       z     vdW  Elec       q    Type
REMARK                         _______ _______ _______ _____ _____    ______ ____
ROOT
ATOM      1  C   UNL     1       7.991   7.173  18.236  0.00  0.00    +0.000 A 
ATOM      2  C   UNL     1       7.654   6.013  18.935  0.00  0.00    +0.000 A 
ATOM      3  C   UNL     1       6.968   4.971  18.312  0.00  0.00    +0.000 A 
ATOM      4  C   UNL     1       6.589   5.071  16.970  0.00  0.00    +0.000 A 
ATOM      5  C   UNL     1       6.908   6.235  16.260  0.00  0.00    +0.000 A 
ATOM      6  C   UNL     1       7.596   7.286  16.895  0.00  0.00    +0.000 A 
ENDROOT
BRANCH   1   9
ATOM      7  C   UNL     1       8.618   9.566  18.454  0.00  0.00    +0.000 C 
ATOM      8  O   UNL     1       7.862  10.021  17.599  0.00  0.00    +0.000 OA
ATOM      9  N   UNL     1       8.714   8.234  18.833  0.00  0.00    +0.000 N 
ATOM     10  H   UNL     1       9.211   8.023  19.688  0.00  0.00    +0.000 HD
BRANCH   7  15
ATOM     11  C   UNL     1      11.220  12.188  19.314  0.00  0.00    +0.000 A 
ATOM     12  C   UNL     1      10.896  12.423  20.655  0.00  0.00    +0.000 A 
ATOM     13  C   UNL     1       9.851  11.734  21.267  0.00  0.00    +0.000 A 
ATOM     14  C   UNL     1       9.127  10.796  20.536  0.00  0.00    +0.000 A 
ATOM     15  C   UNL     1       9.452  10.544  19.195  0.00  0.00    +0.000 A 
ATOM     16  C   UNL     1      10.488  11.252  18.578  0.00  0.00    +0.000 A 
BRANCH  11  18
ATOM     17  C   UNL     1      11.940  13.978  17.927  0.00  0.00    +0.000 C 
ATOM     18  O   UNL     1      12.263  12.936  18.841  0.00  0.00    +0.000 OA
ENDBRANCH  11  18
ENDBRANCH   7  15
ENDBRANCH   1   9
BRANCH   4  19
ATOM     19  C   UNL     1       5.852   3.916  16.391  0.00  0.00    +0.000 C 
ATOM     20  O   UNL     1       5.989   3.564  15.229  0.00  0.00    +0.000 OA
BRANCH  19  21
ATOM     21  O   UNL     1       5.048   3.328  17.305  0.00  0.00    +0.000 OA
BRANCH  21  22
ATOM     22  C   UNL     1       3.642   3.575  17.130  0.00  0.00    +0.000 C 
BRANCH  22  23
ATOM     23  C   UNL     1       3.153   4.560  18.175  0.00  0.00    +0.000 A 
ATOM     24  C   UNL     1       2.919   4.144  19.431  0.00  0.00    +0.000 A 
ATOM     25  C   UNL     1       2.372   5.086  20.436  0.00  0.00    +0.000 A 
ATOM     26  O   UNL     1       2.133   4.694  21.578  0.00  0.00    +0.000 OA
ATOM     27  N   UNL     1       2.171   6.356  19.935  0.00  0.00    +0.000 N 
ATOM     28  N   UNL     1       1.643   7.366  20.708  0.00  0.00    +0.000 NA
ATOM     29  C   UNL     1       1.545   8.426  19.974  0.00  0.00    +0.000 A 
ATOM     30  S   UNL     1       2.085   8.334  18.325  0.00  0.00    +0.000 S 
ATOM     31  C   UNL     1       2.458   6.664  18.631  0.00  0.00    +0.000 A 
ATOM     32  N   UNL     1       2.926   5.854  17.744  0.00  0.00    +0.000 NA
BRANCH  29  33
ATOM     33  C   UNL     1       1.016   9.687  20.512  0.00  0.00    +0.000 C 
ATOM     34  C   UNL     1       0.660  10.839  19.600  0.00  0.00    +0.000 C 
ATOM     35  C   UNL     1      -0.431  10.062  20.274  0.00  0.00    +0.000 C 
ENDBRANCH  29  33
ENDBRANCH  22  23
ENDBRANCH  21  22
ENDBRANCH  19  21
ENDBRANCH   4  19
TORSDOF 8
ENDMDL
MODEL 2
REMARK VINA RESULT:      -8.3      1.026      1.639
REMARK  Name = 
REMARK  9 active torsions:
REMARK  status: ('A' for Active; 'I' for Inactive)
REMARK    1  A    between atoms: C_1  and  O_2
REMARK    2  A    between atoms: O_2  and  C_3
REMARK    3  A    between atoms: C_7  and  C_8
REMARK    4  A    between atoms: N_10  and  C_11
REMARK    5  A    between atoms: C_14  and  C_15
REMARK    6  A    between atoms: C_15  and  O_17
REMARK    7  A    between atoms: O_17  and  C_18
REMARK    8  A    between atoms: C_18  and  C_19
REMARK    9  A    between atoms: C_25  and  C_26
REMARK                            x       y       z     vdW  Elec       q    Type
REMARK                         _______ _______ _______ _____ _____    ______ ____
ROOT
ATOM      1  C   UNL     1       7.902   7.269  18.260  0.00  0.00    +0.000 A 
ATOM      2  C   UNL     1       8.089   5.939  18.640  0.00  0.00    +0.000 A 
ATOM      3  C   UNL     1       7.406   4.905  18.000  0.00  0.00    +0.000 A 
ATOM      4  C   UNL     1       6.505   5.180  16.968  0.00  0.00    +0.000 A 
ATOM      5  C   UNL     1       6.295   6.511  16.586  0.00  0.00    +0.000 A 
ATOM      6  C   UNL     1       6.984   7.552  17.239  0.00  0.00    +0.000 A 
ENDROOT
BRANCH   1   9
ATOM      7  C   UNL     1       8.618   9.643  18.400  0.00  0.00    +0.000 C 
ATOM      8  O   UNL     1       7.987  10.070  17.437  0.00  0.00    +0.000 OA
ATOM      9  N   UNL     1       8.604   8.336  18.870  0.00  0.00    +0.000 N 
ATOM     10  H   UNL     1       8.990   8.163  19.788  0.00  0.00    +0.000 HD
BRANCH   7  15
ATOM     11  C   UNL     1       9.830  11.960  21.147  0.00  0.00    +0.000 A 
ATOM     12  C   UNL     1      11.016  12.426  20.568  0.00  0.00    +0.000 A 
ATOM     13  C   UNL     1      11.408  11.994  19.303  0.00  0.00    +0.000 A 
ATOM     14  C   UNL     1      10.607  11.095  18.606  0.00  0.00    +0.000 A 
ATOM     15  C   UNL     1       9.410  10.632  19.171  0.00  0.00    +0.000 A 
ATOM     16  C   UNL     1       9.028  11.052  20.449  0.00  0.00    +0.000 A 
BRANCH  11  18
ATOM     17  C   UNL     1       8.592  13.494  22.474  0.00  0.00    +0.000 C 
ATOM     18  O   UNL     1       9.568  12.463  22.392  0.00  0.00    +0.000 OA
ENDBRANCH  11  18
ENDBRANCH   7  15
ENDBRANCH   1   9
BRANCH   4  19
ATOM     19  C   UNL     1       5.813   4.017  16.350  0.00  0.00    +0.000 C 
ATOM     20  O   UNL     1       6.048   3.641  15.211  0.00  0.00    +0.000 OA
BRANCH  19  21
ATOM     21  O   UNL     1       4.929   3.451  17.203  0.00  0.00    +0.000 OA
BRANCH  21  22
ATOM     22  C   UNL     1       3.557   3.833  17.003  0.00  0.00    +0.000 C 
BRANCH  22  23
ATOM     23  C   UNL     1       3.080   4.684  18.164  0.00  0.00    +0.000 A 
ATOM     24  C   UNL     1       2.847   4.117  19.360  0.00  0.00    +0.000 A 
ATOM     25  C   UNL     1       2.311   4.931  20.476  0.00  0.00    +0.000 A 
ATOM     26  O   UNL     1       2.073   4.401  21.562  0.00  0.00    +0.000 OA
ATOM     27  N   UNL     1       2.119   6.255  20.138  0.00  0.00    +0.000 N 
ATOM     28  N   UNL     1       1.602   7.164  21.033  0.00  0.00    +0.000 NA
ATOM     29  C   UNL     1       1.509   8.308  20.436  0.00  0.00    +0.000 A 
ATOM     30  S   UNL     1       2.043   8.418  18.786  0.00  0.00    +0.000 S 
ATOM     31  C   UNL     1       2.403   6.720  18.881  0.00  0.00    +0.000 A 
ATOM     32  N   UNL     1       2.862   6.022  17.898  0.00  0.00    +0.000 NA
BRANCH  29  33
ATOM     33  C   UNL     1       0.993   9.497  21.129  0.00  0.00    +0.000 C 
ATOM     34  C   UNL     1      -0.484   9.660  21.409  0.00  0.00    +0.000 C 
ATOM     35  C   UNL     1       0.457   9.375  22.540  0.00  0.00    +0.000 C 
ENDBRANCH  29  33
ENDBRANCH  22  23
ENDBRANCH  21  22
ENDBRANCH  19  21
ENDBRANCH   4  19
TORSDOF 8
ENDMDL
MODEL 3
REMARK VINA RESULT:      -8.1      4.698      9.814
REMARK  Name = 
REMARK  9 active torsions:
REMARK  status: ('A' for Active; 'I' for Inactive)
REMARK    1  A    between atoms: C_1  and  O_2
REMARK    2  A    between atoms: O_2  and  C_3
REMARK    3  A    between atoms: C_7  and  C_8
REMARK    4  A    between atoms: N_10  and  C_11
REMARK    5  A    between atoms: C_14  and  C_15
REMARK    6  A    between atoms: C_15  and  O_17
REMARK    7  A    between atoms: O_17  and  C_18
REMARK    8  A    between atoms: C_18  and  C_19
REMARK    9  A    between atoms: C_25  and  C_26
REMARK                            x       y       z     vdW  Elec       q    Type
REMARK                         _______ _______ _______ _____ _____    ______ ____
ROOT
ATOM      1  C   UNL     1      -0.096   9.908  20.927  0.00  0.00    +0.000 A 
ATOM      2  C   UNL     1       0.551   8.771  21.414  0.00  0.00    +0.000 A 
ATOM      3  C   UNL     1       1.422   8.037  20.608  0.00  0.00    +0.000 A 
ATOM      4  C   UNL     1       1.655   8.418  19.284  0.00  0.00    +0.000 A 
ATOM      5  C   UNL     1       1.001   9.548  18.777  0.00  0.00    +0.000 A 
ATOM      6  C   UNL     1       0.119  10.282  19.593  0.00  0.00    +0.000 A 
ENDROOT
BRANCH   1   9
ATOM      7  C   UNL     1      -0.669  11.967  22.191  0.00  0.00    +0.000 C 
ATOM      8  O   UNL     1       0.338  12.619  21.923  0.00  0.00    +0.000 OA
ATOM      9  N   UNL     1      -0.960  10.690  21.732  0.00  0.00    +0.000 N 
ATOM     10  H   UNL     1      -1.906  10.353  21.845  0.00  0.00    +0.000 HD
BRANCH   7  15
ATOM     11  C   UNL     1      -3.807  12.670  24.201  0.00  0.00    +0.000 A 
ATOM     12  C   UNL     1      -3.518  13.958  24.663  0.00  0.00    +0.000 A 
ATOM     13  C   UNL     1      -2.322  14.586  24.321  0.00  0.00    +0.000 A 
ATOM     14  C   UNL     1      -1.411  13.925  23.503  0.00  0.00    +0.000 A 
ATOM     15  C   UNL     1      -1.697  12.640  23.023  0.00  0.00    +0.000 A 
ATOM     16  C   UNL     1      -2.889  12.003  23.385  0.00  0.00    +0.000 A 
BRANCH  11  18
ATOM     17  C   UNL     1      -6.176  12.757  24.046  0.00  0.00    +0.000 C 
ATOM     18  O   UNL     1      -5.012  12.173  24.617  0.00  0.00    +0.000 OA
ENDBRANCH  11  18
ENDBRANCH   7  15
ENDBRANCH   1   9
BRANCH   4  19
ATOM     19  C   UNL     1       2.589   7.572  18.494  0.00  0.00    +0.000 C 
ATOM     20  O   UNL     1       3.426   8.043  17.740  0.00  0.00    +0.000 OA
BRANCH  19  21
ATOM     21  O   UNL     1       2.391   6.255  18.733  0.00  0.00    +0.000 OA
BRANCH  21  22
ATOM     22  C   UNL     1       3.433   5.607  19.483  0.00  0.00    +0.000 C 
BRANCH  22  23
ATOM     23  C   UNL     1       4.605   5.286  18.576  0.00  0.00    +0.000 A 
ATOM     24  C   UNL     1       5.848   5.222  19.083  0.00  0.00    +0.000 A 
ATOM     25  C   UNL     1       7.004   4.981  18.188  0.00  0.00    +0.000 A 
ATOM     26  O   UNL     1       8.144   4.950  18.653  0.00  0.00    +0.000 OA
ATOM     27  N   UNL     1       6.643   4.827  16.865  0.00  0.00    +0.000 N 
ATOM     28  N   UNL     1       7.579   4.623  15.877  0.00  0.00    +0.000 NA
ATOM     29  C   UNL     1       6.958   4.543  14.745  0.00  0.00    +0.000 A 
ATOM     30  S   UNL     1       5.225   4.676  14.749  0.00  0.00    +0.000 S 
ATOM     31  C   UNL     1       5.334   4.905  16.468  0.00  0.00    +0.000 A 
ATOM     32  N   UNL     1       4.319   5.122  17.234  0.00  0.00    +0.000 NA
BRANCH  29  33
ATOM     33  C   UNL     1       7.682   4.320  13.485  0.00  0.00    +0.000 C 
ATOM     34  C   UNL     1       7.056   4.660  12.152  0.00  0.00    +0.000 C 
ATOM     35  C   UNL     1       8.178   5.502  12.680  0.00  0.00    +0.000 C 
ENDBRANCH  29  33
ENDBRANCH  22  23
ENDBRANCH  21  22
ENDBRANCH  19  21
ENDBRANCH   4  19
TORSDOF 8
ENDMDL
MODEL 4
REMARK VINA RESULT:      -8.1      2.120      3.001
REMARK  Name = 
REMARK  9 active torsions:
REMARK  status: ('A' for Active; 'I' for Inactive)
REMARK    1  A    between atoms: C_1  and  O_2
REMARK    2  A    between atoms: O_2  and  C_3
REMARK    3  A    between atoms: C_7  and  C_8
REMARK    4  A    between atoms: N_10  and  C_11
REMARK    5  A    between atoms: C_14  and  C_15
REMARK    6  A    between atoms: C_15  and  O_17
REMARK    7  A    between atoms: O_17  and  C_18
REMARK    8  A    between atoms: C_18  and  C_19
REMARK    9  A    between atoms: C_25  and  C_26
REMARK                            x       y       z     vdW  Elec       q    Type
REMARK                         _______ _______ _______ _____ _____    ______ ____
ROOT
ATOM      1  C   UNL     1       7.990   8.453  17.915  0.00  0.00    +0.000 A 
ATOM      2  C   UNL     1       6.758   8.269  17.283  0.00  0.00    +0.000 A 
ATOM      3  C   UNL     1       6.004   7.116  17.500  0.00  0.00    +0.000 A 
ATOM      4  C   UNL     1       6.472   6.109  18.348  0.00  0.00    +0.000 A 
ATOM      5  C   UNL     1       7.713   6.273  18.977  0.00  0.00    +0.000 A 
ATOM      6  C   UNL     1       8.473   7.436  18.750  0.00  0.00    +0.000 A 
ENDROOT
BRANCH   1   9
ATOM      7  C   UNL     1       9.200  10.445  18.770  0.00  0.00    +0.000 C 
ATOM      8  O   UNL     1       9.034  10.244  19.971  0.00  0.00    +0.000 OA
ATOM      9  N   UNL     1       8.763   9.626  17.739  0.00  0.00    +0.000 N 
ATOM     10  H   UNL     1       9.147   9.785  16.817  0.00  0.00    +0.000 HD
BRANCH   7  15
ATOM     11  C   UNL     1      10.218  13.967  17.800  0.00  0.00    +0.000 A 
ATOM     12  C   UNL     1      11.610  13.828  17.798  0.00  0.00    +0.000 A 
ATOM     13  C   UNL     1      12.204  12.605  18.104  0.00  0.00    +0.000 A 
ATOM     14  C   UNL     1      11.400  11.509  18.407  0.00  0.00    +0.000 A 
ATOM     15  C   UNL     1      10.004  11.635  18.398  0.00  0.00    +0.000 A 
ATOM     16  C   UNL     1       9.411  12.868  18.110  0.00  0.00    +0.000 A 
BRANCH  11  18
ATOM     17  C   UNL     1       9.363  16.045  18.572  0.00  0.00    +0.000 C 
ATOM     18  O   UNL     1       9.771  15.222  17.486  0.00  0.00    +0.000 OA
ENDBRANCH  11  18
ENDBRANCH   7  15
ENDBRANCH   1   9
BRANCH   4  19
ATOM     19  C   UNL     1       5.607   4.910  18.512  0.00  0.00    +0.000 C 
ATOM     20  O   UNL     1       6.046   3.823  18.856  0.00  0.00    +0.000 OA
BRANCH  19  21
ATOM     21  O   UNL     1       4.311   5.190  18.246  0.00  0.00    +0.000 OA
BRANCH  21  22
ATOM     22  C   UNL     1       3.461   5.306  19.401  0.00  0.00    +0.000 C 
BRANCH  22  23
ATOM     23  C   UNL     1       2.663   6.593  19.332  0.00  0.00    +0.000 A 
ATOM     24  C   UNL     1       2.728   7.365  18.234  0.00  0.00    +0.000 A 
ATOM     25  C   UNL     1       2.008   8.660  18.191  0.00  0.00    +0.000 A 
ATOM     26  O   UNL     1       2.093   9.376  17.193  0.00  0.00    +0.000 OA
ATOM     27  N   UNL     1       1.304   8.926  19.347  0.00  0.00    +0.000 N 
ATOM     28  N   UNL     1       0.593  10.093  19.511  0.00  0.00    +0.000 NA
ATOM     29  C   UNL     1       0.063  10.080  20.690  0.00  0.00    +0.000 A 
ATOM     30  S   UNL     1       0.334   8.688  21.696  0.00  0.00    +0.000 S 
ATOM     31  C   UNL     1       1.306   8.053  20.403  0.00  0.00    +0.000 A 
ATOM     32  N   UNL     1       1.934   6.928  20.458  0.00  0.00    +0.000 NA
BRANCH  29  33
ATOM     33  C   UNL     1      -0.769  11.193  21.172  0.00  0.00    +0.000 C 
ATOM     34  C   UNL     1      -1.086  11.353  22.641  0.00  0.00    +0.000 C 
ATOM     35  C   UNL     1      -0.142  12.311  21.978  0.00  0.00    +0.000 C 
ENDBRANCH  29  33
ENDBRANCH  22  23
ENDBRANCH  21  22
ENDBRANCH  19  21
ENDBRANCH   4  19
TORSDOF 8
ENDMDL
MODEL 5
REMARK VINA RESULT:      -7.9      1.423      1.911
REMARK  Name = 
REMARK  9 active torsions:
REMARK  status: ('A' for Active; 'I' for Inactive)
REMARK    1  A    between atoms: C_1  and  O_2
REMARK    2  A    between atoms: O_2  and  C_3
REMARK    3  A    between atoms: C_7  and  C_8
REMARK    4  A    between atoms: N_10  and  C_11
REMARK    5  A    between atoms: C_14  and  C_15
REMARK    6  A    between atoms: C_15  and  O_17
REMARK    7  A    between atoms: O_17  and  C_18
REMARK    8  A    between atoms: C_18  and  C_19
REMARK    9  A    between atoms: C_25  and  C_26
REMARK                            x       y       z     vdW  Elec       q    Type
REMARK                         _______ _______ _______ _____ _____    ______ ____
ROOT
ATOM      1  C   UNL     1       8.022   7.206  18.349  0.00  0.00    +0.000 A 
ATOM      2  C   UNL     1       7.544   7.135  17.039  0.00  0.00    +0.000 A 
ATOM      3  C   UNL     1       6.761   6.061  16.617  0.00  0.00    +0.000 A 
ATOM      4  C   UNL     1       6.447   5.021  17.496  0.00  0.00    +0.000 A 
ATOM      5  C   UNL     1       6.931   5.072  18.809  0.00  0.00    +0.000 A 
ATOM      6  C   UNL     1       7.726   6.156  19.229  0.00  0.00    +0.000 A 
ENDROOT
BRANCH   1   9
ATOM      7  C   UNL     1       8.626   9.615  18.405  0.00  0.00    +0.000 C 
ATOM      8  O   UNL     1       7.760  10.026  17.636  0.00  0.00    +0.000 OA
ATOM      9  N   UNL     1       8.793   8.299  18.815  0.00  0.00    +0.000 N 
ATOM     10  H   UNL     1       9.396   8.127  19.608  0.00  0.00    +0.000 HD
BRANCH   7  15
ATOM     11  C   UNL     1      11.193  12.373  18.832  0.00  0.00    +0.000 A 
ATOM     12  C   UNL     1      11.106  12.576  20.214  0.00  0.00    +0.000 A 
ATOM     13  C   UNL     1      10.229  11.822  20.991  0.00  0.00    +0.000 A 
ATOM     14  C   UNL     1       9.437  10.851  20.384  0.00  0.00    +0.000 A 
ATOM     15  C   UNL     1       9.525  10.631  19.002  0.00  0.00    +0.000 A 
ATOM     16  C   UNL     1      10.391  11.403  18.222  0.00  0.00    +0.000 A 
BRANCH  11  18
ATOM     17  C   UNL     1      12.079  14.560  18.556  0.00  0.00    +0.000 C 
ATOM     18  O   UNL     1      12.090  13.185  18.193  0.00  0.00    +0.000 OA
ENDBRANCH  11  18
ENDBRANCH   7  15
ENDBRANCH   1   9
BRANCH   4  19
ATOM     19  C   UNL     1       5.615   3.912  16.957  0.00  0.00    +0.000 C 
ATOM     20  O   UNL     1       5.833   3.393  15.872  0.00  0.00    +0.000 OA
BRANCH  19  21
ATOM     21  O   UNL     1       4.629   3.565  17.815  0.00  0.00    +0.000 OA
BRANCH  21  22
ATOM     22  C   UNL     1       3.298   3.885  17.377  0.00  0.00    +0.000 C 
BRANCH  22  23
ATOM     23  C   UNL     1       2.864   5.216  17.961  0.00  0.00    +0.000 A 
ATOM     24  C   UNL     1       3.048   6.347  17.259  0.00  0.00    +0.000 A 
ATOM     25  C   UNL     1       2.694   7.657  17.854  0.00  0.00    +0.000 A 
ATOM     26  O   UNL     1       2.889   8.693  17.218  0.00  0.00    +0.000 OA
ATOM     27  N   UNL     1       2.173   7.550  19.128  0.00  0.00    +0.000 N 
ATOM     28  N   UNL     1       1.809   8.659  19.858  0.00  0.00    +0.000 NA
ATOM     29  C   UNL     1       1.385   8.259  21.012  0.00  0.00    +0.000 A 
ATOM     30  S   UNL     1       1.354   6.550  21.328  0.00  0.00    +0.000 S 
ATOM     31  C   UNL     1       2.025   6.333  19.740  0.00  0.00    +0.000 A 
ATOM     32  N   UNL     1       2.336   5.187  19.238  0.00  0.00    +0.000 NA
BRANCH  29  33
ATOM     33  C   UNL     1       0.914   9.210  22.030  0.00  0.00    +0.000 C 
ATOM     34  C   UNL     1      -0.138  10.246  21.705  0.00  0.00    +0.000 C 
ATOM     35  C   UNL     1      -0.488   9.086  22.588  0.00  0.00    +0.000 C 
ENDBRANCH  29  33
ENDBRANCH  22  23
ENDBRANCH  21  22
ENDBRANCH  19  21
ENDBRANCH   4  19
TORSDOF 8
ENDMDL
MODEL 6
REMARK VINA RESULT:      -7.7      1.826      2.588
REMARK  Name = 
REMARK  9 active torsions:
REMARK  status: ('A' for Active; 'I' for Inactive)
REMARK    1  A    between atoms: C_1  and  O_2
REMARK    2  A    between atoms: O_2  and  C_3
REMARK    3  A    between atoms: C_7  and  C_8
REMARK    4  A    between atoms: N_10  and  C_11
REMARK    5  A    between atoms: C_14  and  C_15
REMARK    6  A    between atoms: C_15  and  O_17
REMARK    7  A    between atoms: O_17  and  C_18
REMARK    8  A    between atoms: C_18  and  C_19
REMARK    9  A    between atoms: C_25  and  C_26
REMARK                            x       y       z     vdW  Elec       q    Type
REMARK                         _______ _______ _______ _____ _____    ______ ____
ROOT
ATOM      1  C   UNL     1       8.094   7.747  18.309  0.00  0.00    +0.000 A 
ATOM      2  C   UNL     1       7.291   7.686  17.169  0.00  0.00    +0.000 A 
ATOM      3  C   UNL     1       6.366   6.657  16.994  0.00  0.00    +0.000 A 
ATOM      4  C   UNL     1       6.230   5.652  17.955  0.00  0.00    +0.000 A 
ATOM      5  C   UNL     1       7.040   5.692  19.098  0.00  0.00    +0.000 A 
ATOM      6  C   UNL     1       7.976   6.730  19.267  0.00  0.00    +0.000 A 
ENDROOT
BRANCH   1   9
ATOM      7  C   UNL     1       8.799  10.125  18.195  0.00  0.00    +0.000 C 
ATOM      8  O   UNL     1       7.763  10.588  17.724  0.00  0.00    +0.000 OA
ATOM      9  N   UNL     1       9.020   8.796  18.528  0.00  0.00    +0.000 N 
ATOM     10  H   UNL     1       9.824   8.582  19.102  0.00  0.00    +0.000 HD
BRANCH   7  15
ATOM     11  C   UNL     1      11.222  13.034  17.981  0.00  0.00    +0.000 A 
ATOM     12  C   UNL     1      11.874  12.901  19.212  0.00  0.00    +0.000 A 
ATOM     13  C   UNL     1      11.530  11.877  20.093  0.00  0.00    +0.000 A 
ATOM     14  C   UNL     1      10.533  10.973  19.738  0.00  0.00    +0.000 A 
ATOM     15  C   UNL     1       9.883  11.090  18.501  0.00  0.00    +0.000 A 
ATOM     16  C   UNL     1      10.216  12.131  17.628  0.00  0.00    +0.000 A 
BRANCH  11  18
ATOM     17  C   UNL     1      12.333  15.133  17.901  0.00  0.00    +0.000 C 
ATOM     18  O   UNL     1      11.655  14.085  17.219  0.00  0.00    +0.000 OA
ENDBRANCH  11  18
ENDBRANCH   7  15
ENDBRANCH   1   9
BRANCH   4  19
ATOM     19  C   UNL     1       5.227   4.589  17.681  0.00  0.00    +0.000 C 
ATOM     20  O   UNL     1       5.542   3.450  17.370  0.00  0.00    +0.000 OA
BRANCH  19  21
ATOM     21  O   UNL     1       3.963   5.045  17.834  0.00  0.00    +0.000 OA
BRANCH  21  22
ATOM     22  C   UNL     1       3.602   5.408  19.178  0.00  0.00    +0.000 C 
BRANCH  22  23
ATOM     23  C   UNL     1       2.772   6.677  19.169  0.00  0.00    +0.000 A 
ATOM     24  C   UNL     1       2.798   7.487  18.096  0.00  0.00    +0.000 A 
ATOM     25  C   UNL     1       2.047   8.764  18.111  0.00  0.00    +0.000 A 
ATOM     26  O   UNL     1       2.095   9.516  17.137  0.00  0.00    +0.000 OA
ATOM     27  N   UNL     1       1.358   8.974  19.289  0.00  0.00    +0.000 N 
ATOM     28  N   UNL     1       0.623  10.118  19.505  0.00  0.00    +0.000 NA
ATOM     29  C   UNL     1       0.116  10.051  20.693  0.00  0.00    +0.000 A 
ATOM     30  S   UNL     1       0.440   8.633  21.645  0.00  0.00    +0.000 S 
ATOM     31  C   UNL     1       1.402   8.066  20.314  0.00  0.00    +0.000 A 
ATOM     32  N   UNL     1       2.058   6.955  20.318  0.00  0.00    +0.000 NA
BRANCH  29  33
ATOM     33  C   UNL     1      -0.732  11.126  21.228  0.00  0.00    +0.000 C 
ATOM     34  C   UNL     1      -1.268  11.071  22.641  0.00  0.00    +0.000 C 
ATOM     35  C   UNL     1      -0.191  12.055  22.295  0.00  0.00    +0.000 C 
ENDBRANCH  29  33
ENDBRANCH  22  23
ENDBRANCH  21  22
ENDBRANCH  19  21
ENDBRANCH   4  19
TORSDOF 8
ENDMDL
MODEL 7
REMARK VINA RESULT:      -7.7      5.141      7.166
REMARK  Name = 
REMARK  9 active torsions:
REMARK  status: ('A' for Active; 'I' for Inactive)
REMARK    1  A    between atoms: C_1  and  O_2
REMARK    2  A    between atoms: O_2  and  C_3
REMARK    3  A    between atoms: C_7  and  C_8
REMARK    4  A    between atoms: N_10  and  C_11
REMARK    5  A    between atoms: C_14  and  C_15
REMARK    6  A    between atoms: C_15  and  O_17
REMARK    7  A    between atoms: O_17  and  C_18
REMARK    8  A    between atoms: C_18  and  C_19
REMARK    9  A    between atoms: C_25  and  C_26
REMARK                            x       y       z     vdW  Elec       q    Type
REMARK                         _______ _______ _______ _____ _____    ______ ____
ROOT
ATOM      1  C   UNL     1       3.997   3.663  17.134  0.00  0.00    +0.000 A 
ATOM      2  C   UNL     1       2.603   3.642  17.056  0.00  0.00    +0.000 A 
ATOM      3  C   UNL     1       1.817   3.682  18.207  0.00  0.00    +0.000 A 
ATOM      4  C   UNL     1       2.410   3.731  19.472  0.00  0.00    +0.000 A 
ATOM      5  C   UNL     1       3.808   3.737  19.566  0.00  0.00    +0.000 A 
ATOM      6  C   UNL     1       4.597   3.691  18.401  0.00  0.00    +0.000 A 
ENDROOT
BRANCH   1   9
ATOM      7  C   UNL     1       5.422   4.780  15.434  0.00  0.00    +0.000 C 
ATOM      8  O   UNL     1       5.378   5.918  15.895  0.00  0.00    +0.000 OA
ATOM      9  N   UNL     1       4.820   3.655  15.982  0.00  0.00    +0.000 N 
ATOM     10  H   UNL     1       5.107   2.751  15.633  0.00  0.00    +0.000 HD
BRANCH   7  15
ATOM     11  C   UNL     1       6.821   3.406  12.189  0.00  0.00    +0.000 A 
ATOM     12  C   UNL     1       7.816   4.355  11.930  0.00  0.00    +0.000 A 
ATOM     13  C   UNL     1       8.028   5.420  12.803  0.00  0.00    +0.000 A 
ATOM     14  C   UNL     1       7.245   5.535  13.947  0.00  0.00    +0.000 A 
ATOM     15  C   UNL     1       6.254   4.582  14.223  0.00  0.00    +0.000 A 
ATOM     16  C   UNL     1       6.030   3.525  13.335  0.00  0.00    +0.000 A 
BRANCH  11  18
ATOM     17  C   UNL     1       5.588   1.560  11.342  0.00  0.00    +0.000 C 
ATOM     18  O   UNL     1       6.719   2.417  11.248  0.00  0.00    +0.000 OA
ENDBRANCH  11  18
ENDBRANCH   7  15
ENDBRANCH   1   9
BRANCH   4  19
ATOM     19  C   UNL     1       1.496   3.760  20.644  0.00  0.00    +0.000 C 
ATOM     20  O   UNL     1       1.280   2.776  21.335  0.00  0.00    +0.000 OA
BRANCH  19  21
ATOM     21  O   UNL     1       0.967   4.990  20.834  0.00  0.00    +0.000 OA
BRANCH  21  22
ATOM     22  C   UNL     1       1.910   6.009  21.208  0.00  0.00    +0.000 C 
BRANCH  22  23
ATOM     23  C   UNL     1       1.689   7.254  20.370  0.00  0.00    +0.000 A 
ATOM     24  C   UNL     1       2.214   7.333  19.134  0.00  0.00    +0.000 A 
ATOM     25  C   UNL     1       2.063   8.575  18.341  0.00  0.00    +0.000 A 
ATOM     26  O   UNL     1       2.569   8.652  17.221  0.00  0.00    +0.000 OA
ATOM     27  N   UNL     1       1.347   9.554  18.998  0.00  0.00    +0.000 N 
ATOM     28  N   UNL     1       1.124  10.791  18.435  0.00  0.00    +0.000 NA
ATOM     29  C   UNL     1       0.456  11.504  19.282  0.00  0.00    +0.000 A 
ATOM     30  S   UNL     1       0.013  10.776  20.797  0.00  0.00    +0.000 S 
ATOM     31  C   UNL     1       0.852   9.353  20.259  0.00  0.00    +0.000 A 
ATOM     32  N   UNL     1       0.982   8.281  20.966  0.00  0.00    +0.000 NA
BRANCH  29  33
ATOM     33  C   UNL     1       0.053  12.884  18.976  0.00  0.00    +0.000 C 
ATOM     34  C   UNL     1      -0.097  13.916  20.070  0.00  0.00    +0.000 C 
ATOM     35  C   UNL     1       1.054  14.011  19.114  0.00  0.00    +0.000 C 
ENDBRANCH  29  33
ENDBRANCH  22  23
ENDBRANCH  21  22
ENDBRANCH  19  21
ENDBRANCH   4  19
TORSDOF 8
ENDMDL
MODEL 8
REMARK VINA RESULT:      -7.7      3.031      7.424
REMARK  Name = 
REMARK  9 active torsions:
REMARK  status: ('A' for Active; 'I' for Inactive)
REMARK    1  A    between atoms: C_1  and  O_2
REMARK    2  A    between atoms: O_2  and  C_3
REMARK    3  A    between atoms: C_7  and  C_8
REMARK    4  A    between atoms: N_10  and  C_11
REMARK    5  A    between atoms: C_14  and  C_15
REMARK    6  A    between atoms: C_15  and  O_17
REMARK    7  A    between atoms: O_17  and  C_18
REMARK    8  A    between atoms: C_18  and  C_19
REMARK    9  A    between atoms: C_25  and  C_26
REMARK                            x       y       z     vdW  Elec       q    Type
REMARK                         _______ _______ _______ _____ _____    ______ ____
ROOT
ATOM      1  C   UNL     1       1.651   7.372  19.883  0.00  0.00    +0.000 A 
ATOM      2  C   UNL     1       2.025   7.060  18.575  0.00  0.00    +0.000 A 
ATOM      3  C   UNL     1       2.246   5.738  18.187  0.00  0.00    +0.000 A 
ATOM      4  C   UNL     1       2.110   4.695  19.106  0.00  0.00    +0.000 A 
ATOM      5  C   UNL     1       1.749   4.995  20.426  0.00  0.00    +0.000 A 
ATOM      6  C   UNL     1       1.532   6.331  20.814  0.00  0.00    +0.000 A 
ENDROOT
BRANCH   1   9
ATOM      7  C   UNL     1       0.293   9.089  21.057  0.00  0.00    +0.000 C 
ATOM      8  O   UNL     1      -0.564   8.341  21.521  0.00  0.00    +0.000 OA
ATOM      9  N   UNL     1       1.389   8.701  20.299  0.00  0.00    +0.000 N 
ATOM     10  H   UNL     1       2.130   9.375  20.162  0.00  0.00    +0.000 HD
BRANCH   7  15
ATOM     11  C   UNL     1       0.774  12.851  21.093  0.00  0.00    +0.000 A 
ATOM     12  C   UNL     1      -0.169  13.209  22.062  0.00  0.00    +0.000 A 
ATOM     13  C   UNL     1      -0.944  12.238  22.694  0.00  0.00    +0.000 A 
ATOM     14  C   UNL     1      -0.770  10.898  22.362  0.00  0.00    +0.000 A 
ATOM     15  C   UNL     1       0.182  10.527  21.402  0.00  0.00    +0.000 A 
ATOM     16  C   UNL     1       0.944  11.505  20.754  0.00  0.00    +0.000 A 
BRANCH  11  18
ATOM     17  C   UNL     1       1.732  13.838  19.155  0.00  0.00    +0.000 C 
ATOM     18  O   UNL     1       1.460  13.903  20.550  0.00  0.00    +0.000 OA
ENDBRANCH  11  18
ENDBRANCH   7  15
ENDBRANCH   1   9
BRANCH   4  19
ATOM     19  C   UNL     1       2.375   3.319  18.607  0.00  0.00    +0.000 C 
ATOM     20  O   UNL     1       1.529   2.654  18.028  0.00  0.00    +0.000 OA
BRANCH  19  21
ATOM     21  O   UNL     1       3.644   2.930  18.866  0.00  0.00    +0.000 OA
BRANCH  21  22
ATOM     22  C   UNL     1       4.509   2.860  17.719  0.00  0.00    +0.000 C 
BRANCH  22  23
ATOM     23  C   UNL     1       5.127   4.218  17.449  0.00  0.00    +0.000 A 
ATOM     24  C   UNL     1       4.761   4.917  16.361  0.00  0.00    +0.000 A 
ATOM     25  C   UNL     1       5.415   6.211  16.054  0.00  0.00    +0.000 A 
ATOM     26  O   UNL     1       5.096   6.835  15.042  0.00  0.00    +0.000 OA
ATOM     27  N   UNL     1       6.367   6.571  16.986  0.00  0.00    +0.000 N 
ATOM     28  N   UNL     1       7.104   7.727  16.861  0.00  0.00    +0.000 NA
ATOM     29  C   UNL     1       7.928   7.789  17.855  0.00  0.00    +0.000 A 
ATOM     30  S   UNL     1       7.892   6.510  19.031  0.00  0.00    +0.000 S 
ATOM     31  C   UNL     1       6.648   5.775  18.065  0.00  0.00    +0.000 A 
ATOM     32  N   UNL     1       6.093   4.643  18.341  0.00  0.00    +0.000 NA
BRANCH  29  33
ATOM     33  C   UNL     1       8.859   8.916  18.013  0.00  0.00    +0.000 C 
ATOM     34  C   UNL     1       8.354  10.334  18.152  0.00  0.00    +0.000 C 
ATOM     35  C   UNL     1       8.950   9.639  19.340  0.00  0.00    +0.000 C 
ENDBRANCH  29  33
ENDBRANCH  22  23
ENDBRANCH  21  22
ENDBRANCH  19  21
ENDBRANCH   4  19
TORSDOF 8
ENDMDL
MODEL 9
REMARK VINA RESULT:      -7.6      1.804      2.640
REMARK  Name = 
REMARK  9 active torsions:
REMARK  status: ('A' for Active; 'I' for Inactive)
REMARK    1  A    between atoms: C_1  and  O_2
REMARK    2  A    between atoms: O_2  and  C_3
REMARK    3  A    between atoms: C_7  and  C_8
REMARK    4  A    between atoms: N_10  and  C_11
REMARK    5  A    between atoms: C_14  and  C_15
REMARK    6  A    between atoms: C_15  and  O_17
REMARK    7  A    between atoms: O_17  and  C_18
REMARK    8  A    between atoms: C_18  and  C_19
REMARK    9  A    between atoms: C_25  and  C_26
REMARK                            x       y       z     vdW  Elec       q    Type
REMARK                         _______ _______ _______ _____ _____    ______ ____
ROOT
ATOM      1  C   UNL     1       7.938   7.660  18.282  0.00  0.00    +0.000 A 
ATOM      2  C   UNL     1       7.069   7.821  17.201  0.00  0.00    +0.000 A 
ATOM      3  C   UNL     1       6.170   6.817  16.844  0.00  0.00    +0.000 A 
ATOM      4  C   UNL     1       6.128   5.615  17.555  0.00  0.00    +0.000 A 
ATOM      5  C   UNL     1       7.004   5.432  18.633  0.00  0.00    +0.000 A 
ATOM      6  C   UNL     1       7.913   6.448  18.985  0.00  0.00    +0.000 A 
ENDROOT
BRANCH   1   9
ATOM      7  C   UNL     1       8.668  10.028  18.434  0.00  0.00    +0.000 C 
ATOM      8  O   UNL     1       7.698  10.543  17.883  0.00  0.00    +0.000 OA
ATOM      9  N   UNL     1       8.839   8.674  18.687  0.00  0.00    +0.000 N 
ATOM     10  H   UNL     1       9.569   8.404  19.332  0.00  0.00    +0.000 HD
BRANCH   7  15
ATOM     11  C   UNL     1      10.522  12.637  20.468  0.00  0.00    +0.000 A 
ATOM     12  C   UNL     1      11.780  12.574  19.859  0.00  0.00    +0.000 A 
ATOM     13  C   UNL     1      12.016  11.697  18.801  0.00  0.00    +0.000 A 
ATOM     14  C   UNL     1      10.984  10.884  18.342  0.00  0.00    +0.000 A 
ATOM     15  C   UNL     1       9.716  10.949  18.937  0.00  0.00    +0.000 A 
ATOM     16  C   UNL     1       9.488  11.815  20.012  0.00  0.00    +0.000 A 
BRANCH  11  18
ATOM     17  C   UNL     1       9.143  14.073  21.764  0.00  0.00    +0.000 C 
ATOM     18  O   UNL     1      10.432  13.535  21.496  0.00  0.00    +0.000 OA
ENDBRANCH  11  18
ENDBRANCH   7  15
ENDBRANCH   1   9
BRANCH   4  19
ATOM     19  C   UNL     1       5.146   4.596  17.098  0.00  0.00    +0.000 C 
ATOM     20  O   UNL     1       5.484   3.534  16.595  0.00  0.00    +0.000 OA
BRANCH  19  21
ATOM     21  O   UNL     1       3.873   4.994  17.321  0.00  0.00    +0.000 OA
BRANCH  21  22
ATOM     22  C   UNL     1       3.528   5.193  18.703  0.00  0.00    +0.000 C 
BRANCH  22  23
ATOM     23  C   UNL     1       2.839   6.532  18.879  0.00  0.00    +0.000 A 
ATOM     24  C   UNL     1       2.806   7.409  17.860  0.00  0.00    +0.000 A 
ATOM     25  C   UNL     1       2.198   8.746  18.050  0.00  0.00    +0.000 A 
ATOM     26  O   UNL     1       2.195   9.556  17.122  0.00  0.00    +0.000 OA
ATOM     27  N   UNL     1       1.695   8.937  19.321  0.00  0.00    +0.000 N 
ATOM     28  N   UNL     1       1.115  10.127  19.700  0.00  0.00    +0.000 NA
ATOM     29  C   UNL     1       0.765  10.027  20.941  0.00  0.00    +0.000 A 
ATOM     30  S   UNL     1       1.063   8.522  21.758  0.00  0.00    +0.000 S 
ATOM     31  C   UNL     1       1.780   7.960  20.278  0.00  0.00    +0.000 A 
ATOM     32  N   UNL     1       2.313   6.795  20.130  0.00  0.00    +0.000 NA
BRANCH  29  33
ATOM     33  C   UNL     1       0.108  11.136  21.646  0.00  0.00    +0.000 C 
ATOM     34  C   UNL     1      -0.249  12.418  20.928  0.00  0.00    +0.000 C 
ATOM     35  C   UNL     1      -1.337  11.474  21.343  0.00  0.00    +0.000 C 
ENDBRANCH  29  33
ENDBRANCH  22  23
ENDBRANCH  21  22
ENDBRANCH  19  21
ENDBRANCH   4  19
TORSDOF 8
ENDMDL
