MODEL 1
REMARK VINA RESULT:      -6.6      0.000      0.000
REMARK  Name = 
REMARK  6 active torsions:
REMARK  status: ('A' for Active; 'I' for Inactive)
REMARK    1  A    between atoms: N_4  and  C_5
REMARK    2  A    between atoms: C_7  and  C_8
REMARK    3  A    between atoms: C_8  and  O_9
REMARK    4  A    between atoms: C_10  and  O_11
REMARK    5  A    between atoms: C_12  and  O_13
REMARK    6  A    between atoms: C_14  and  O_15
REMARK                            x       y       z     vdW  Elec       q    Type
REMARK                         _______ _______ _______ _____ _____    ______ ____
ROOT
ATOM      1  C   UNL     1       5.220   4.105  19.251  0.00  0.00    +0.000 C 
ATOM      2  O   UNL     1       4.428   5.277  19.101  0.00  0.00    +0.000 OA
ATOM      3  C   UNL     1       3.372   5.202  18.136  0.00  0.00    +0.000 C 
ATOM      4  C   UNL     1       2.440   4.009  18.392  0.00  0.00    +0.000 C 
ATOM      5  C   UNL     1       3.257   2.707  18.481  0.00  0.00    +0.000 C 
ATOM      6  C   UNL     1       4.344   2.860  19.554  0.00  0.00    +0.000 C 
ENDROOT
BRANCH   1  10
ATOM      7  N   UNL     1       7.828   4.530  16.795  0.00  0.00    +0.000 N 
ATOM      8  C   UNL     1       7.264   4.592  18.024  0.00  0.00    +0.000 C 
ATOM      9  O   UNL     1       7.830   5.114  18.972  0.00  0.00    +0.000 OA
ATOM     10  N   UNL     1       6.044   3.994  18.064  0.00  0.00    +0.000 N 
ATOM     11  H   UNL     1       8.777   4.891  16.766  0.00  0.00    +0.000 HD
ATOM     12  H   UNL     1       7.695   3.675  16.272  0.00  0.00    +0.000 HD
ATOM     13  H   UNL     1       5.533   4.112  17.201  0.00  0.00    +0.000 HD
ENDBRANCH   1  10
BRANCH   4  14
ATOM     14  O   UNL     1       1.433   3.928  17.377  0.00  0.00    +0.000 OA
ATOM     15  H   UNL     1       0.662   3.459  17.746  0.00  0.00    +0.000 HD
ENDBRANCH   4  14
BRANCH   5  16
ATOM     16  O   UNL     1       2.385   1.603  18.760  0.00  0.00    +0.000 OA
ATOM     17  H   UNL     1       1.545   1.952  19.106  0.00  0.00    +0.000 HD
ENDBRANCH   5  16
BRANCH   6  18
ATOM     18  O   UNL     1       5.081   1.648  19.709  0.00  0.00    +0.000 OA
ATOM     19  H   UNL     1       4.958   1.106  18.908  0.00  0.00    +0.000 HD
ENDBRANCH   6  18
BRANCH   3  20
ATOM     20  C   UNL     1       2.614   6.542  18.182  0.00  0.00    +0.000 C 
BRANCH  20  21
ATOM     21  O   UNL     1       2.338   6.986  19.503  0.00  0.00    +0.000 OA
ATOM     22  H   UNL     1       3.055   6.646  20.077  0.00  0.00    +0.000 HD
ENDBRANCH  20  21
ENDBRANCH   3  20
TORSDOF 6
ENDMDL
MODEL 2
REMARK VINA RESULT:      -6.5      2.394      4.363
REMARK  Name = 
REMARK  6 active torsions:
REMARK  status: ('A' for Active; 'I' for Inactive)
REMARK    1  A    between atoms: N_4  and  C_5
REMARK    2  A    between atoms: C_7  and  C_8
REMARK    3  A    between atoms: C_8  and  O_9
REMARK    4  A    between atoms: C_10  and  O_11
REMARK    5  A    between atoms: C_12  and  O_13
REMARK    6  A    between atoms: C_14  and  O_15
REMARK                            x       y       z     vdW  Elec       q    Type
REMARK                         _______ _______ _______ _____ _____    ______ ____
ROOT
ATOM      1  C   UNL     1       4.746   4.688  18.545  0.00  0.00    +0.000 C 
ATOM      2  O   UNL     1       5.722   5.711  18.713  0.00  0.00    +0.000 OA
ATOM      3  C   UNL     1       6.874   5.624  17.867  0.00  0.00    +0.000 C 
ATOM      4  C   UNL     1       6.495   5.546  16.381  0.00  0.00    +0.000 C 
ATOM      5  C   UNL     1       5.500   4.395  16.147  0.00  0.00    +0.000 C 
ATOM      6  C   UNL     1       4.284   4.579  17.067  0.00  0.00    +0.000 C 
ENDROOT
BRANCH   1  10
ATOM      7  N   UNL     1       5.208   1.594  20.342  0.00  0.00    +0.000 N 
ATOM      8  C   UNL     1       4.505   2.588  19.750  0.00  0.00    +0.000 C 
ATOM      9  O   UNL     1       3.286   2.636  19.795  0.00  0.00    +0.000 OA
ATOM     10  N   UNL     1       5.307   3.472  19.099  0.00  0.00    +0.000 N 
ATOM     11  H   UNL     1       4.624   0.875  20.757  0.00  0.00    +0.000 HD
ATOM     12  H   UNL     1       6.009   1.236  19.839  0.00  0.00    +0.000 HD
ATOM     13  H   UNL     1       6.188   3.608  19.573  0.00  0.00    +0.000 HD
ENDBRANCH   1  10
BRANCH   4  14
ATOM     14  O   UNL     1       7.666   5.399  15.570  0.00  0.00    +0.000 OA
ATOM     15  H   UNL     1       7.848   6.254  15.137  0.00  0.00    +0.000 HD
ENDBRANCH   4  14
BRANCH   5  16
ATOM     16  O   UNL     1       5.120   4.353  14.765  0.00  0.00    +0.000 OA
ATOM     17  H   UNL     1       4.860   3.442  14.543  0.00  0.00    +0.000 HD
ENDBRANCH   5  16
BRANCH   6  18
ATOM     18  O   UNL     1       3.310   3.563  16.832  0.00  0.00    +0.000 OA
ATOM     19  H   UNL     1       3.247   3.410  15.871  0.00  0.00    +0.000 HD
ENDBRANCH   6  18
BRANCH   3  20
ATOM     20  C   UNL     1       7.757   6.849  18.170  0.00  0.00    +0.000 C 
BRANCH  20  21
ATOM     21  O   UNL     1       7.754   7.815  17.128  0.00  0.00    +0.000 OA
ATOM     22  H   UNL     1       7.465   8.663  17.522  0.00  0.00    +0.000 HD
ENDBRANCH  20  21
ENDBRANCH   3  20
TORSDOF 6
ENDMDL
MODEL 3
REMARK VINA RESULT:      -6.4      1.995      4.618
REMARK  Name = 
REMARK  6 active torsions:
REMARK  status: ('A' for Active; 'I' for Inactive)
REMARK    1  A    between atoms: N_4  and  C_5
REMARK    2  A    between atoms: C_7  and  C_8
REMARK    3  A    between atoms: C_8  and  O_9
REMARK    4  A    between atoms: C_10  and  O_11
REMARK    5  A    between atoms: C_12  and  O_13
REMARK    6  A    between atoms: C_14  and  O_15
REMARK                            x       y       z     vdW  Elec       q    Type
REMARK                         _______ _______ _______ _____ _____    ______ ____
ROOT
ATOM      1  C   UNL     1       4.675   4.534  19.169  0.00  0.00    +0.000 C 
ATOM      2  O   UNL     1       5.939   4.960  19.665  0.00  0.00    +0.000 OA
ATOM      3  C   UNL     1       6.942   5.227  18.678  0.00  0.00    +0.000 C 
ATOM      4  C   UNL     1       6.462   6.236  17.625  0.00  0.00    +0.000 C 
ATOM      5  C   UNL     1       5.132   5.767  17.007  0.00  0.00    +0.000 C 
ATOM      6  C   UNL     1       4.106   5.532  18.125  0.00  0.00    +0.000 C 
ENDROOT
BRANCH   1  10
ATOM      7  N   UNL     1       4.234   1.015  18.504  0.00  0.00    +0.000 N 
ATOM      8  C   UNL     1       3.854   2.263  18.865  0.00  0.00    +0.000 C 
ATOM      9  O   UNL     1       2.730   2.505  19.278  0.00  0.00    +0.000 OA
ATOM     10  N   UNL     1       4.843   3.178  18.685  0.00  0.00    +0.000 N 
ATOM     11  H   UNL     1       3.482   0.334  18.546  0.00  0.00    +0.000 HD
ATOM     12  H   UNL     1       4.820   0.934  17.684  0.00  0.00    +0.000 HD
ATOM     13  H   UNL     1       5.757   2.791  18.868  0.00  0.00    +0.000 HD
ENDBRANCH   1  10
BRANCH   4  14
ATOM     14  O   UNL     1       7.465   6.435  16.622  0.00  0.00    +0.000 OA
ATOM     15  H   UNL     1       7.857   5.568  16.406  0.00  0.00    +0.000 HD
ENDBRANCH   4  14
BRANCH   5  16
ATOM     16  O   UNL     1       4.670   6.733  16.054  0.00  0.00    +0.000 OA
ATOM     17  H   UNL     1       5.418   7.302  15.802  0.00  0.00    +0.000 HD
ENDBRANCH   5  16
BRANCH   6  18
ATOM     18  O   UNL     1       2.841   5.156  17.583  0.00  0.00    +0.000 OA
ATOM     19  H   UNL     1       2.858   5.306  16.620  0.00  0.00    +0.000 HD
ENDBRANCH   6  18
BRANCH   3  20
ATOM     20  C   UNL     1       8.194   5.727  19.423  0.00  0.00    +0.000 C 
BRANCH  20  21
ATOM     21  O   UNL     1       8.224   5.342  20.790  0.00  0.00    +0.000 OA
ATOM     22  H   UNL     1       7.463   4.745  20.939  0.00  0.00    +0.000 HD
ENDBRANCH  20  21
ENDBRANCH   3  20
TORSDOF 6
ENDMDL
MODEL 4
REMARK VINA RESULT:      -6.1      2.224      4.380
REMARK  Name = 
REMARK  6 active torsions:
REMARK  status: ('A' for Active; 'I' for Inactive)
REMARK    1  A    between atoms: N_4  and  C_5
REMARK    2  A    between atoms: C_7  and  C_8
REMARK    3  A    between atoms: C_8  and  O_9
REMARK    4  A    between atoms: C_10  and  O_11
REMARK    5  A    between atoms: C_12  and  O_13
REMARK    6  A    between atoms: C_14  and  O_15
REMARK                            x       y       z     vdW  Elec       q    Type
REMARK                         _______ _______ _______ _____ _____    ______ ____
ROOT
ATOM      1  C   UNL     1       2.815   5.570  18.167  0.00  0.00    +0.000 C 
ATOM      2  O   UNL     1       4.224   5.729  18.279  0.00  0.00    +0.000 OA
ATOM      3  C   UNL     1       4.898   4.784  19.120  0.00  0.00    +0.000 C 
ATOM      4  C   UNL     1       4.598   3.335  18.713  0.00  0.00    +0.000 C 
ATOM      5  C   UNL     1       3.077   3.102  18.660  0.00  0.00    +0.000 C 
ATOM      6  C   UNL     1       2.437   4.133  17.719  0.00  0.00    +0.000 C 
ENDROOT
BRANCH   1  10
ATOM      7  N   UNL     1       1.686   7.521  20.985  0.00  0.00    +0.000 N 
ATOM      8  C   UNL     1       2.082   7.305  19.709  0.00  0.00    +0.000 C 
ATOM      9  O   UNL     1       2.245   8.220  18.916  0.00  0.00    +0.000 OA
ATOM     10  N   UNL     1       2.239   5.984  19.432  0.00  0.00    +0.000 N 
ATOM     11  H   UNL     1       1.477   8.494  21.186  0.00  0.00    +0.000 HD
ATOM     12  H   UNL     1       1.022   6.866  21.376  0.00  0.00    +0.000 HD
ATOM     13  H   UNL     1       2.587   5.467  20.226  0.00  0.00    +0.000 HD
ENDBRANCH   1  10
BRANCH   4  14
ATOM     14  O   UNL     1       5.237   2.418  19.609  0.00  0.00    +0.000 OA
ATOM     15  H   UNL     1       5.999   2.020  19.148  0.00  0.00    +0.000 HD
ENDBRANCH   4  14
BRANCH   5  16
ATOM     16  O   UNL     1       2.804   1.758  18.242  0.00  0.00    +0.000 OA
ATOM     17  H   UNL     1       2.271   1.322  18.930  0.00  0.00    +0.000 HD
ENDBRANCH   5  16
BRANCH   6  18
ATOM     18  O   UNL     1       1.033   3.908  17.595  0.00  0.00    +0.000 OA
ATOM     19  H   UNL     1       0.567   4.742  17.785  0.00  0.00    +0.000 HD
ENDBRANCH   6  18
BRANCH   3  20
ATOM     20  C   UNL     1       6.403   5.101  19.047  0.00  0.00    +0.000 C 
BRANCH  20  21
ATOM     21  O   UNL     1       7.133   4.181  18.247  0.00  0.00    +0.000 OA
ATOM     22  H   UNL     1       7.885   3.862  18.787  0.00  0.00    +0.000 HD
ENDBRANCH  20  21
ENDBRANCH   3  20
TORSDOF 6
ENDMDL
MODEL 5
REMARK VINA RESULT:      -6.1      2.237      4.358
REMARK  Name = 
REMARK  6 active torsions:
REMARK  status: ('A' for Active; 'I' for Inactive)
REMARK    1  A    between atoms: N_4  and  C_5
REMARK    2  A    between atoms: C_7  and  C_8
REMARK    3  A    between atoms: C_8  and  O_9
REMARK    4  A    between atoms: C_10  and  O_11
REMARK    5  A    between atoms: C_12  and  O_13
REMARK    6  A    between atoms: C_14  and  O_15
REMARK                            x       y       z     vdW  Elec       q    Type
REMARK                         _______ _______ _______ _____ _____    ______ ____
ROOT
ATOM      1  C   UNL     1       4.556   4.023  18.890  0.00  0.00    +0.000 C 
ATOM      2  O   UNL     1       5.604   4.882  19.325  0.00  0.00    +0.000 OA
ATOM      3  C   UNL     1       6.783   4.896  18.511  0.00  0.00    +0.000 C 
ATOM      4  C   UNL     1       6.466   5.212  17.043  0.00  0.00    +0.000 C 
ATOM      5  C   UNL     1       5.391   4.247  16.512  0.00  0.00    +0.000 C 
ATOM      6  C   UNL     1       4.154   4.314  17.419  0.00  0.00    +0.000 C 
ENDROOT
BRANCH   1  10
ATOM      7  N   UNL     1       5.250   0.844  20.450  0.00  0.00    +0.000 N 
ATOM      8  C   UNL     1       4.633   2.039  20.298  0.00  0.00    +0.000 C 
ATOM      9  O   UNL     1       3.831   2.464  21.115  0.00  0.00    +0.000 OA
ATOM     10  N   UNL     1       4.989   2.662  19.144  0.00  0.00    +0.000 N 
ATOM     11  H   UNL     1       4.929   0.322  21.260  0.00  0.00    +0.000 HD
ATOM     12  H   UNL     1       5.373   0.282  19.618  0.00  0.00    +0.000 HD
ATOM     13  H   UNL     1       5.954   2.490  18.900  0.00  0.00    +0.000 HD
ENDBRANCH   1  10
BRANCH   4  14
ATOM     14  O   UNL     1       7.657   5.160  16.248  0.00  0.00    +0.000 OA
ATOM     15  H   UNL     1       8.386   4.835  16.809  0.00  0.00    +0.000 HD
ENDBRANCH   4  14
BRANCH   5  16
ATOM     16  O   UNL     1       5.072   4.573  15.153  0.00  0.00    +0.000 OA
ATOM     17  H   UNL     1       4.332   4.011  14.864  0.00  0.00    +0.000 HD
ENDBRANCH   5  16
BRANCH   6  18
ATOM     18  O   UNL     1       3.111   3.477  16.920  0.00  0.00    +0.000 OA
ATOM     19  H   UNL     1       3.477   2.589  16.756  0.00  0.00    +0.000 HD
ENDBRANCH   6  18
BRANCH   3  20
ATOM     20  C   UNL     1       7.748   5.927  19.125  0.00  0.00    +0.000 C 
BRANCH  20  21
ATOM     21  O   UNL     1       8.168   5.591  20.440  0.00  0.00    +0.000 OA
ATOM     22  H   UNL     1       8.678   4.757  20.375  0.00  0.00    +0.000 HD
ENDBRANCH  20  21
ENDBRANCH   3  20
TORSDOF 6
ENDMDL
MODEL 6
REMARK VINA RESULT:      -6.0      1.863      3.433
REMARK  Name = 
REMARK  6 active torsions:
REMARK  status: ('A' for Active; 'I' for Inactive)
REMARK    1  A    between atoms: N_4  and  C_5
REMARK    2  A    between atoms: C_7  and  C_8
REMARK    3  A    between atoms: C_8  and  O_9
REMARK    4  A    between atoms: C_10  and  O_11
REMARK    5  A    between atoms: C_12  and  O_13
REMARK    6  A    between atoms: C_14  and  O_15
REMARK                            x       y       z     vdW  Elec       q    Type
REMARK                         _______ _______ _______ _____ _____    ______ ____
ROOT
ATOM      1  C   UNL     1       4.615   4.036  17.635  0.00  0.00    +0.000 C 
ATOM      2  O   UNL     1       3.929   3.113  18.474  0.00  0.00    +0.000 OA
ATOM      3  C   UNL     1       3.610   3.578  19.790  0.00  0.00    +0.000 C 
ATOM      4  C   UNL     1       2.822   4.896  19.762  0.00  0.00    +0.000 C 
ATOM      5  C   UNL     1       3.576   5.947  18.927  0.00  0.00    +0.000 C 
ATOM      6  C   UNL     1       3.852   5.383  17.526  0.00  0.00    +0.000 C 
ENDROOT
BRANCH   1  10
ATOM      7  N   UNL     1       8.207   4.267  17.894  0.00  0.00    +0.000 N 
ATOM      8  C   UNL     1       7.002   4.355  17.283  0.00  0.00    +0.000 C 
ATOM      9  O   UNL     1       6.894   4.623  16.096  0.00  0.00    +0.000 OA
ATOM     10  N   UNL     1       5.970   4.143  18.141  0.00  0.00    +0.000 N 
ATOM     11  H   UNL     1       8.986   4.511  17.291  0.00  0.00    +0.000 HD
ATOM     12  H   UNL     1       8.275   4.644  18.830  0.00  0.00    +0.000 HD
ATOM     13  H   UNL     1       6.196   3.458  18.847  0.00  0.00    +0.000 HD
ENDBRANCH   1  10
BRANCH   4  14
ATOM     14  O   UNL     1       2.573   5.363  21.092  0.00  0.00    +0.000 OA
ATOM     15  H   UNL     1       3.402   5.294  21.602  0.00  0.00    +0.000 HD
ENDBRANCH   4  14
BRANCH   5  16
ATOM     16  O   UNL     1       2.816   7.161  18.872  0.00  0.00    +0.000 OA
ATOM     17  H   UNL     1       2.558   7.324  17.948  0.00  0.00    +0.000 HD
ENDBRANCH   5  16
BRANCH   6  18
ATOM     18  O   UNL     1       4.495   6.356  16.704  0.00  0.00    +0.000 OA
ATOM     19  H   UNL     1       4.332   6.129  15.770  0.00  0.00    +0.000 HD
ENDBRANCH   6  18
BRANCH   3  20
ATOM     20  C   UNL     1       2.825   2.455  20.494  0.00  0.00    +0.000 C 
BRANCH  20  21
ATOM     21  O   UNL     1       2.801   2.587  21.908  0.00  0.00    +0.000 OA
ATOM     22  H   UNL     1       3.334   1.853  22.275  0.00  0.00    +0.000 HD
ENDBRANCH  20  21
ENDBRANCH   3  20
TORSDOF 6
ENDMDL
MODEL 7
REMARK VINA RESULT:      -6.0      2.497      4.526
REMARK  Name = 
REMARK  6 active torsions:
REMARK  status: ('A' for Active; 'I' for Inactive)
REMARK    1  A    between atoms: N_4  and  C_5
REMARK    2  A    between atoms: C_7  and  C_8
REMARK    3  A    between atoms: C_8  and  O_9
REMARK    4  A    between atoms: C_10  and  O_11
REMARK    5  A    between atoms: C_12  and  O_13
REMARK    6  A    between atoms: C_14  and  O_15
REMARK                            x       y       z     vdW  Elec       q    Type
REMARK                         _______ _______ _______ _____ _____    ______ ____
ROOT
ATOM      1  C   UNL     1       5.070   4.135  18.632  0.00  0.00    +0.000 C 
ATOM      2  O   UNL     1       6.095   4.094  17.645  0.00  0.00    +0.000 OA
ATOM      3  C   UNL     1       5.788   4.725  16.396  0.00  0.00    +0.000 C 
ATOM      4  C   UNL     1       5.342   6.182  16.580  0.00  0.00    +0.000 C 
ATOM      5  C   UNL     1       4.177   6.258  17.584  0.00  0.00    +0.000 C 
ATOM      6  C   UNL     1       4.596   5.588  18.901  0.00  0.00    +0.000 C 
ENDROOT
BRANCH   1  10
ATOM      7  N   UNL     1       2.585   1.522  18.516  0.00  0.00    +0.000 N 
ATOM      8  C   UNL     1       3.412   2.418  19.105  0.00  0.00    +0.000 C 
ATOM      9  O   UNL     1       3.544   2.480  20.317  0.00  0.00    +0.000 OA
ATOM     10  N   UNL     1       4.028   3.225  18.201  0.00  0.00    +0.000 N 
ATOM     11  H   UNL     1       2.049   0.970  19.177  0.00  0.00    +0.000 HD
ATOM     12  H   UNL     1       2.054   1.843  17.718  0.00  0.00    +0.000 HD
ATOM     13  H   UNL     1       4.240   2.741  17.340  0.00  0.00    +0.000 HD
ENDBRANCH   1  10
BRANCH   4  14
ATOM     14  O   UNL     1       4.987   6.764  15.321  0.00  0.00    +0.000 OA
ATOM     15  H   UNL     1       5.031   7.734  15.408  0.00  0.00    +0.000 HD
ENDBRANCH   4  14
BRANCH   5  16
ATOM     16  O   UNL     1       3.792   7.625  17.781  0.00  0.00    +0.000 OA
ATOM     17  H   UNL     1       3.000   7.803  17.246  0.00  0.00    +0.000 HD
ENDBRANCH   5  16
BRANCH   6  18
ATOM     18  O   UNL     1       3.562   5.696  19.878  0.00  0.00    +0.000 OA
ATOM     19  H   UNL     1       2.913   4.985  19.723  0.00  0.00    +0.000 HD
ENDBRANCH   6  18
BRANCH   3  20
ATOM     20  C   UNL     1       7.044   4.617  15.510  0.00  0.00    +0.000 C 
BRANCH  20  21
ATOM     21  O   UNL     1       7.714   5.857  15.333  0.00  0.00    +0.000 OA
ATOM     22  H   UNL     1       7.577   6.378  16.150  0.00  0.00    +0.000 HD
ENDBRANCH  20  21
ENDBRANCH   3  20
TORSDOF 6
ENDMDL
MODEL 8
REMARK VINA RESULT:      -6.0      2.181      4.598
REMARK  Name = 
REMARK  6 active torsions:
REMARK  status: ('A' for Active; 'I' for Inactive)
REMARK    1  A    between atoms: N_4  and  C_5
REMARK    2  A    between atoms: C_7  and  C_8
REMARK    3  A    between atoms: C_8  and  O_9
REMARK    4  A    between atoms: C_10  and  O_11
REMARK    5  A    between atoms: C_12  and  O_13
REMARK    6  A    between atoms: C_14  and  O_15
REMARK                            x       y       z     vdW  Elec       q    Type
REMARK                         _______ _______ _______ _____ _____    ______ ____
ROOT
ATOM      1  C   UNL     1       4.607   4.208  19.200  0.00  0.00    +0.000 C 
ATOM      2  O   UNL     1       5.877   4.173  18.559  0.00  0.00    +0.000 OA
ATOM      3  C   UNL     1       5.925   4.709  17.231  0.00  0.00    +0.000 C 
ATOM      4  C   UNL     1       5.382   6.143  17.168  0.00  0.00    +0.000 C 
ATOM      5  C   UNL     1       3.971   6.204  17.781  0.00  0.00    +0.000 C 
ATOM      6  C   UNL     1       4.012   5.641  19.209  0.00  0.00    +0.000 C 
ENDROOT
BRANCH   1  10
ATOM      7  N   UNL     1       2.335   1.478  18.564  0.00  0.00    +0.000 N 
ATOM      8  C   UNL     1       2.908   2.468  19.289  0.00  0.00    +0.000 C 
ATOM      9  O   UNL     1       2.630   2.657  20.463  0.00  0.00    +0.000 OA
ATOM     10  N   UNL     1       3.778   3.210  18.553  0.00  0.00    +0.000 N 
ATOM     11  H   UNL     1       1.616   0.970  19.070  0.00  0.00    +0.000 HD
ATOM     12  H   UNL     1       2.093   1.692  17.606  0.00  0.00    +0.000 HD
ATOM     13  H   UNL     1       4.269   2.654  17.869  0.00  0.00    +0.000 HD
ENDBRANCH   1  10
BRANCH   4  14
ATOM     14  O   UNL     1       5.388   6.625  15.819  0.00  0.00    +0.000 OA
ATOM     15  H   UNL     1       5.723   7.541  15.823  0.00  0.00    +0.000 HD
ENDBRANCH   4  14
BRANCH   5  16
ATOM     16  O   UNL     1       3.486   7.553  17.754  0.00  0.00    +0.000 OA
ATOM     17  H   UNL     1       3.767   7.966  16.919  0.00  0.00    +0.000 HD
ENDBRANCH   5  16
BRANCH   6  18
ATOM     18  O   UNL     1       2.732   5.741  19.832  0.00  0.00    +0.000 OA
ATOM     19  H   UNL     1       2.702   6.567  20.348  0.00  0.00    +0.000 HD
ENDBRANCH   6  18
BRANCH   3  20
ATOM     20  C   UNL     1       7.389   4.628  16.759  0.00  0.00    +0.000 C 
BRANCH  20  21
ATOM     21  O   UNL     1       8.256   4.036  17.716  0.00  0.00    +0.000 OA
ATOM     22  H   UNL     1       9.170   4.141  17.381  0.00  0.00    +0.000 HD
ENDBRANCH  20  21
ENDBRANCH   3  20
TORSDOF 6
ENDMDL
MODEL 9
REMARK VINA RESULT:      -6.0      1.758      3.407
REMARK  Name = 
REMARK  6 active torsions:
REMARK  status: ('A' for Active; 'I' for Inactive)
REMARK    1  A    between atoms: N_4  and  C_5
REMARK    2  A    between atoms: C_7  and  C_8
REMARK    3  A    between atoms: C_8  and  O_9
REMARK    4  A    between atoms: C_10  and  O_11
REMARK    5  A    between atoms: C_12  and  O_13
REMARK    6  A    between atoms: C_14  and  O_15
REMARK                            x       y       z     vdW  Elec       q    Type
REMARK                         _______ _______ _______ _____ _____    ______ ____
ROOT
ATOM      1  C   UNL     1       4.827   4.719  16.778  0.00  0.00    +0.000 C 
ATOM      2  O   UNL     1       3.943   3.604  16.777  0.00  0.00    +0.000 OA
ATOM      3  C   UNL     1       3.297   3.314  18.023  0.00  0.00    +0.000 C 
ATOM      4  C   UNL     1       2.550   4.532  18.583  0.00  0.00    +0.000 C 
ATOM      5  C   UNL     1       3.500   5.741  18.675  0.00  0.00    +0.000 C 
ATOM      6  C   UNL     1       4.125   6.002  17.297  0.00  0.00    +0.000 C 
ENDROOT
BRANCH   1  10
ATOM      7  N   UNL     1       8.232   4.169  17.836  0.00  0.00    +0.000 N 
ATOM      8  C   UNL     1       7.234   4.754  17.134  0.00  0.00    +0.000 C 
ATOM      9  O   UNL     1       7.452   5.590  16.269  0.00  0.00    +0.000 OA
ATOM     10  N   UNL     1       6.005   4.326  17.526  0.00  0.00    +0.000 N 
ATOM     11  H   UNL     1       9.152   4.541  17.621  0.00  0.00    +0.000 HD
ATOM     12  H   UNL     1       8.070   4.013  18.822  0.00  0.00    +0.000 HD
ATOM     13  H   UNL     1       6.010   3.353  17.797  0.00  0.00    +0.000 HD
ENDBRANCH   1  10
BRANCH   4  14
ATOM     14  O   UNL     1       1.968   4.225  19.855  0.00  0.00    +0.000 OA
ATOM     15  H   UNL     1       2.655   4.332  20.540  0.00  0.00    +0.000 HD
ENDBRANCH   4  14
BRANCH   5  16
ATOM     16  O   UNL     1       2.786   6.885  19.161  0.00  0.00    +0.000 OA
ATOM     17  H   UNL     1       3.103   7.089  20.059  0.00  0.00    +0.000 HD
ENDBRANCH   5  16
BRANCH   6  18
ATOM     18  O   UNL     1       4.964   7.156  17.330  0.00  0.00    +0.000 OA
ATOM     19  H   UNL     1       5.558   7.086  18.099  0.00  0.00    +0.000 HD
ENDBRANCH   6  18
BRANCH   3  20
ATOM     20  C   UNL     1       2.351   2.123  17.780  0.00  0.00    +0.000 C 
BRANCH  20  21
ATOM     21  O   UNL     1       1.851   1.549  18.979  0.00  0.00    +0.000 OA
ATOM     22  H   UNL     1       1.605   2.288  19.572  0.00  0.00    +0.000 HD
ENDBRANCH  20  21
ENDBRANCH   3  20
TORSDOF 6
ENDMDL
