MODEL 1
REMARK VINA RESULT:      -8.7      0.000      0.000
REMARK  Name = 
REMARK  9 active torsions:
REMARK  status: ('A' for Active; 'I' for Inactive)
REMARK    1  A    between atoms: C_2  and  C_3
REMARK    2  A    between atoms: C_2  and  C_13
REMARK    3  A    between atoms: C_4  and  C_5
REMARK    4  A    between atoms: C_8  and  O_9
REMARK    5  A    between atoms: C_11  and  O_12
REMARK    6  A    between atoms: C_17  and  N_18
REMARK    7  A    between atoms: N_18  and  S_19
REMARK    8  A    between atoms: S_19  and  C_22
REMARK    9  A    between atoms: C_25  and  O_26
REMARK                            x       y       z     vdW  Elec       q    Type
REMARK                         _______ _______ _______ _____ _____    ______ ____
ROOT
ATOM      1  C   UNL     1       1.202   9.222  19.503  0.00  0.00    +0.000 A 
ATOM      2  C   UNL     1       1.584   9.425  18.169  0.00  0.00    +0.000 A 
ATOM      3  C   UNL     1       2.401   8.496  17.525  0.00  0.00    +0.000 A 
ATOM      4  C   UNL     1       2.840   7.361  18.208  0.00  0.00    +0.000 A 
ATOM      5  C   UNL     1       2.434   7.139  19.526  0.00  0.00    +0.000 A 
ATOM      6  C   UNL     1       1.625   8.067  20.177  0.00  0.00    +0.000 A 
ENDROOT
BRANCH   1   8
ATOM      7  O   UNL     1       0.712  10.818  21.168  0.00  0.00    +0.000 OA
ATOM      8  C   UNL     1       0.300  10.169  20.214  0.00  0.00    +0.000 C 
BRANCH   8   9
ATOM      9  C   UNL     1      -1.091  10.313  19.711  0.00  0.00    +0.000 C 
ATOM     10  C   UNL     1      -1.363  11.247  18.789  0.00  0.00    +0.000 C 
BRANCH  10  11
ATOM     11  C   UNL     1      -2.725  11.464  18.296  0.00  0.00    +0.000 A 
ATOM     12  C   UNL     1      -3.704  11.944  19.176  0.00  0.00    +0.000 A 
ATOM     13  C   UNL     1      -5.013  12.153  18.734  0.00  0.00    +0.000 A 
ATOM     14  C   UNL     1      -5.339  11.878  17.409  0.00  0.00    +0.000 A 
ATOM     15  C   UNL     1      -4.383  11.404  16.518  0.00  0.00    +0.000 A 
ATOM     16  C   UNL     1      -3.077  11.203  16.963  0.00  0.00    +0.000 A 
BRANCH  14  17
ATOM     17  O   UNL     1      -6.604  12.067  16.935  0.00  0.00    +0.000 OA
ATOM     18  H   UNL     1      -6.670  11.666  16.052  0.00  0.00    +0.000 HD
ENDBRANCH  14  17
BRANCH  16  19
ATOM     19  O   UNL     1      -2.122  10.749  16.093  0.00  0.00    +0.000 OA
ATOM     20  H   UNL     1      -2.141   9.778  16.091  0.00  0.00    +0.000 HD
ENDBRANCH  16  19
ENDBRANCH  10  11
ENDBRANCH   8   9
ENDBRANCH   1   8
BRANCH   5  21
ATOM     21  N   UNL     1       2.848   5.973  20.214  0.00  0.00    +0.000 N 
ATOM     22  H   UNL     1       3.431   6.043  21.042  0.00  0.00    +0.000 HD
BRANCH  21  23
ATOM     23  S   UNL     1       2.782   4.463  19.476  0.00  0.00    +0.000 S 
ATOM     24  O   UNL     1       2.946   3.493  20.537  0.00  0.00    +0.000 OA
ATOM     25  O   UNL     1       1.647   4.416  18.578  0.00  0.00    +0.000 OA
BRANCH  23  26
ATOM     26  C   UNL     1       4.263   4.431  18.488  0.00  0.00    +0.000 A 
ATOM     27  C   UNL     1       5.477   4.856  19.038  0.00  0.00    +0.000 A 
ATOM     28  C   UNL     1       6.617   4.911  18.231  0.00  0.00    +0.000 A 
ATOM     29  C   UNL     1       6.527   4.529  16.893  0.00  0.00    +0.000 A 
ATOM     30  C   UNL     1       5.330   4.069  16.355  0.00  0.00    +0.000 A 
ATOM     31  C   UNL     1       4.194   3.997  17.160  0.00  0.00    +0.000 A 
BRANCH  29  32
ATOM     32  O   UNL     1       7.605   4.599  16.063  0.00  0.00    +0.000 OA
ATOM     33  H   UNL     1       7.653   3.783  15.538  0.00  0.00    +0.000 HD
ENDBRANCH  29  32
ENDBRANCH  23  26
ENDBRANCH  21  23
ENDBRANCH   5  21
TORSDOF 9
ENDMDL
MODEL 2
REMARK VINA RESULT:      -8.3      0.992      1.648
REMARK  Name = 
REMARK  9 active torsions:
REMARK  status: ('A' for Active; 'I' for Inactive)
REMARK    1  A    between atoms: C_2  and  C_3
REMARK    2  A    between atoms: C_2  and  C_13
REMARK    3  A    between atoms: C_4  and  C_5
REMARK    4  A    between atoms: C_8  and  O_9
REMARK    5  A    between atoms: C_11  and  O_12
REMARK    6  A    between atoms: C_17  and  N_18
REMARK    7  A    between atoms: N_18  and  S_19
REMARK    8  A    between atoms: S_19  and  C_22
REMARK    9  A    between atoms: C_25  and  O_26
REMARK                            x       y       z     vdW  Elec       q    Type
REMARK                         _______ _______ _______ _____ _____    ______ ____
ROOT
ATOM      1  C   UNL     1       1.142   9.259  19.310  0.00  0.00    +0.000 A 
ATOM      2  C   UNL     1       1.670   9.443  18.024  0.00  0.00    +0.000 A 
ATOM      3  C   UNL     1       2.566   8.513  17.495  0.00  0.00    +0.000 A 
ATOM      4  C   UNL     1       2.939   7.398  18.247  0.00  0.00    +0.000 A 
ATOM      5  C   UNL     1       2.389   7.195  19.514  0.00  0.00    +0.000 A 
ATOM      6  C   UNL     1       1.500   8.124  20.051  0.00  0.00    +0.000 A 
ENDROOT
BRANCH   1   8
ATOM      7  O   UNL     1       0.428  10.839  20.907  0.00  0.00    +0.000 OA
ATOM      8  C   UNL     1       0.154  10.206  19.895  0.00  0.00    +0.000 C 
BRANCH   8   9
ATOM      9  C   UNL     1      -1.148  10.370  19.196  0.00  0.00    +0.000 C 
ATOM     10  C   UNL     1      -1.822  11.521  19.324  0.00  0.00    +0.000 C 
BRANCH  10  11
ATOM     11  C   UNL     1      -3.131  11.717  18.698  0.00  0.00    +0.000 A 
ATOM     12  C   UNL     1      -3.307  11.362  17.353  0.00  0.00    +0.000 A 
ATOM     13  C   UNL     1      -4.544  11.546  16.728  0.00  0.00    +0.000 A 
ATOM     14  C   UNL     1      -5.602  12.086  17.452  0.00  0.00    +0.000 A 
ATOM     15  C   UNL     1      -5.450  12.442  18.788  0.00  0.00    +0.000 A 
ATOM     16  C   UNL     1      -4.216  12.252  19.408  0.00  0.00    +0.000 A 
BRANCH  14  17
ATOM     17  O   UNL     1      -6.825  12.283  16.882  0.00  0.00    +0.000 OA
ATOM     18  H   UNL     1      -6.726  12.267  15.915  0.00  0.00    +0.000 HD
ENDBRANCH  14  17
BRANCH  16  19
ATOM     19  O   UNL     1      -4.057  12.585  20.726  0.00  0.00    +0.000 OA
ATOM     20  H   UNL     1      -4.785  12.193  21.236  0.00  0.00    +0.000 HD
ENDBRANCH  16  19
ENDBRANCH  10  11
ENDBRANCH   8   9
ENDBRANCH   1   8
BRANCH   5  21
ATOM     21  N   UNL     1       2.736   6.048  20.268  0.00  0.00    +0.000 N 
ATOM     22  H   UNL     1       3.207   6.142  21.162  0.00  0.00    +0.000 HD
BRANCH  21  23
ATOM     23  S   UNL     1       2.797   4.527  19.552  0.00  0.00    +0.000 S 
ATOM     24  O   UNL     1       3.025   3.588  20.629  0.00  0.00    +0.000 OA
ATOM     25  O   UNL     1       1.678   4.378  18.645  0.00  0.00    +0.000 OA
BRANCH  23  26
ATOM     26  C   UNL     1       4.285   4.597  18.579  0.00  0.00    +0.000 A 
ATOM     27  C   UNL     1       4.266   4.179  17.244  0.00  0.00    +0.000 A 
ATOM     28  C   UNL     1       5.456   4.154  16.512  0.00  0.00    +0.000 A 
ATOM     29  C   UNL     1       6.643   4.557  17.123  0.00  0.00    +0.000 A 
ATOM     30  C   UNL     1       6.658   5.010  18.438  0.00  0.00    +0.000 A 
ATOM     31  C   UNL     1       5.470   5.053  19.167  0.00  0.00    +0.000 A 
BRANCH  29  32
ATOM     32  O   UNL     1       7.832   4.517  16.457  0.00  0.00    +0.000 OA
ATOM     33  H   UNL     1       8.510   4.143  17.044  0.00  0.00    +0.000 HD
ENDBRANCH  29  32
ENDBRANCH  23  26
ENDBRANCH  21  23
ENDBRANCH   5  21
TORSDOF 9
ENDMDL
MODEL 3
REMARK VINA RESULT:      -8.2      4.974      8.888
REMARK  Name = 
REMARK  9 active torsions:
REMARK  status: ('A' for Active; 'I' for Inactive)
REMARK    1  A    between atoms: C_2  and  C_3
REMARK    2  A    between atoms: C_2  and  C_13
REMARK    3  A    between atoms: C_4  and  C_5
REMARK    4  A    between atoms: C_8  and  O_9
REMARK    5  A    between atoms: C_11  and  O_12
REMARK    6  A    between atoms: C_17  and  N_18
REMARK    7  A    between atoms: N_18  and  S_19
REMARK    8  A    between atoms: S_19  and  C_22
REMARK    9  A    between atoms: C_25  and  O_26
REMARK                            x       y       z     vdW  Elec       q    Type
REMARK                         _______ _______ _______ _____ _____    ______ ____
ROOT
ATOM      1  C   UNL     1       6.807   6.017  17.555  0.00  0.00    +0.000 A 
ATOM      2  C   UNL     1       6.436   6.559  16.316  0.00  0.00    +0.000 A 
ATOM      3  C   UNL     1       5.480   5.916  15.528  0.00  0.00    +0.000 A 
ATOM      4  C   UNL     1       4.893   4.731  15.972  0.00  0.00    +0.000 A 
ATOM      5  C   UNL     1       5.235   4.207  17.219  0.00  0.00    +0.000 A 
ATOM      6  C   UNL     1       6.194   4.840  18.008  0.00  0.00    +0.000 A 
ENDROOT
BRANCH   1   8
ATOM      7  O   UNL     1       8.395   6.052  19.297  0.00  0.00    +0.000 OA
ATOM      8  C   UNL     1       7.792   6.692  18.444  0.00  0.00    +0.000 C 
BRANCH   8   9
ATOM      9  C   UNL     1       8.030   8.144  18.238  0.00  0.00    +0.000 C 
ATOM     10  C   UNL     1       8.781   8.818  19.120  0.00  0.00    +0.000 C 
BRANCH  10  11
ATOM     11  C   UNL     1       9.006  10.260  18.993  0.00  0.00    +0.000 A 
ATOM     12  C   UNL     1       8.900  10.860  17.731  0.00  0.00    +0.000 A 
ATOM     13  C   UNL     1       9.117  12.232  17.579  0.00  0.00    +0.000 A 
ATOM     14  C   UNL     1       9.443  13.001  18.693  0.00  0.00    +0.000 A 
ATOM     15  C   UNL     1       9.550  12.425  19.954  0.00  0.00    +0.000 A 
ATOM     16  C   UNL     1       9.327  11.057  20.101  0.00  0.00    +0.000 A 
BRANCH  14  17
ATOM     17  O   UNL     1       9.664  14.343  18.590  0.00  0.00    +0.000 OA
ATOM     18  H   UNL     1       9.132  14.799  19.263  0.00  0.00    +0.000 HD
ENDBRANCH  14  17
BRANCH  16  19
ATOM     19  O   UNL     1       9.416  10.481  21.340  0.00  0.00    +0.000 OA
ATOM     20  H   UNL     1      10.332  10.190  21.481  0.00  0.00    +0.000 HD
ENDBRANCH  16  19
ENDBRANCH  10  11
ENDBRANCH   8   9
ENDBRANCH   1   8
BRANCH   5  21
ATOM     21  N   UNL     1       4.617   3.023  17.691  0.00  0.00    +0.000 N 
ATOM     22  H   UNL     1       5.117   2.140  17.678  0.00  0.00    +0.000 HD
BRANCH  21  23
ATOM     23  S   UNL     1       2.947   2.929  17.866  0.00  0.00    +0.000 S 
ATOM     24  O   UNL     1       2.397   3.092  16.537  0.00  0.00    +0.000 OA
ATOM     25  O   UNL     1       2.613   1.783  18.686  0.00  0.00    +0.000 OA
BRANCH  23  26
ATOM     26  C   UNL     1       2.554   4.398  18.791  0.00  0.00    +0.000 A 
ATOM     27  C   UNL     1       2.457   5.631  18.136  0.00  0.00    +0.000 A 
ATOM     28  C   UNL     1       2.235   6.791  18.881  0.00  0.00    +0.000 A 
ATOM     29  C   UNL     1       2.102   6.701  20.266  0.00  0.00    +0.000 A 
ATOM     30  C   UNL     1       2.159   5.472  20.915  0.00  0.00    +0.000 A 
ATOM     31  C   UNL     1       2.364   4.309  20.174  0.00  0.00    +0.000 A 
BRANCH  29  32
ATOM     32  O   UNL     1       1.919   7.811  21.034  0.00  0.00    +0.000 OA
ATOM     33  H   UNL     1       1.069   7.737  21.500  0.00  0.00    +0.000 HD
ENDBRANCH  29  32
ENDBRANCH  23  26
ENDBRANCH  21  23
ENDBRANCH   5  21
TORSDOF 9
ENDMDL
MODEL 4
REMARK VINA RESULT:      -8.0      1.781      2.855
REMARK  Name = 
REMARK  9 active torsions:
REMARK  status: ('A' for Active; 'I' for Inactive)
REMARK    1  A    between atoms: C_2  and  C_3
REMARK    2  A    between atoms: C_2  and  C_13
REMARK    3  A    between atoms: C_4  and  C_5
REMARK    4  A    between atoms: C_8  and  O_9
REMARK    5  A    between atoms: C_11  and  O_12
REMARK    6  A    between atoms: C_17  and  N_18
REMARK    7  A    between atoms: N_18  and  S_19
REMARK    8  A    between atoms: S_19  and  C_22
REMARK    9  A    between atoms: C_25  and  O_26
REMARK                            x       y       z     vdW  Elec       q    Type
REMARK                         _______ _______ _______ _____ _____    ______ ____
ROOT
ATOM      1  C   UNL     1       2.145   7.341  18.840  0.00  0.00    +0.000 A 
ATOM      2  C   UNL     1       1.888   7.494  20.211  0.00  0.00    +0.000 A 
ATOM      3  C   UNL     1       1.732   6.370  21.023  0.00  0.00    +0.000 A 
ATOM      4  C   UNL     1       1.830   5.092  20.473  0.00  0.00    +0.000 A 
ATOM      5  C   UNL     1       2.119   4.937  19.116  0.00  0.00    +0.000 A 
ATOM      6  C   UNL     1       2.268   6.054  18.297  0.00  0.00    +0.000 A 
ENDROOT
BRANCH   1   8
ATOM      7  O   UNL     1       3.463   8.731  17.466  0.00  0.00    +0.000 OA
ATOM      8  C   UNL     1       2.357   8.512  17.946  0.00  0.00    +0.000 C 
BRANCH   8   9
ATOM      9  C   UNL     1       1.186   9.375  17.643  0.00  0.00    +0.000 C 
ATOM     10  C   UNL     1       0.091   9.291  18.410  0.00  0.00    +0.000 C 
BRANCH  10  11
ATOM     11  C   UNL     1      -1.108  10.082  18.125  0.00  0.00    +0.000 A 
ATOM     12  C   UNL     1      -1.869   9.787  16.985  0.00  0.00    +0.000 A 
ATOM     13  C   UNL     1      -3.013  10.531  16.685  0.00  0.00    +0.000 A 
ATOM     14  C   UNL     1      -3.393  11.571  17.528  0.00  0.00    +0.000 A 
ATOM     15  C   UNL     1      -2.655  11.878  18.666  0.00  0.00    +0.000 A 
ATOM     16  C   UNL     1      -1.517  11.129  18.963  0.00  0.00    +0.000 A 
BRANCH  14  17
ATOM     17  O   UNL     1      -4.502  12.323  17.273  0.00  0.00    +0.000 OA
ATOM     18  H   UNL     1      -4.674  12.311  16.317  0.00  0.00    +0.000 HD
ENDBRANCH  14  17
BRANCH  16  19
ATOM     19  O   UNL     1      -0.789  11.413  20.087  0.00  0.00    +0.000 OA
ATOM     20  H   UNL     1      -0.173  12.136  19.884  0.00  0.00    +0.000 HD
ENDBRANCH  16  19
ENDBRANCH  10  11
ENDBRANCH   8   9
ENDBRANCH   1   8
BRANCH   5  21
ATOM     21  N   UNL     1       2.253   3.643  18.557  0.00  0.00    +0.000 N 
ATOM     22  H   UNL     1       1.433   3.080  18.355  0.00  0.00    +0.000 HD
BRANCH  21  23
ATOM     23  S   UNL     1       3.720   2.822  18.619  0.00  0.00    +0.000 S 
ATOM     24  O   UNL     1       4.080   2.752  20.019  0.00  0.00    +0.000 OA
ATOM     25  O   UNL     1       3.640   1.630  17.800  0.00  0.00    +0.000 OA
BRANCH  23  26
ATOM     26  C   UNL     1       4.849   3.952  17.832  0.00  0.00    +0.000 A 
ATOM     27  C   UNL     1       4.835   4.095  16.439  0.00  0.00    +0.000 A 
ATOM     28  C   UNL     1       5.781   4.917  15.822  0.00  0.00    +0.000 A 
ATOM     29  C   UNL     1       6.718   5.590  16.605  0.00  0.00    +0.000 A 
ATOM     30  C   UNL     1       6.709   5.480  17.992  0.00  0.00    +0.000 A 
ATOM     31  C   UNL     1       5.756   4.674  18.614  0.00  0.00    +0.000 A 
BRANCH  29  32
ATOM     32  O   UNL     1       7.679   6.374  16.042  0.00  0.00    +0.000 OA
ATOM     33  H   UNL     1       7.270   6.942  15.368  0.00  0.00    +0.000 HD
ENDBRANCH  29  32
ENDBRANCH  23  26
ENDBRANCH  21  23
ENDBRANCH   5  21
TORSDOF 9
ENDMDL
MODEL 5
REMARK VINA RESULT:      -8.0      3.427      5.210
REMARK  Name = 
REMARK  9 active torsions:
REMARK  status: ('A' for Active; 'I' for Inactive)
REMARK    1  A    between atoms: C_2  and  C_3
REMARK    2  A    between atoms: C_2  and  C_13
REMARK    3  A    between atoms: C_4  and  C_5
REMARK    4  A    between atoms: C_8  and  O_9
REMARK    5  A    between atoms: C_11  and  O_12
REMARK    6  A    between atoms: C_17  and  N_18
REMARK    7  A    between atoms: N_18  and  S_19
REMARK    8  A    between atoms: S_19  and  C_22
REMARK    9  A    between atoms: C_25  and  O_26
REMARK                            x       y       z     vdW  Elec       q    Type
REMARK                         _______ _______ _______ _____ _____    ______ ____
ROOT
ATOM      1  C   UNL     1       2.430   4.464  19.351  0.00  0.00    +0.000 A 
ATOM      2  C   UNL     1       1.405   3.600  18.939  0.00  0.00    +0.000 A 
ATOM      3  C   UNL     1       1.642   2.657  17.938  0.00  0.00    +0.000 A 
ATOM      4  C   UNL     1       2.902   2.572  17.345  0.00  0.00    +0.000 A 
ATOM      5  C   UNL     1       3.934   3.407  17.776  0.00  0.00    +0.000 A 
ATOM      6  C   UNL     1       3.702   4.356  18.769  0.00  0.00    +0.000 A 
ENDROOT
BRANCH   1   8
ATOM      7  O   UNL     1       2.210   5.093  21.612  0.00  0.00    +0.000 OA
ATOM      8  C   UNL     1       2.230   5.456  20.442  0.00  0.00    +0.000 C 
BRANCH   8   9
ATOM      9  C   UNL     1       2.087   6.886  20.062  0.00  0.00    +0.000 C 
ATOM     10  C   UNL     1       1.311   7.689  20.803  0.00  0.00    +0.000 C 
BRANCH  10  11
ATOM     11  C   UNL     1       1.096   9.092  20.444  0.00  0.00    +0.000 A 
ATOM     12  C   UNL     1       1.106   9.463  19.093  0.00  0.00    +0.000 A 
ATOM     13  C   UNL     1       0.911  10.797  18.724  0.00  0.00    +0.000 A 
ATOM     14  C   UNL     1       0.708  11.758  19.710  0.00  0.00    +0.000 A 
ATOM     15  C   UNL     1       0.691  11.410  21.057  0.00  0.00    +0.000 A 
ATOM     16  C   UNL     1       0.880  10.077  21.419  0.00  0.00    +0.000 A 
BRANCH  14  17
ATOM     17  O   UNL     1       0.515  13.070  19.394  0.00  0.00    +0.000 OA
ATOM     18  H   UNL     1       0.924  13.247  18.531  0.00  0.00    +0.000 HD
ENDBRANCH  14  17
BRANCH  16  19
ATOM     19  O   UNL     1       0.852   9.721  22.741  0.00  0.00    +0.000 OA
ATOM     20  H   UNL     1      -0.023   9.352  22.944  0.00  0.00    +0.000 HD
ENDBRANCH  16  19
ENDBRANCH  10  11
ENDBRANCH   8   9
ENDBRANCH   1   8
BRANCH   5  21
ATOM     21  N   UNL     1       5.224   3.304  17.202  0.00  0.00    +0.000 N 
ATOM     22  H   UNL     1       5.947   2.753  17.653  0.00  0.00    +0.000 HD
BRANCH  21  23
ATOM     23  S   UNL     1       5.744   4.401  16.038  0.00  0.00    +0.000 S 
ATOM     24  O   UNL     1       6.627   3.664  15.160  0.00  0.00    +0.000 OA
ATOM     25  O   UNL     1       4.605   5.132  15.523  0.00  0.00    +0.000 OA
BRANCH  23  26
ATOM     26  C   UNL     1       6.746   5.537  16.973  0.00  0.00    +0.000 A 
ATOM     27  C   UNL     1       7.383   5.106  18.143  0.00  0.00    +0.000 A 
ATOM     28  C   UNL     1       8.095   6.025  18.918  0.00  0.00    +0.000 A 
ATOM     29  C   UNL     1       8.169   7.355  18.506  0.00  0.00    +0.000 A 
ATOM     30  C   UNL     1       7.570   7.777  17.324  0.00  0.00    +0.000 A 
ATOM     31  C   UNL     1       6.873   6.861  16.538  0.00  0.00    +0.000 A 
BRANCH  29  32
ATOM     32  O   UNL     1       8.825   8.291  19.249  0.00  0.00    +0.000 OA
ATOM     33  H   UNL     1       8.194   8.709  19.859  0.00  0.00    +0.000 HD
ENDBRANCH  29  32
ENDBRANCH  23  26
ENDBRANCH  21  23
ENDBRANCH   5  21
TORSDOF 9
ENDMDL
MODEL 6
REMARK VINA RESULT:      -8.0      1.289      1.843
REMARK  Name = 
REMARK  9 active torsions:
REMARK  status: ('A' for Active; 'I' for Inactive)
REMARK    1  A    between atoms: C_2  and  C_3
REMARK    2  A    between atoms: C_2  and  C_13
REMARK    3  A    between atoms: C_4  and  C_5
REMARK    4  A    between atoms: C_8  and  O_9
REMARK    5  A    between atoms: C_11  and  O_12
REMARK    6  A    between atoms: C_17  and  N_18
REMARK    7  A    between atoms: N_18  and  S_19
REMARK    8  A    between atoms: S_19  and  C_22
REMARK    9  A    between atoms: C_25  and  O_26
REMARK                            x       y       z     vdW  Elec       q    Type
REMARK                         _______ _______ _______ _____ _____    ______ ____
ROOT
ATOM      1  C   UNL     1       1.092   9.245  19.557  0.00  0.00    +0.000 A 
ATOM      2  C   UNL     1       0.332   9.003  20.710  0.00  0.00    +0.000 A 
ATOM      3  C   UNL     1       0.555   7.852  21.468  0.00  0.00    +0.000 A 
ATOM      4  C   UNL     1       1.535   6.940  21.078  0.00  0.00    +0.000 A 
ATOM      5  C   UNL     1       2.317   7.194  19.949  0.00  0.00    +0.000 A 
ATOM      6  C   UNL     1       2.094   8.337  19.184  0.00  0.00    +0.000 A 
ENDROOT
BRANCH   1   8
ATOM      7  O   UNL     1       1.878  11.012  18.208  0.00  0.00    +0.000 OA
ATOM      8  C   UNL     1       0.914  10.479  18.744  0.00  0.00    +0.000 C 
BRANCH   8   9
ATOM      9  C   UNL     1      -0.465  11.013  18.586  0.00  0.00    +0.000 C 
ATOM     10  C   UNL     1      -1.316  10.399  17.754  0.00  0.00    +0.000 C 
BRANCH  10  11
ATOM     11  C   UNL     1      -2.669  10.912  17.524  0.00  0.00    +0.000 A 
ATOM     12  C   UNL     1      -3.360  11.518  18.582  0.00  0.00    +0.000 A 
ATOM     13  C   UNL     1      -4.655  12.009  18.392  0.00  0.00    +0.000 A 
ATOM     14  C   UNL     1      -5.255  11.891  17.142  0.00  0.00    +0.000 A 
ATOM     15  C   UNL     1      -4.586  11.296  16.079  0.00  0.00    +0.000 A 
ATOM     16  C   UNL     1      -3.292  10.812  16.272  0.00  0.00    +0.000 A 
BRANCH  14  17
ATOM     17  O   UNL     1      -6.517  12.356  16.914  0.00  0.00    +0.000 OA
ATOM     18  H   UNL     1      -6.457  13.196  16.428  0.00  0.00    +0.000 HD
ENDBRANCH  14  17
BRANCH  16  19
ATOM     19  O   UNL     1      -2.617  10.236  15.229  0.00  0.00    +0.000 OA
ATOM     20  H   UNL     1      -2.333   9.347  15.496  0.00  0.00    +0.000 HD
ENDBRANCH  16  19
ENDBRANCH  10  11
ENDBRANCH   8   9
ENDBRANCH   1   8
BRANCH   5  21
ATOM     21  N   UNL     1       3.336   6.289  19.566  0.00  0.00    +0.000 N 
ATOM     22  H   UNL     1       4.314   6.538  19.676  0.00  0.00    +0.000 HD
BRANCH  21  23
ATOM     23  S   UNL     1       3.008   5.000  18.537  0.00  0.00    +0.000 S 
ATOM     24  O   UNL     1       3.207   3.801  19.323  0.00  0.00    +0.000 OA
ATOM     25  O   UNL     1       1.763   5.247  17.839  0.00  0.00    +0.000 OA
BRANCH  23  26
ATOM     26  C   UNL     1       4.329   5.086  17.347  0.00  0.00    +0.000 A 
ATOM     27  C   UNL     1       4.590   3.991  16.516  0.00  0.00    +0.000 A 
ATOM     28  C   UNL     1       5.683   4.032  15.646  0.00  0.00    +0.000 A 
ATOM     29  C   UNL     1       6.489   5.169  15.613  0.00  0.00    +0.000 A 
ATOM     30  C   UNL     1       6.208   6.274  16.410  0.00  0.00    +0.000 A 
ATOM     31  C   UNL     1       5.108   6.244  17.268  0.00  0.00    +0.000 A 
BRANCH  29  32
ATOM     32  O   UNL     1       7.584   5.238  14.804  0.00  0.00    +0.000 OA
ATOM     33  H   UNL     1       8.113   6.014  15.054  0.00  0.00    +0.000 HD
ENDBRANCH  29  32
ENDBRANCH  23  26
ENDBRANCH  21  23
ENDBRANCH   5  21
TORSDOF 9
ENDMDL
MODEL 7
REMARK VINA RESULT:      -7.9      3.507     10.068
REMARK  Name = 
REMARK  9 active torsions:
REMARK  status: ('A' for Active; 'I' for Inactive)
REMARK    1  A    between atoms: C_2  and  C_3
REMARK    2  A    between atoms: C_2  and  C_13
REMARK    3  A    between atoms: C_4  and  C_5
REMARK    4  A    between atoms: C_8  and  O_9
REMARK    5  A    between atoms: C_11  and  O_12
REMARK    6  A    between atoms: C_17  and  N_18
REMARK    7  A    between atoms: N_18  and  S_19
REMARK    8  A    between atoms: S_19  and  C_22
REMARK    9  A    between atoms: C_25  and  O_26
REMARK                            x       y       z     vdW  Elec       q    Type
REMARK                         _______ _______ _______ _____ _____    ______ ____
ROOT
ATOM      1  C   UNL     1       1.517   8.894  19.643  0.00  0.00    +0.000 A 
ATOM      2  C   UNL     1       1.413   8.094  20.790  0.00  0.00    +0.000 A 
ATOM      3  C   UNL     1       0.821   8.602  21.947  0.00  0.00    +0.000 A 
ATOM      4  C   UNL     1       0.332   9.909  21.964  0.00  0.00    +0.000 A 
ATOM      5  C   UNL     1       0.403  10.696  20.814  0.00  0.00    +0.000 A 
ATOM      6  C   UNL     1       1.000  10.197  19.657  0.00  0.00    +0.000 A 
ENDROOT
BRANCH   1   8
ATOM      7  O   UNL     1       2.106   9.072  17.367  0.00  0.00    +0.000 OA
ATOM      8  C   UNL     1       2.104   8.378  18.376  0.00  0.00    +0.000 C 
BRANCH   8   9
ATOM      9  C   UNL     1       2.704   7.018  18.394  0.00  0.00    +0.000 C 
ATOM     10  C   UNL     1       1.926   5.953  18.160  0.00  0.00    +0.000 C 
BRANCH  10  11
ATOM     11  C   UNL     1       2.457   4.588  18.214  0.00  0.00    +0.000 A 
ATOM     12  C   UNL     1       3.553   4.248  17.411  0.00  0.00    +0.000 A 
ATOM     13  C   UNL     1       4.074   2.951  17.438  0.00  0.00    +0.000 A 
ATOM     14  C   UNL     1       3.494   1.997  18.269  0.00  0.00    +0.000 A 
ATOM     15  C   UNL     1       2.407   2.315  19.076  0.00  0.00    +0.000 A 
ATOM     16  C   UNL     1       1.895   3.612  19.050  0.00  0.00    +0.000 A 
BRANCH  14  17
ATOM     17  O   UNL     1       3.970   0.720  18.325  0.00  0.00    +0.000 OA
ATOM     18  H   UNL     1       3.238   0.106  18.145  0.00  0.00    +0.000 HD
ENDBRANCH  14  17
BRANCH  16  19
ATOM     19  O   UNL     1       0.834   3.941  19.849  0.00  0.00    +0.000 OA
ATOM     20  H   UNL     1       0.044   4.038  19.292  0.00  0.00    +0.000 HD
ENDBRANCH  16  19
ENDBRANCH  10  11
ENDBRANCH   8   9
ENDBRANCH   1   8
BRANCH   5  21
ATOM     21  N   UNL     1      -0.122  12.011  20.814  0.00  0.00    +0.000 N 
ATOM     22  H   UNL     1       0.190  12.691  21.499  0.00  0.00    +0.000 HD
BRANCH  21  23
ATOM     23  S   UNL     1      -1.555  12.370  20.009  0.00  0.00    +0.000 S 
ATOM     24  O   UNL     1      -1.371  13.686  19.434  0.00  0.00    +0.000 OA
ATOM     25  O   UNL     1      -1.946  11.238  19.194  0.00  0.00    +0.000 OA
BRANCH  23  26
ATOM     26  C   UNL     1      -2.734  12.525  21.333  0.00  0.00    +0.000 A 
ATOM     27  C   UNL     1      -4.040  12.949  21.058  0.00  0.00    +0.000 A 
ATOM     28  C   UNL     1      -4.934  13.152  22.112  0.00  0.00    +0.000 A 
ATOM     29  C   UNL     1      -4.514  12.918  23.421  0.00  0.00    +0.000 A 
ATOM     30  C   UNL     1      -3.230  12.460  23.693  0.00  0.00    +0.000 A 
ATOM     31  C   UNL     1      -2.338  12.239  22.644  0.00  0.00    +0.000 A 
BRANCH  29  32
ATOM     32  O   UNL     1      -5.343  13.136  24.480  0.00  0.00    +0.000 OA
ATOM     33  H   UNL     1      -6.008  12.428  24.512  0.00  0.00    +0.000 HD
ENDBRANCH  29  32
ENDBRANCH  23  26
ENDBRANCH  21  23
ENDBRANCH   5  21
TORSDOF 9
ENDMDL
MODEL 8
REMARK VINA RESULT:      -7.9      1.713      2.415
REMARK  Name = 
REMARK  9 active torsions:
REMARK  status: ('A' for Active; 'I' for Inactive)
REMARK    1  A    between atoms: C_2  and  C_3
REMARK    2  A    between atoms: C_2  and  C_13
REMARK    3  A    between atoms: C_4  and  C_5
REMARK    4  A    between atoms: C_8  and  O_9
REMARK    5  A    between atoms: C_11  and  O_12
REMARK    6  A    between atoms: C_17  and  N_18
REMARK    7  A    between atoms: N_18  and  S_19
REMARK    8  A    between atoms: S_19  and  C_22
REMARK    9  A    between atoms: C_25  and  O_26
REMARK                            x       y       z     vdW  Elec       q    Type
REMARK                         _______ _______ _______ _____ _____    ______ ____
ROOT
ATOM      1  C   UNL     1       1.853   8.034  18.879  0.00  0.00    +0.000 A 
ATOM      2  C   UNL     1       1.678   7.886  20.263  0.00  0.00    +0.000 A 
ATOM      3  C   UNL     1       1.843   6.636  20.860  0.00  0.00    +0.000 A 
ATOM      4  C   UNL     1       2.183   5.530  20.080  0.00  0.00    +0.000 A 
ATOM      5  C   UNL     1       2.391   5.681  18.708  0.00  0.00    +0.000 A 
ATOM      6  C   UNL     1       2.220   6.925  18.104  0.00  0.00    +0.000 A 
ENDROOT
BRANCH   1   8
ATOM      7  O   UNL     1       2.704  10.083  18.082  0.00  0.00    +0.000 OA
ATOM      8  C   UNL     1       1.725   9.357  18.209  0.00  0.00    +0.000 C 
BRANCH   8   9
ATOM      9  C   UNL     1       0.390   9.743  17.682  0.00  0.00    +0.000 C 
ATOM     10  C   UNL     1      -0.515  10.278  18.513  0.00  0.00    +0.000 C 
BRANCH  10  11
ATOM     11  C   UNL     1      -1.862  10.629  18.058  0.00  0.00    +0.000 A 
ATOM     12  C   UNL     1      -2.345  10.079  16.862  0.00  0.00    +0.000 A 
ATOM     13  C   UNL     1      -3.624  10.404  16.401  0.00  0.00    +0.000 A 
ATOM     14  C   UNL     1      -4.416  11.279  17.137  0.00  0.00    +0.000 A 
ATOM     15  C   UNL     1      -3.957  11.833  18.328  0.00  0.00    +0.000 A 
ATOM     16  C   UNL     1      -2.683  11.502  18.787  0.00  0.00    +0.000 A 
BRANCH  14  17
ATOM     17  O   UNL     1      -5.669  11.623  16.723  0.00  0.00    +0.000 OA
ATOM     18  H   UNL     1      -6.263  11.623  17.493  0.00  0.00    +0.000 HD
ENDBRANCH  14  17
BRANCH  16  19
ATOM     19  O   UNL     1      -2.224  12.030  19.964  0.00  0.00    +0.000 OA
ATOM     20  H   UNL     1      -1.270  12.191  19.880  0.00  0.00    +0.000 HD
ENDBRANCH  16  19
ENDBRANCH  10  11
ENDBRANCH   8   9
ENDBRANCH   1   8
BRANCH   5  21
ATOM     21  N   UNL     1       2.770   4.570  17.916  0.00  0.00    +0.000 N 
ATOM     22  H   UNL     1       2.103   4.132  17.289  0.00  0.00    +0.000 HD
BRANCH  21  23
ATOM     23  S   UNL     1       4.142   3.671  18.287  0.00  0.00    +0.000 S 
ATOM     24  O   UNL     1       4.620   4.177  19.556  0.00  0.00    +0.000 OA
ATOM     25  O   UNL     1       3.862   2.263  18.093  0.00  0.00    +0.000 OA
BRANCH  23  26
ATOM     26  C   UNL     1       5.305   4.174  17.037  0.00  0.00    +0.000 A 
ATOM     27  C   UNL     1       6.381   5.002  17.379  0.00  0.00    +0.000 A 
ATOM     28  C   UNL     1       7.240   5.464  16.378  0.00  0.00    +0.000 A 
ATOM     29  C   UNL     1       7.015   5.084  15.055  0.00  0.00    +0.000 A 
ATOM     30  C   UNL     1       5.970   4.231  14.719  0.00  0.00    +0.000 A 
ATOM     31  C   UNL     1       5.121   3.753  15.716  0.00  0.00    +0.000 A 
BRANCH  29  32
ATOM     32  O   UNL     1       7.808   5.539  14.044  0.00  0.00    +0.000 OA
ATOM     33  H   UNL     1       7.830   4.874  13.336  0.00  0.00    +0.000 HD
ENDBRANCH  29  32
ENDBRANCH  23  26
ENDBRANCH  21  23
ENDBRANCH   5  21
TORSDOF 9
ENDMDL
MODEL 9
REMARK VINA RESULT:      -7.9      3.030     10.294
REMARK  Name = 
REMARK  9 active torsions:
REMARK  status: ('A' for Active; 'I' for Inactive)
REMARK    1  A    between atoms: C_2  and  C_3
REMARK    2  A    between atoms: C_2  and  C_13
REMARK    3  A    between atoms: C_4  and  C_5
REMARK    4  A    between atoms: C_8  and  O_9
REMARK    5  A    between atoms: C_11  and  O_12
REMARK    6  A    between atoms: C_17  and  N_18
REMARK    7  A    between atoms: N_18  and  S_19
REMARK    8  A    between atoms: S_19  and  C_22
REMARK    9  A    between atoms: C_25  and  O_26
REMARK                            x       y       z     vdW  Elec       q    Type
REMARK                         _______ _______ _______ _____ _____    ______ ____
ROOT
ATOM      1  C   UNL     1       0.883   9.485  18.914  0.00  0.00    +0.000 A 
ATOM      2  C   UNL     1       0.800   9.365  20.309  0.00  0.00    +0.000 A 
ATOM      3  C   UNL     1      -0.226  10.003  21.007  0.00  0.00    +0.000 A 
ATOM      4  C   UNL     1      -1.172  10.762  20.318  0.00  0.00    +0.000 A 
ATOM      5  C   UNL     1      -1.111  10.856  18.926  0.00  0.00    +0.000 A 
ATOM      6  C   UNL     1      -0.085  10.228  18.224  0.00  0.00    +0.000 A 
ENDROOT
BRANCH   1   8
ATOM      7  O   UNL     1       2.344   9.269  17.076  0.00  0.00    +0.000 OA
ATOM      8  C   UNL     1       1.938   8.789  18.128  0.00  0.00    +0.000 C 
BRANCH   8   9
ATOM      9  C   UNL     1       2.489   7.522  18.676  0.00  0.00    +0.000 C 
ATOM     10  C   UNL     1       2.892   6.561  17.833  0.00  0.00    +0.000 C 
BRANCH  10  11
ATOM     11  C   UNL     1       3.397   5.275  18.320  0.00  0.00    +0.000 A 
ATOM     12  C   UNL     1       4.614   5.236  19.013  0.00  0.00    +0.000 A 
ATOM     13  C   UNL     1       5.122   4.021  19.482  0.00  0.00    +0.000 A 
ATOM     14  C   UNL     1       4.410   2.848  19.254  0.00  0.00    +0.000 A 
ATOM     15  C   UNL     1       3.199   2.865  18.571  0.00  0.00    +0.000 A 
ATOM     16  C   UNL     1       2.693   4.080  18.110  0.00  0.00    +0.000 A 
BRANCH  14  17
ATOM     17  O   UNL     1       4.869   1.641  19.693  0.00  0.00    +0.000 OA
ATOM     18  H   UNL     1       5.762   1.760  20.058  0.00  0.00    +0.000 HD
ENDBRANCH  14  17
BRANCH  16  19
ATOM     19  O   UNL     1       1.495   4.113  17.449  0.00  0.00    +0.000 OA
ATOM     20  H   UNL     1       1.259   3.207  17.190  0.00  0.00    +0.000 HD
ENDBRANCH  16  19
ENDBRANCH  10  11
ENDBRANCH   8   9
ENDBRANCH   1   8
BRANCH   5  21
ATOM     21  N   UNL     1      -2.088  11.597  18.217  0.00  0.00    +0.000 N 
ATOM     22  H   UNL     1      -2.153  12.603  18.329  0.00  0.00    +0.000 HD
BRANCH  21  23
ATOM     23  S   UNL     1      -3.423  10.837  17.533  0.00  0.00    +0.000 S 
ATOM     24  O   UNL     1      -3.527  11.351  16.184  0.00  0.00    +0.000 OA
ATOM     25  O   UNL     1      -3.353   9.414  17.796  0.00  0.00    +0.000 OA
BRANCH  23  26
ATOM     26  C   UNL     1      -4.787  11.499  18.465  0.00  0.00    +0.000 A 
ATOM     27  C   UNL     1      -6.100  11.170  18.109  0.00  0.00    +0.000 A 
ATOM     28  C   UNL     1      -7.167  11.763  18.790  0.00  0.00    +0.000 A 
ATOM     29  C   UNL     1      -6.905  12.664  19.821  0.00  0.00    +0.000 A 
ATOM     30  C   UNL     1      -5.601  12.963  20.202  0.00  0.00    +0.000 A 
ATOM     31  C   UNL     1      -4.533  12.362  19.537  0.00  0.00    +0.000 A 
BRANCH  29  32
ATOM     32  O   UNL     1      -7.915  13.291  20.488  0.00  0.00    +0.000 OA
ATOM     33  H   UNL     1      -8.434  13.816  19.856  0.00  0.00    +0.000 HD
ENDBRANCH  29  32
ENDBRANCH  23  26
ENDBRANCH  21  23
ENDBRANCH   5  21
TORSDOF 9
ENDMDL
