MODEL 1
REMARK VINA RESULT:      -7.8      0.000      0.000
REMARK  Name = 
REMARK  2 active torsions:
REMARK  status: ('A' for Active; 'I' for Inactive)
REMARK    1  A    between atoms: C_2  and  C_14
REMARK    2  A    between atoms: C_17  and  N_18
REMARK                            x       y       z     vdW  Elec       q    Type
REMARK                         _______ _______ _______ _____ _____    ______ ____
ROOT
ATOM      1  O   UNL     1       2.418   5.766  19.890  0.00  0.00    +0.000 OA
ATOM      2  C   UNL     1       2.819   6.407  18.921  0.00  0.00    +0.000 C 
ATOM      3  N   UNL     1       2.451   7.707  18.643  0.00  0.00    +0.000 N 
ATOM      4  C   UNL     1       1.701   8.426  19.537  0.00  0.00    +0.000 A 
ATOM      5  N   UNL     1       1.443   8.134  20.781  0.00  0.00    +0.000 NA
ATOM      6  C   UNL     1       0.635   9.102  21.337  0.00  0.00    +0.000 A 
ATOM      7  C   UNL     1       0.164   9.114  22.665  0.00  0.00    +0.000 A 
ATOM      8  C   UNL     1      -0.669  10.150  23.095  0.00  0.00    +0.000 A 
ATOM      9  C   UNL     1      -1.038  11.160  22.212  0.00  0.00    +0.000 A 
ATOM     10 CL   UNL     1      -2.076  12.419  22.762  0.00  0.00    +0.000 Cl
ATOM     11  C   UNL     1      -0.579  11.180  20.890  0.00  0.00    +0.000 A 
ATOM     12  C   UNL     1       0.273  10.140  20.475  0.00  0.00    +0.000 A 
ATOM     13  S   UNL     1       1.044   9.884  18.946  0.00  0.00    +0.000 S 
ATOM     14  H   UNL     1       2.668   8.129  17.751  0.00  0.00    +0.000 HD
ENDROOT
BRANCH   2  15
ATOM     15  C   UNL     1       3.702   5.762  17.952  0.00  0.00    +0.000 A 
ATOM     16  C   UNL     1       3.559   4.466  17.485  0.00  0.00    +0.000 A 
ATOM     17  C   UNL     1       4.619   4.066  16.624  0.00  0.00    +0.000 A 
ATOM     18  C   UNL     1       5.538   5.078  16.467  0.00  0.00    +0.000 A 
ATOM     19  S   UNL     1       5.103   6.501  17.298  0.00  0.00    +0.000 S 
BRANCH  18  20
ATOM     20  N   UNL     1       6.759   5.005  15.708  0.00  0.00    +0.000 N 
ATOM     21  O   UNL     1       7.735   4.504  16.284  0.00  0.00    +0.000 OA
ATOM     22  O   UNL     1       6.755   5.443  14.550  0.00  0.00    +0.000 OA
ENDBRANCH  18  20
ENDBRANCH   2  15
TORSDOF 2
ENDMDL
MODEL 2
REMARK VINA RESULT:      -7.6      1.186      1.356
REMARK  Name = 
REMARK  2 active torsions:
REMARK  status: ('A' for Active; 'I' for Inactive)
REMARK    1  A    between atoms: C_2  and  C_14
REMARK    2  A    between atoms: C_17  and  N_18
REMARK                            x       y       z     vdW  Elec       q    Type
REMARK                         _______ _______ _______ _____ _____    ______ ____
ROOT
ATOM      1  O   UNL     1       3.125   5.306  18.926  0.00  0.00    +0.000 OA
ATOM      2  C   UNL     1       3.472   5.965  17.948  0.00  0.00    +0.000 C 
ATOM      3  N   UNL     1       3.057   7.256  17.696  0.00  0.00    +0.000 N 
ATOM      4  C   UNL     1       2.323   7.947  18.623  0.00  0.00    +0.000 A 
ATOM      5  N   UNL     1       2.120   7.638  19.874  0.00  0.00    +0.000 NA
ATOM      6  C   UNL     1       1.307   8.579  20.468  0.00  0.00    +0.000 A 
ATOM      7  C   UNL     1       0.887   8.568  21.813  0.00  0.00    +0.000 A 
ATOM      8  C   UNL     1       0.043   9.577  22.283  0.00  0.00    +0.000 A 
ATOM      9  C   UNL     1      -0.387  10.583  21.424  0.00  0.00    +0.000 A 
ATOM     10 CL   UNL     1      -1.438  11.809  22.023  0.00  0.00    +0.000 Cl
ATOM     11  C   UNL     1       0.020  10.625  20.085  0.00  0.00    +0.000 A 
ATOM     12  C   UNL     1       0.884   9.613  19.630  0.00  0.00    +0.000 A 
ATOM     13  S   UNL     1       1.604   9.390  18.070  0.00  0.00    +0.000 S 
ATOM     14  H   UNL     1       3.229   7.690  16.800  0.00  0.00    +0.000 HD
ENDROOT
BRANCH   2  15
ATOM     15  C   UNL     1       4.335   5.352  16.941  0.00  0.00    +0.000 A 
ATOM     16  C   UNL     1       4.601   3.996  16.841  0.00  0.00    +0.000 A 
ATOM     17  C   UNL     1       5.555   3.691  15.829  0.00  0.00    +0.000 A 
ATOM     18  C   UNL     1       5.983   4.833  15.193  0.00  0.00    +0.000 A 
ATOM     19  S   UNL     1       5.211   6.240  15.767  0.00  0.00    +0.000 S 
BRANCH  18  20
ATOM     20  N   UNL     1       6.979   4.904  14.155  0.00  0.00    +0.000 N 
ATOM     21  O   UNL     1       8.005   5.545  14.422  0.00  0.00    +0.000 OA
ATOM     22  O   UNL     1       6.747   4.332  13.082  0.00  0.00    +0.000 OA
ENDBRANCH  18  20
ENDBRANCH   2  15
TORSDOF 2
ENDMDL
MODEL 3
REMARK VINA RESULT:      -7.2      4.533      8.907
REMARK  Name = 
REMARK  2 active torsions:
REMARK  status: ('A' for Active; 'I' for Inactive)
REMARK    1  A    between atoms: C_2  and  C_14
REMARK    2  A    between atoms: C_17  and  N_18
REMARK                            x       y       z     vdW  Elec       q    Type
REMARK                         _______ _______ _______ _____ _____    ______ ____
ROOT
ATOM      1  O   UNL     1       1.406   9.598  18.986  0.00  0.00    +0.000 OA
ATOM      2  C   UNL     1       1.323   8.981  20.045  0.00  0.00    +0.000 C 
ATOM      3  N   UNL     1       1.851   7.724  20.255  0.00  0.00    +0.000 N 
ATOM      4  C   UNL     1       2.644   7.133  19.307  0.00  0.00    +0.000 A 
ATOM      5  N   UNL     1       3.190   7.689  18.261  0.00  0.00    +0.000 NA
ATOM      6  C   UNL     1       3.899   6.752  17.542  0.00  0.00    +0.000 A 
ATOM      7  C   UNL     1       4.621   7.002  16.358  0.00  0.00    +0.000 A 
ATOM      8  C   UNL     1       5.282   5.952  15.715  0.00  0.00    +0.000 A 
ATOM      9  C   UNL     1       5.218   4.664  16.238  0.00  0.00    +0.000 A 
ATOM     10 CL   UNL     1       6.029   3.383  15.421  0.00  0.00    +0.000 Cl
ATOM     11  C   UNL     1       4.515   4.387  17.417  0.00  0.00    +0.000 A 
ATOM     12  C   UNL     1       3.870   5.457  18.063  0.00  0.00    +0.000 A 
ATOM     13  S   UNL     1       2.963   5.475  19.538  0.00  0.00    +0.000 S 
ATOM     14  H   UNL     1       1.611   7.191  21.078  0.00  0.00    +0.000 HD
ENDROOT
BRANCH   2  15
ATOM     15  C   UNL     1       0.577   9.564  21.157  0.00  0.00    +0.000 A 
ATOM     16  C   UNL     1       0.233   8.896  22.321  0.00  0.00    +0.000 A 
ATOM     17  C   UNL     1      -0.579   9.678  23.191  0.00  0.00    +0.000 A 
ATOM     18  C   UNL     1      -0.826  10.920  22.653  0.00  0.00    +0.000 A 
ATOM     19  S   UNL     1      -0.050  11.159  21.155  0.00  0.00    +0.000 S 
BRANCH  18  20
ATOM     20  N   UNL     1      -1.650  11.948  23.234  0.00  0.00    +0.000 N 
ATOM     21  O   UNL     1      -2.834  11.650  23.442  0.00  0.00    +0.000 OA
ATOM     22  O   UNL     1      -1.130  13.045  23.481  0.00  0.00    +0.000 OA
ENDBRANCH  18  20
ENDBRANCH   2  15
TORSDOF 2
ENDMDL
MODEL 4
REMARK VINA RESULT:      -7.2      1.423      1.900
REMARK  Name = 
REMARK  2 active torsions:
REMARK  status: ('A' for Active; 'I' for Inactive)
REMARK    1  A    between atoms: C_2  and  C_14
REMARK    2  A    between atoms: C_17  and  N_18
REMARK                            x       y       z     vdW  Elec       q    Type
REMARK                         _______ _______ _______ _____ _____    ______ ____
ROOT
ATOM      1  O   UNL     1       2.621   8.599  17.341  0.00  0.00    +0.000 OA
ATOM      2  C   UNL     1       2.782   7.626  18.074  0.00  0.00    +0.000 C 
ATOM      3  N   UNL     1       2.301   7.538  19.364  0.00  0.00    +0.000 N 
ATOM      4  C   UNL     1       1.472   8.506  19.867  0.00  0.00    +0.000 A 
ATOM      5  N   UNL     1       0.852   9.447  19.212  0.00  0.00    +0.000 NA
ATOM      6  C   UNL     1       0.129  10.233  20.083  0.00  0.00    +0.000 A 
ATOM      7  C   UNL     1      -0.667  11.338  19.722  0.00  0.00    +0.000 A 
ATOM      8  C   UNL     1      -1.334  12.064  20.712  0.00  0.00    +0.000 A 
ATOM      9  C   UNL     1      -1.205  11.701  22.049  0.00  0.00    +0.000 A 
ATOM     10 CL   UNL     1      -2.026  12.619  23.253  0.00  0.00    +0.000 Cl
ATOM     11  C   UNL     1      -0.428  10.603  22.437  0.00  0.00    +0.000 A 
ATOM     12  C   UNL     1       0.223   9.870  21.428  0.00  0.00    +0.000 A 
ATOM     13  S   UNL     1       1.213   8.455  21.551  0.00  0.00    +0.000 S 
ATOM     14  H   UNL     1       2.604   6.798  19.980  0.00  0.00    +0.000 HD
ENDROOT
BRANCH   2  15
ATOM     15  C   UNL     1       3.574   6.495  17.598  0.00  0.00    +0.000 A 
ATOM     16  C   UNL     1       3.273   5.162  17.826  0.00  0.00    +0.000 A 
ATOM     17  C   UNL     1       4.271   4.275  17.332  0.00  0.00    +0.000 A 
ATOM     18  C   UNL     1       5.303   4.970  16.746  0.00  0.00    +0.000 A 
ATOM     19  S   UNL     1       5.049   6.654  16.740  0.00  0.00    +0.000 S 
BRANCH  18  20
ATOM     20  N   UNL     1       6.502   4.399  16.187  0.00  0.00    +0.000 N 
ATOM     21  O   UNL     1       6.366   3.756  15.137  0.00  0.00    +0.000 OA
ATOM     22  O   UNL     1       7.571   4.582  16.785  0.00  0.00    +0.000 OA
ENDBRANCH  18  20
ENDBRANCH   2  15
TORSDOF 2
ENDMDL
MODEL 5
REMARK VINA RESULT:      -7.1      2.723      3.101
REMARK  Name = 
REMARK  2 active torsions:
REMARK  status: ('A' for Active; 'I' for Inactive)
REMARK    1  A    between atoms: C_2  and  C_14
REMARK    2  A    between atoms: C_17  and  N_18
REMARK                            x       y       z     vdW  Elec       q    Type
REMARK                         _______ _______ _______ _____ _____    ______ ____
ROOT
ATOM      1  O   UNL     1       2.271   8.157  18.279  0.00  0.00    +0.000 OA
ATOM      2  C   UNL     1       2.378   7.391  19.234  0.00  0.00    +0.000 C 
ATOM      3  N   UNL     1       1.872   7.643  20.493  0.00  0.00    +0.000 N 
ATOM      4  C   UNL     1       1.076   8.735  20.718  0.00  0.00    +0.000 A 
ATOM      5  N   UNL     1       0.508   9.507  19.834  0.00  0.00    +0.000 NA
ATOM      6  C   UNL     1      -0.196  10.511  20.464  0.00  0.00    +0.000 A 
ATOM      7  C   UNL     1      -0.937  11.521  19.819  0.00  0.00    +0.000 A 
ATOM      8  C   UNL     1      -1.590  12.494  20.581  0.00  0.00    +0.000 A 
ATOM      9  C   UNL     1      -1.499  12.469  21.969  0.00  0.00    +0.000 A 
ATOM     10 CL   UNL     1      -2.301  13.687  22.886  0.00  0.00    +0.000 Cl
ATOM     11  C   UNL     1      -0.777  11.473  22.638  0.00  0.00    +0.000 A 
ATOM     12  C   UNL     1      -0.140  10.490  21.859  0.00  0.00    +0.000 A 
ATOM     13  S   UNL     1       0.786   9.113  22.355  0.00  0.00    +0.000 S 
ATOM     14  H   UNL     1       2.131   7.068  21.281  0.00  0.00    +0.000 HD
ENDROOT
BRANCH   2  15
ATOM     15  C   UNL     1       3.129   6.148  19.075  0.00  0.00    +0.000 A 
ATOM     16  C   UNL     1       4.095   5.922  18.108  0.00  0.00    +0.000 A 
ATOM     17  C   UNL     1       4.593   4.588  18.123  0.00  0.00    +0.000 A 
ATOM     18  C   UNL     1       3.984   3.843  19.106  0.00  0.00    +0.000 A 
ATOM     19  S   UNL     1       2.872   4.748  20.028  0.00  0.00    +0.000 S 
BRANCH  18  20
ATOM     20  N   UNL     1       4.206   2.446  19.373  0.00  0.00    +0.000 N 
ATOM     21  O   UNL     1       4.952   2.181  20.325  0.00  0.00    +0.000 OA
ATOM     22  O   UNL     1       3.648   1.615  18.644  0.00  0.00    +0.000 OA
ENDBRANCH  18  20
ENDBRANCH   2  15
TORSDOF 2
ENDMDL
MODEL 6
REMARK VINA RESULT:      -7.0      3.147      3.623
REMARK  Name = 
REMARK  2 active torsions:
REMARK  status: ('A' for Active; 'I' for Inactive)
REMARK    1  A    between atoms: C_2  and  C_14
REMARK    2  A    between atoms: C_17  and  N_18
REMARK                            x       y       z     vdW  Elec       q    Type
REMARK                         _______ _______ _______ _____ _____    ______ ____
ROOT
ATOM      1  O   UNL     1       2.598   7.318  18.787  0.00  0.00    +0.000 OA
ATOM      2  C   UNL     1       2.230   6.758  19.817  0.00  0.00    +0.000 C 
ATOM      3  N   UNL     1       1.573   7.390  20.852  0.00  0.00    +0.000 N 
ATOM      4  C   UNL     1       1.158   8.689  20.725  0.00  0.00    +0.000 A 
ATOM      5  N   UNL     1       1.089   9.404  19.636  0.00  0.00    +0.000 NA
ATOM      6  C   UNL     1       0.640  10.673  19.930  0.00  0.00    +0.000 A 
ATOM      7  C   UNL     1       0.439  11.708  18.996  0.00  0.00    +0.000 A 
ATOM      8  C   UNL     1      -0.003  12.960  19.434  0.00  0.00    +0.000 A 
ATOM      9  C   UNL     1      -0.234  13.183  20.787  0.00  0.00    +0.000 A 
ATOM     10 CL   UNL     1      -0.765  14.738  21.304  0.00  0.00    +0.000 Cl
ATOM     11  C   UNL     1      -0.051  12.172  21.738  0.00  0.00    +0.000 A 
ATOM     12  C   UNL     1       0.377  10.912  21.281  0.00  0.00    +0.000 A 
ATOM     13  S   UNL     1       0.658   9.450  22.166  0.00  0.00    +0.000 S 
ATOM     14  H   UNL     1       1.446   6.931  21.743  0.00  0.00    +0.000 HD
ENDROOT
BRANCH   2  15
ATOM     15  C   UNL     1       2.540   5.344  20.013  0.00  0.00    +0.000 A 
ATOM     16  C   UNL     1       2.027   4.551  21.026  0.00  0.00    +0.000 A 
ATOM     17  C   UNL     1       2.577   3.238  21.036  0.00  0.00    +0.000 A 
ATOM     18  C   UNL     1       3.495   3.079  20.024  0.00  0.00    +0.000 A 
ATOM     19  S   UNL     1       3.651   4.467  19.048  0.00  0.00    +0.000 S 
BRANCH  18  20
ATOM     20  N   UNL     1       4.281   1.899  19.768  0.00  0.00    +0.000 N 
ATOM     21  O   UNL     1       5.210   1.677  20.556  0.00  0.00    +0.000 OA
ATOM     22  O   UNL     1       3.982   1.198  18.793  0.00  0.00    +0.000 OA
ENDBRANCH  18  20
ENDBRANCH   2  15
TORSDOF 2
ENDMDL
MODEL 7
REMARK VINA RESULT:      -6.8      1.102      1.455
REMARK  Name = 
REMARK  2 active torsions:
REMARK  status: ('A' for Active; 'I' for Inactive)
REMARK    1  A    between atoms: C_2  and  C_14
REMARK    2  A    between atoms: C_17  and  N_18
REMARK                            x       y       z     vdW  Elec       q    Type
REMARK                         _______ _______ _______ _____ _____    ______ ____
ROOT
ATOM      1  O   UNL     1       2.537   6.234  19.719  0.00  0.00    +0.000 OA
ATOM      2  C   UNL     1       2.843   6.958  18.774  0.00  0.00    +0.000 C 
ATOM      3  N   UNL     1       2.349   8.231  18.580  0.00  0.00    +0.000 N 
ATOM      4  C   UNL     1       1.571   8.831  19.535  0.00  0.00    +0.000 A 
ATOM      5  N   UNL     1       1.386   8.453  20.769  0.00  0.00    +0.000 NA
ATOM      6  C   UNL     1       0.515   9.312  21.403  0.00  0.00    +0.000 A 
ATOM      7  C   UNL     1       0.095   9.212  22.744  0.00  0.00    +0.000 A 
ATOM      8  C   UNL     1      -0.812  10.143  23.257  0.00  0.00    +0.000 A 
ATOM      9  C   UNL     1      -1.303  11.159  22.443  0.00  0.00    +0.000 A 
ATOM     10 CL   UNL     1      -2.430  12.287  23.095  0.00  0.00    +0.000 Cl
ATOM     11  C   UNL     1      -0.897  11.289  21.110  0.00  0.00    +0.000 A 
ATOM     12  C   UNL     1       0.029  10.356  20.612  0.00  0.00    +0.000 A 
ATOM     13  S   UNL     1       0.764  10.251  19.047  0.00  0.00    +0.000 S 
ATOM     14  H   UNL     1       2.494   8.717  17.706  0.00  0.00    +0.000 HD
ENDROOT
BRANCH   2  15
ATOM     15  C   UNL     1       3.744   6.449  17.744  0.00  0.00    +0.000 A 
ATOM     16  C   UNL     1       4.510   7.234  16.898  0.00  0.00    +0.000 A 
ATOM     17  C   UNL     1       5.220   6.475  15.926  0.00  0.00    +0.000 A 
ATOM     18  C   UNL     1       4.965   5.130  16.066  0.00  0.00    +0.000 A 
ATOM     19  S   UNL     1       3.935   4.786  17.378  0.00  0.00    +0.000 S 
BRANCH  18  20
ATOM     20  N   UNL     1       5.473   4.078  15.225  0.00  0.00    +0.000 N 
ATOM     21  O   UNL     1       5.247   4.188  14.012  0.00  0.00    +0.000 OA
ATOM     22  O   UNL     1       6.089   3.146  15.760  0.00  0.00    +0.000 OA
ENDBRANCH  18  20
ENDBRANCH   2  15
TORSDOF 2
ENDMDL
MODEL 8
REMARK VINA RESULT:      -6.8      2.581      3.391
REMARK  Name = 
REMARK  2 active torsions:
REMARK  status: ('A' for Active; 'I' for Inactive)
REMARK    1  A    between atoms: C_2  and  C_14
REMARK    2  A    between atoms: C_17  and  N_18
REMARK                            x       y       z     vdW  Elec       q    Type
REMARK                         _______ _______ _______ _____ _____    ______ ____
ROOT
ATOM      1  O   UNL     1       1.818   8.422  19.129  0.00  0.00    +0.000 OA
ATOM      2  C   UNL     1       1.676   7.656  20.080  0.00  0.00    +0.000 C 
ATOM      3  N   UNL     1       1.012   7.979  21.245  0.00  0.00    +0.000 N 
ATOM      4  C   UNL     1       0.332   9.163  21.355  0.00  0.00    +0.000 A 
ATOM      5  N   UNL     1       0.012   9.993  20.402  0.00  0.00    +0.000 NA
ATOM      6  C   UNL     1      -0.653  11.081  20.925  0.00  0.00    +0.000 A 
ATOM      7  C   UNL     1      -1.152  12.171  20.184  0.00  0.00    +0.000 A 
ATOM      8  C   UNL     1      -1.791  13.223  20.845  0.00  0.00    +0.000 A 
ATOM      9  C   UNL     1      -1.925  13.198  22.229  0.00  0.00    +0.000 A 
ATOM     10 CL   UNL     1      -2.705  14.513  23.023  0.00  0.00    +0.000 Cl
ATOM     11  C   UNL     1      -1.447  12.125  22.991  0.00  0.00    +0.000 A 
ATOM     12  C   UNL     1      -0.822  11.065  22.311  0.00  0.00    +0.000 A 
ATOM     13  S   UNL     1      -0.164   9.587  22.930  0.00  0.00    +0.000 S 
ATOM     14  H   UNL     1       1.070   7.382  22.057  0.00  0.00    +0.000 HD
ENDROOT
BRANCH   2  15
ATOM     15  C   UNL     1       2.283   6.328  20.026  0.00  0.00    +0.000 A 
ATOM     16  C   UNL     1       1.822   5.215  20.709  0.00  0.00    +0.000 A 
ATOM     17  C   UNL     1       2.664   4.078  20.551  0.00  0.00    +0.000 A 
ATOM     18  C   UNL     1       3.743   4.370  19.750  0.00  0.00    +0.000 A 
ATOM     19  S   UNL     1       3.713   5.967  19.155  0.00  0.00    +0.000 S 
BRANCH  18  20
ATOM     20  N   UNL     1       4.821   3.475  19.418  0.00  0.00    +0.000 N 
ATOM     21  O   UNL     1       5.781   3.972  18.813  0.00  0.00    +0.000 OA
ATOM     22  O   UNL     1       4.719   2.287  19.753  0.00  0.00    +0.000 OA
ENDBRANCH  18  20
ENDBRANCH   2  15
TORSDOF 2
ENDMDL
MODEL 9
REMARK VINA RESULT:      -6.8      2.113      2.629
REMARK  Name = 
REMARK  2 active torsions:
REMARK  status: ('A' for Active; 'I' for Inactive)
REMARK    1  A    between atoms: C_2  and  C_14
REMARK    2  A    between atoms: C_17  and  N_18
REMARK                            x       y       z     vdW  Elec       q    Type
REMARK                         _______ _______ _______ _____ _____    ______ ____
ROOT
ATOM      1  O   UNL     1       1.960   9.166  17.590  0.00  0.00    +0.000 OA
ATOM      2  C   UNL     1       2.274   8.263  18.362  0.00  0.00    +0.000 C 
ATOM      3  N   UNL     1       1.887   8.204  19.685  0.00  0.00    +0.000 N 
ATOM      4  C   UNL     1       0.988   9.107  20.190  0.00  0.00    +0.000 A 
ATOM      5  N   UNL     1       0.227   9.933  19.528  0.00  0.00    +0.000 NA
ATOM      6  C   UNL     1      -0.523  10.690  20.402  0.00  0.00    +0.000 A 
ATOM      7  C   UNL     1      -1.458  11.678  20.036  0.00  0.00    +0.000 A 
ATOM      8  C   UNL     1      -2.139  12.388  21.029  0.00  0.00    +0.000 A 
ATOM      9  C   UNL     1      -1.887  12.125  22.372  0.00  0.00    +0.000 A 
ATOM     10 CL   UNL     1      -2.729  13.023  23.577  0.00  0.00    +0.000 Cl
ATOM     11  C   UNL     1      -0.970  11.143  22.765  0.00  0.00    +0.000 A 
ATOM     12  C   UNL     1      -0.305  10.424  21.756  0.00  0.00    +0.000 A 
ATOM     13  S   UNL     1       0.841   9.133  21.888  0.00  0.00    +0.000 S 
ATOM     14  H   UNL     1       2.307   7.540  20.320  0.00  0.00    +0.000 HD
ENDROOT
BRANCH   2  15
ATOM     15  C   UNL     1       3.156   7.196  17.897  0.00  0.00    +0.000 A 
ATOM     16  C   UNL     1       4.316   7.387  17.164  0.00  0.00    +0.000 A 
ATOM     17  C   UNL     1       4.925   6.165  16.760  0.00  0.00    +0.000 A 
ATOM     18  C   UNL     1       4.200   5.082  17.202  0.00  0.00    +0.000 A 
ATOM     19  S   UNL     1       2.844   5.528  18.132  0.00  0.00    +0.000 S 
BRANCH  18  20
ATOM     20  N   UNL     1       4.495   3.698  16.935  0.00  0.00    +0.000 N 
ATOM     21  O   UNL     1       5.395   3.476  16.114  0.00  0.00    +0.000 OA
ATOM     22  O   UNL     1       3.838   2.834  17.532  0.00  0.00    +0.000 OA
ENDBRANCH  18  20
ENDBRANCH   2  15
TORSDOF 2
ENDMDL
