MODEL 1
REMARK VINA RESULT:      -8.0      0.000      0.000
REMARK  Name = 
REMARK  6 active torsions:
REMARK  status: ('A' for Active; 'I' for Inactive)
REMARK    1  A    between atoms: C_1  and  O_2
REMARK    2  A    between atoms: O_2  and  C_3
REMARK    3  A    between atoms: C_8  and  C_9
REMARK    4  A    between atoms: C_11  and  N_12
REMARK    5  A    between atoms: N_12  and  C_13
REMARK    6  A    between atoms: N_16  and  C_17
REMARK                            x       y       z     vdW  Elec       q    Type
REMARK                         _______ _______ _______ _____ _____    ______ ____
ROOT
ATOM      1  C   UNL     1       5.884   3.491  12.754  0.00  0.00    +0.000 A 
ATOM      2  C   UNL     1       7.053   4.198  12.504  0.00  0.00    +0.000 A 
ATOM      3  C   UNL     1       7.588   5.021  13.493  0.00  0.00    +0.000 A 
ATOM      4  C   UNL     1       6.985   5.168  14.729  0.00  0.00    +0.000 A 
ATOM      5  N   UNL     1       7.609   5.965  15.609  0.00  0.00    +0.000 NA
ATOM      6  C   UNL     1       7.063   6.107  16.830  0.00  0.00    +0.000 A 
ATOM      7  C   UNL     1       7.770   7.005  17.799  0.00  0.00    +0.000 C 
ATOM      8  C   UNL     1       5.889   5.471  17.203  0.00  0.00    +0.000 A 
ATOM      9  C   UNL     1       5.207   4.650  16.296  0.00  0.00    +0.000 A 
ATOM     10  C   UNL     1       5.777   4.484  15.004  0.00  0.00    +0.000 A 
ATOM     11  C   UNL     1       5.241   3.649  13.985  0.00  0.00    +0.000 A 
ENDROOT
BRANCH   1  13
ATOM     12  C   UNL     1       4.102   3.165  11.241  0.00  0.00    +0.000 C 
ATOM     13  O   UNL     1       5.283   2.652  11.853  0.00  0.00    +0.000 OA
ENDBRANCH   1  13
BRANCH   9  14
ATOM     14  N   UNL     1       4.065   3.957  16.682  0.00  0.00    +0.000 N 
ATOM     15  H   UNL     1       3.536   3.502  15.947  0.00  0.00    +0.000 HD
BRANCH  14  16
ATOM     16  C   UNL     1       3.426   4.074  17.999  0.00  0.00    +0.000 C 
ATOM     17  C   UNL     1       4.065   3.056  18.949  0.00  0.00    +0.000 C 
ATOM     18  C   UNL     1       3.318   2.975  20.277  0.00  0.00    +0.000 C 
ATOM     19  N   UNL     1       1.889   2.707  20.068  0.00  0.00    +0.000 NA
ATOM     20  C   UNL     1       1.207   2.556  21.356  0.00  0.00    +0.000 C 
ATOM     21  C   UNL     1       1.266   3.778  19.281  0.00  0.00    +0.000 C 
ATOM     22  C   UNL     1       1.909   3.896  17.897  0.00  0.00    +0.000 C 
ENDBRANCH  14  16
ENDBRANCH   9  14
TORSDOF 3
ENDMDL
MODEL 2
REMARK VINA RESULT:      -7.8      4.064      6.023
REMARK  Name = 
REMARK  6 active torsions:
REMARK  status: ('A' for Active; 'I' for Inactive)
REMARK    1  A    between atoms: C_1  and  O_2
REMARK    2  A    between atoms: O_2  and  C_3
REMARK    3  A    between atoms: C_8  and  C_9
REMARK    4  A    between atoms: C_11  and  N_12
REMARK    5  A    between atoms: N_12  and  C_13
REMARK    6  A    between atoms: N_16  and  C_17
REMARK                            x       y       z     vdW  Elec       q    Type
REMARK                         _______ _______ _______ _____ _____    ______ ____
ROOT
ATOM      1  C   UNL     1       5.566   6.108  16.758  0.00  0.00    +0.000 A 
ATOM      2  C   UNL     1       5.500   4.911  16.058  0.00  0.00    +0.000 A 
ATOM      3  C   UNL     1       4.531   3.967  16.391  0.00  0.00    +0.000 A 
ATOM      4  C   UNL     1       3.624   4.178  17.414  0.00  0.00    +0.000 A 
ATOM      5  N   UNL     1       2.720   3.210  17.623  0.00  0.00    +0.000 NA
ATOM      6  C   UNL     1       1.806   3.397  18.592  0.00  0.00    +0.000 A 
ATOM      7  C   UNL     1       0.807   2.303  18.816  0.00  0.00    +0.000 C 
ATOM      8  C   UNL     1       1.771   4.540  19.376  0.00  0.00    +0.000 A 
ATOM      9  C   UNL     1       2.716   5.556  19.193  0.00  0.00    +0.000 A 
ATOM     10  C   UNL     1       3.683   5.375  18.166  0.00  0.00    +0.000 A 
ATOM     11  C   UNL     1       4.679   6.329  17.816  0.00  0.00    +0.000 A 
ENDROOT
BRANCH   1  13
ATOM     12  C   UNL     1       7.456   7.299  17.518  0.00  0.00    +0.000 C 
ATOM     13  O   UNL     1       6.474   7.101  16.503  0.00  0.00    +0.000 OA
ENDBRANCH   1  13
BRANCH   9  14
ATOM     14  N   UNL     1       2.649   6.733  19.930  0.00  0.00    +0.000 N 
ATOM     15  H   UNL     1       3.259   6.803  20.736  0.00  0.00    +0.000 HD
BRANCH  14  16
ATOM     16  C   UNL     1       1.584   7.736  19.802  0.00  0.00    +0.000 C 
ATOM     17  C   UNL     1       1.947   8.698  18.666  0.00  0.00    +0.000 C 
ATOM     18  C   UNL     1       0.992   9.887  18.605  0.00  0.00    +0.000 C 
ATOM     19  N   UNL     1       0.913  10.573  19.900  0.00  0.00    +0.000 NA
ATOM     20  C   UNL     1       0.053  11.755  19.797  0.00  0.00    +0.000 C 
ATOM     21  C   UNL     1       0.417   9.668  20.943  0.00  0.00    +0.000 C 
ATOM     22  C   UNL     1       1.349   8.468  21.126  0.00  0.00    +0.000 C 
ENDBRANCH  14  16
ENDBRANCH   9  14
TORSDOF 3
ENDMDL
MODEL 3
REMARK VINA RESULT:      -7.5      4.054      6.106
REMARK  Name = 
REMARK  6 active torsions:
REMARK  status: ('A' for Active; 'I' for Inactive)
REMARK    1  A    between atoms: C_1  and  O_2
REMARK    2  A    between atoms: O_2  and  C_3
REMARK    3  A    between atoms: C_8  and  C_9
REMARK    4  A    between atoms: C_11  and  N_12
REMARK    5  A    between atoms: N_12  and  C_13
REMARK    6  A    between atoms: N_16  and  C_17
REMARK                            x       y       z     vdW  Elec       q    Type
REMARK                         _______ _______ _______ _____ _____    ______ ____
ROOT
ATOM      1  C   UNL     1       4.725   5.058  16.671  0.00  0.00    +0.000 A 
ATOM      2  C   UNL     1       4.640   3.673  16.637  0.00  0.00    +0.000 A 
ATOM      3  C   UNL     1       3.953   2.996  17.642  0.00  0.00    +0.000 A 
ATOM      4  C   UNL     1       3.350   3.662  18.693  0.00  0.00    +0.000 A 
ATOM      5  N   UNL     1       2.693   2.906  19.584  0.00  0.00    +0.000 NA
ATOM      6  C   UNL     1       2.070   3.526  20.603  0.00  0.00    +0.000 A 
ATOM      7  C   UNL     1       1.346   2.665  21.593  0.00  0.00    +0.000 C 
ATOM      8  C   UNL     1       2.091   4.902  20.764  0.00  0.00    +0.000 A 
ATOM      9  C   UNL     1       2.787   5.714  19.860  0.00  0.00    +0.000 A 
ATOM     10  C   UNL     1       3.442   5.072  18.773  0.00  0.00    +0.000 A 
ATOM     11  C   UNL     1       4.149   5.750  17.741  0.00  0.00    +0.000 A 
ENDROOT
BRANCH   1  13
ATOM     12  C   UNL     1       6.502   5.195  15.125  0.00  0.00    +0.000 C 
ATOM     13  O   UNL     1       5.369   5.815  15.730  0.00  0.00    +0.000 OA
ENDBRANCH   1  13
BRANCH   9  14
ATOM     14  N   UNL     1       2.758   7.099  19.977  0.00  0.00    +0.000 N 
ATOM     15  H   UNL     1       3.549   7.536  20.436  0.00  0.00    +0.000 HD
BRANCH  14  16
ATOM     16  C   UNL     1       1.568   7.929  19.751  0.00  0.00    +0.000 C 
ATOM     17  C   UNL     1       1.818   8.829  18.536  0.00  0.00    +0.000 C 
ATOM     18  C   UNL     1       0.710   9.863  18.361  0.00  0.00    +0.000 C 
ATOM     19  N   UNL     1       0.511  10.643  19.589  0.00  0.00    +0.000 NA
ATOM     20  C   UNL     1      -0.502  11.679  19.373  0.00  0.00    +0.000 C 
ATOM     21  C   UNL     1       0.123   9.772  20.705  0.00  0.00    +0.000 C 
ATOM     22  C   UNL     1       1.206   8.734  21.002  0.00  0.00    +0.000 C 
ENDBRANCH  14  16
ENDBRANCH   9  14
TORSDOF 3
ENDMDL
MODEL 4
REMARK VINA RESULT:      -7.4      0.957      1.428
REMARK  Name = 
REMARK  6 active torsions:
REMARK  status: ('A' for Active; 'I' for Inactive)
REMARK    1  A    between atoms: C_1  and  O_2
REMARK    2  A    between atoms: O_2  and  C_3
REMARK    3  A    between atoms: C_8  and  C_9
REMARK    4  A    between atoms: C_11  and  N_12
REMARK    5  A    between atoms: N_12  and  C_13
REMARK    6  A    between atoms: N_16  and  C_17
REMARK                            x       y       z     vdW  Elec       q    Type
REMARK                         _______ _______ _______ _____ _____    ______ ____
ROOT
ATOM      1  C   UNL     1       6.180   3.595  12.819  0.00  0.00    +0.000 A 
ATOM      2  C   UNL     1       7.076   4.628  12.577  0.00  0.00    +0.000 A 
ATOM      3  C   UNL     1       7.518   5.422  13.634  0.00  0.00    +0.000 A 
ATOM      4  C   UNL     1       7.086   5.221  14.932  0.00  0.00    +0.000 A 
ATOM      5  N   UNL     1       7.603   6.029  15.868  0.00  0.00    +0.000 NA
ATOM      6  C   UNL     1       7.224   5.841  17.145  0.00  0.00    +0.000 A 
ATOM      7  C   UNL     1       7.808   6.756  18.178  0.00  0.00    +0.000 C 
ATOM      8  C   UNL     1       6.323   4.857  17.520  0.00  0.00    +0.000 A 
ATOM      9  C   UNL     1       5.752   4.013  16.560  0.00  0.00    +0.000 A 
ATOM     10  C   UNL     1       6.150   4.195  15.207  0.00  0.00    +0.000 A 
ATOM     11  C   UNL     1       5.705   3.394  14.118  0.00  0.00    +0.000 A 
ENDROOT
BRANCH   1  13
ATOM     12  C   UNL     1       4.385   3.073  11.378  0.00  0.00    +0.000 C 
ATOM     13  O   UNL     1       5.692   2.756  11.852  0.00  0.00    +0.000 OA
ENDBRANCH   1  13
BRANCH   9  14
ATOM     14  N   UNL     1       4.898   2.982  16.934  0.00  0.00    +0.000 N 
ATOM     15  H   UNL     1       4.973   2.114  16.416  0.00  0.00    +0.000 HD
BRANCH  14  16
ATOM     16  C   UNL     1       3.729   3.145  17.808  0.00  0.00    +0.000 C 
ATOM     17  C   UNL     1       3.057   4.484  17.489  0.00  0.00    +0.000 C 
ATOM     18  C   UNL     1       1.957   4.818  18.492  0.00  0.00    +0.000 C 
ATOM     19  N   UNL     1       2.462   4.774  19.870  0.00  0.00    +0.000 NA
ATOM     20  C   UNL     1       1.411   5.173  20.809  0.00  0.00    +0.000 C 
ATOM     21  C   UNL     1       2.962   3.434  20.201  0.00  0.00    +0.000 C 
ATOM     22  C   UNL     1       4.119   3.031  19.284  0.00  0.00    +0.000 C 
ENDBRANCH  14  16
ENDBRANCH   9  14
TORSDOF 3
ENDMDL
MODEL 5
REMARK VINA RESULT:      -7.4      4.113      5.819
REMARK  Name = 
REMARK  6 active torsions:
REMARK  status: ('A' for Active; 'I' for Inactive)
REMARK    1  A    between atoms: C_1  and  O_2
REMARK    2  A    between atoms: O_2  and  C_3
REMARK    3  A    between atoms: C_8  and  C_9
REMARK    4  A    between atoms: C_11  and  N_12
REMARK    5  A    between atoms: N_12  and  C_13
REMARK    6  A    between atoms: N_16  and  C_17
REMARK                            x       y       z     vdW  Elec       q    Type
REMARK                         _______ _______ _______ _____ _____    ______ ____
ROOT
ATOM      1  C   UNL     1       6.825   6.190  16.928  0.00  0.00    +0.000 A 
ATOM      2  C   UNL     1       6.978   4.813  16.832  0.00  0.00    +0.000 A 
ATOM      3  C   UNL     1       5.894   3.977  17.093  0.00  0.00    +0.000 A 
ATOM      4  C   UNL     1       4.656   4.475  17.455  0.00  0.00    +0.000 A 
ATOM      5  N   UNL     1       3.682   3.575  17.651  0.00  0.00    +0.000 NA
ATOM      6  C   UNL     1       2.457   4.028  17.977  0.00  0.00    +0.000 A 
ATOM      7  C   UNL     1       1.383   3.008  18.199  0.00  0.00    +0.000 C 
ATOM      8  C   UNL     1       2.175   5.377  18.121  0.00  0.00    +0.000 A 
ATOM      9  C   UNL     1       3.178   6.337  17.942  0.00  0.00    +0.000 A 
ATOM     10  C   UNL     1       4.475   5.872  17.589  0.00  0.00    +0.000 A 
ATOM     11  C   UNL     1       5.591   6.714  17.323  0.00  0.00    +0.000 A 
ENDROOT
BRANCH   1  13
ATOM     12  C   UNL     1       7.871   8.201  17.586  0.00  0.00    +0.000 C 
ATOM     13  O   UNL     1       7.824   7.095  16.686  0.00  0.00    +0.000 OA
ENDBRANCH   1  13
BRANCH   9  14
ATOM     14  N   UNL     1       2.888   7.694  18.021  0.00  0.00    +0.000 N 
ATOM     15  H   UNL     1       3.630   8.336  17.767  0.00  0.00    +0.000 HD
BRANCH  14  16
ATOM     16  C   UNL     1       1.714   8.257  18.701  0.00  0.00    +0.000 C 
ATOM     17  C   UNL     1       1.526   9.707  18.242  0.00  0.00    +0.000 C 
ATOM     18  C   UNL     1       0.451  10.422  19.055  0.00  0.00    +0.000 C 
ATOM     19  N   UNL     1       0.727  10.335  20.495  0.00  0.00    +0.000 NA
ATOM     20  C   UNL     1      -0.273  11.093  21.250  0.00  0.00    +0.000 C 
ATOM     21  C   UNL     1       0.751   8.936  20.939  0.00  0.00    +0.000 C 
ATOM     22  C   UNL     1       1.847   8.145  20.222  0.00  0.00    +0.000 C 
ENDBRANCH  14  16
ENDBRANCH   9  14
TORSDOF 3
ENDMDL
MODEL 6
REMARK VINA RESULT:      -7.3      4.212      6.264
REMARK  Name = 
REMARK  6 active torsions:
REMARK  status: ('A' for Active; 'I' for Inactive)
REMARK    1  A    between atoms: C_1  and  O_2
REMARK    2  A    between atoms: O_2  and  C_3
REMARK    3  A    between atoms: C_8  and  C_9
REMARK    4  A    between atoms: C_11  and  N_12
REMARK    5  A    between atoms: N_12  and  C_13
REMARK    6  A    between atoms: N_16  and  C_17
REMARK                            x       y       z     vdW  Elec       q    Type
REMARK                         _______ _______ _______ _____ _____    ______ ____
ROOT
ATOM      1  C   UNL     1       1.893   2.899  19.499  0.00  0.00    +0.000 A 
ATOM      2  C   UNL     1       2.326   1.953  18.580  0.00  0.00    +0.000 A 
ATOM      3  C   UNL     1       3.186   2.331  17.551  0.00  0.00    +0.000 A 
ATOM      4  C   UNL     1       3.624   3.635  17.404  0.00  0.00    +0.000 A 
ATOM      5  N   UNL     1       4.472   3.873  16.394  0.00  0.00    +0.000 NA
ATOM      6  C   UNL     1       4.938   5.125  16.240  0.00  0.00    +0.000 A 
ATOM      7  C   UNL     1       5.880   5.374  15.102  0.00  0.00    +0.000 C 
ATOM      8  C   UNL     1       4.571   6.166  17.078  0.00  0.00    +0.000 A 
ATOM      9  C   UNL     1       3.671   5.950  18.129  0.00  0.00    +0.000 A 
ATOM     10  C   UNL     1       3.177   4.629  18.307  0.00  0.00    +0.000 A 
ATOM     11  C   UNL     1       2.297   4.229  19.352  0.00  0.00    +0.000 A 
ENDROOT
BRANCH   1  13
ATOM     12  C   UNL     1       1.633   2.787  21.843  0.00  0.00    +0.000 C 
ATOM     13  O   UNL     1       1.055   2.627  20.548  0.00  0.00    +0.000 OA
ENDBRANCH   1  13
BRANCH   9  14
ATOM     14  N   UNL     1       3.349   6.974  19.013  0.00  0.00    +0.000 N 
ATOM     15  H   UNL     1       3.935   7.072  19.833  0.00  0.00    +0.000 HD
BRANCH  14  16
ATOM     16  C   UNL     1       2.084   7.720  18.997  0.00  0.00    +0.000 C 
ATOM     17  C   UNL     1       2.210   8.885  18.009  0.00  0.00    +0.000 C 
ATOM     18  C   UNL     1       1.011   9.825  18.087  0.00  0.00    +0.000 C 
ATOM     19  N   UNL     1       0.790  10.293  19.461  0.00  0.00    +0.000 NA
ATOM     20  C   UNL     1      -0.315  11.253  19.499  0.00  0.00    +0.000 C 
ATOM     21  C   UNL     1       0.520   9.165  20.361  0.00  0.00    +0.000 C 
ATOM     22  C   UNL     1       1.699   8.191  20.402  0.00  0.00    +0.000 C 
ENDBRANCH  14  16
ENDBRANCH   9  14
TORSDOF 3
ENDMDL
MODEL 7
REMARK VINA RESULT:      -7.1      0.758      1.304
REMARK  Name = 
REMARK  6 active torsions:
REMARK  status: ('A' for Active; 'I' for Inactive)
REMARK    1  A    between atoms: C_1  and  O_2
REMARK    2  A    between atoms: O_2  and  C_3
REMARK    3  A    between atoms: C_8  and  C_9
REMARK    4  A    between atoms: C_11  and  N_12
REMARK    5  A    between atoms: N_12  and  C_13
REMARK    6  A    between atoms: N_16  and  C_17
REMARK                            x       y       z     vdW  Elec       q    Type
REMARK                         _______ _______ _______ _____ _____    ______ ____
ROOT
ATOM      1  C   UNL     1       5.892   3.509  12.631  0.00  0.00    +0.000 A 
ATOM      2  C   UNL     1       7.141   4.103  12.520  0.00  0.00    +0.000 A 
ATOM      3  C   UNL     1       7.639   4.870  13.572  0.00  0.00    +0.000 A 
ATOM      4  C   UNL     1       6.920   5.070  14.736  0.00  0.00    +0.000 A 
ATOM      5  N   UNL     1       7.514   5.803  15.689  0.00  0.00    +0.000 NA
ATOM      6  C   UNL     1       6.853   5.992  16.845  0.00  0.00    +0.000 A 
ATOM      7  C   UNL     1       7.529   6.818  17.897  0.00  0.00    +0.000 C 
ATOM      8  C   UNL     1       5.591   5.468  17.079  0.00  0.00    +0.000 A 
ATOM      9  C   UNL     1       4.940   4.718  16.093  0.00  0.00    +0.000 A 
ATOM     10  C   UNL     1       5.631   4.502  14.869  0.00  0.00    +0.000 A 
ATOM     11  C   UNL     1       5.134   3.724  13.786  0.00  0.00    +0.000 A 
ENDROOT
BRANCH   1  13
ATOM     12  C   UNL     1       5.934   1.462  11.457  0.00  0.00    +0.000 C 
ATOM     13  O   UNL     1       5.318   2.732  11.659  0.00  0.00    +0.000 OA
ENDBRANCH   1  13
BRANCH   9  14
ATOM     14  N   UNL     1       3.703   4.134  16.343  0.00  0.00    +0.000 N 
ATOM     15  H   UNL     1       2.918   4.475  15.800  0.00  0.00    +0.000 HD
BRANCH  14  16
ATOM     16  C   UNL     1       3.401   3.287  17.504  0.00  0.00    +0.000 C 
ATOM     17  C   UNL     1       1.988   3.615  17.999  0.00  0.00    +0.000 C 
ATOM     18  C   UNL     1       1.679   2.923  19.324  0.00  0.00    +0.000 C 
ATOM     19  N   UNL     1       2.698   3.230  20.335  0.00  0.00    +0.000 NA
ATOM     20  C   UNL     1       2.341   2.620  21.618  0.00  0.00    +0.000 C 
ATOM     21  C   UNL     1       4.022   2.768  19.900  0.00  0.00    +0.000 C 
ATOM     22  C   UNL     1       4.453   3.457  18.603  0.00  0.00    +0.000 C 
ENDBRANCH  14  16
ENDBRANCH   9  14
TORSDOF 3
ENDMDL
MODEL 8
REMARK VINA RESULT:      -7.1      4.472      6.495
REMARK  Name = 
REMARK  6 active torsions:
REMARK  status: ('A' for Active; 'I' for Inactive)
REMARK    1  A    between atoms: C_1  and  O_2
REMARK    2  A    between atoms: O_2  and  C_3
REMARK    3  A    between atoms: C_8  and  C_9
REMARK    4  A    between atoms: C_11  and  N_12
REMARK    5  A    between atoms: N_12  and  C_13
REMARK    6  A    between atoms: N_16  and  C_17
REMARK                            x       y       z     vdW  Elec       q    Type
REMARK                         _______ _______ _______ _____ _____    ______ ____
ROOT
ATOM      1  C   UNL     1       5.332   6.044  17.208  0.00  0.00    +0.000 A 
ATOM      2  C   UNL     1       5.466   4.663  17.196  0.00  0.00    +0.000 A 
ATOM      3  C   UNL     1       4.628   3.878  17.987  0.00  0.00    +0.000 A 
ATOM      4  C   UNL     1       3.659   4.434  18.801  0.00  0.00    +0.000 A 
ATOM      5  N   UNL     1       2.894   3.578  19.493  0.00  0.00    +0.000 NA
ATOM      6  C   UNL     1       1.922   4.085  20.273  0.00  0.00    +0.000 A 
ATOM      7  C   UNL     1       1.081   3.114  21.043  0.00  0.00    +0.000 C 
ATOM      8  C   UNL     1       1.692   5.447  20.388  0.00  0.00    +0.000 A 
ATOM      9  C   UNL     1       2.490   6.365  19.693  0.00  0.00    +0.000 A 
ATOM     10  C   UNL     1       3.515   5.841  18.858  0.00  0.00    +0.000 A 
ATOM     11  C   UNL     1       4.379   6.630  18.048  0.00  0.00    +0.000 A 
ENDROOT
BRANCH   1  13
ATOM     12  C   UNL     1       7.201   7.484  17.156  0.00  0.00    +0.000 C 
ATOM     13  O   UNL     1       6.099   6.900  16.464  0.00  0.00    +0.000 OA
ENDBRANCH   1  13
BRANCH   9  14
ATOM     14  N   UNL     1       2.225   7.728  19.752  0.00  0.00    +0.000 N 
ATOM     15  H   UNL     1       2.956   8.351  19.428  0.00  0.00    +0.000 HD
BRANCH  14  16
ATOM     16  C   UNL     1       1.110   8.328  20.497  0.00  0.00    +0.000 C 
ATOM     17  C   UNL     1       0.647   9.589  19.761  0.00  0.00    +0.000 C 
ATOM     18  C   UNL     1      -0.371  10.380  20.578  0.00  0.00    +0.000 C 
ATOM     19  N   UNL     1       0.146  10.686  21.918  0.00  0.00    +0.000 NA
ATOM     20  C   UNL     1      -0.815  11.510  22.655  0.00  0.00    +0.000 C 
ATOM     21  C   UNL     1       0.439   9.454  22.660  0.00  0.00    +0.000 C 
ATOM     22  C   UNL     1       1.504   8.617  21.948  0.00  0.00    +0.000 C 
ENDBRANCH  14  16
ENDBRANCH   9  14
TORSDOF 3
ENDMDL
MODEL 9
REMARK VINA RESULT:      -7.1      3.892      5.612
REMARK  Name = 
REMARK  6 active torsions:
REMARK  status: ('A' for Active; 'I' for Inactive)
REMARK    1  A    between atoms: C_1  and  O_2
REMARK    2  A    between atoms: O_2  and  C_3
REMARK    3  A    between atoms: C_8  and  C_9
REMARK    4  A    between atoms: C_11  and  N_12
REMARK    5  A    between atoms: N_12  and  C_13
REMARK    6  A    between atoms: N_16  and  C_17
REMARK                            x       y       z     vdW  Elec       q    Type
REMARK                         _______ _______ _______ _____ _____    ______ ____
ROOT
ATOM      1  C   UNL     1       6.677   6.329  17.060  0.00  0.00    +0.000 A 
ATOM      2  C   UNL     1       7.019   4.994  17.232  0.00  0.00    +0.000 A 
ATOM      3  C   UNL     1       6.038   4.067  17.580  0.00  0.00    +0.000 A 
ATOM      4  C   UNL     1       4.719   4.434  17.772  0.00  0.00    +0.000 A 
ATOM      5  N   UNL     1       3.861   3.450  18.076  0.00  0.00    +0.000 NA
ATOM      6  C   UNL     1       2.565   3.770  18.242  0.00  0.00    +0.000 A 
ATOM      7  C   UNL     1       1.621   2.659  18.587  0.00  0.00    +0.000 C 
ATOM      8  C   UNL     1       2.093   5.067  18.116  0.00  0.00    +0.000 A 
ATOM      9  C   UNL     1       2.971   6.117  17.820  0.00  0.00    +0.000 A 
ATOM     10  C   UNL     1       4.343   5.792  17.634  0.00  0.00    +0.000 A 
ATOM     11  C   UNL     1       5.355   6.728  17.281  0.00  0.00    +0.000 A 
ENDROOT
BRANCH   1  13
ATOM     12  C   UNL     1       7.801   8.298  17.717  0.00  0.00    +0.000 C 
ATOM     13  O   UNL     1       7.563   7.313  16.712  0.00  0.00    +0.000 OA
ENDBRANCH   1  13
BRANCH   9  14
ATOM     14  N   UNL     1       2.497   7.410  17.628  0.00  0.00    +0.000 N 
ATOM     15  H   UNL     1       2.526   7.772  16.682  0.00  0.00    +0.000 HD
BRANCH  14  16
ATOM     16  C   UNL     1       2.234   8.369  18.709  0.00  0.00    +0.000 C 
ATOM     17  C   UNL     1       1.897   7.592  19.986  0.00  0.00    +0.000 C 
ATOM     18  C   UNL     1       1.414   8.517  21.099  0.00  0.00    +0.000 C 
ATOM     19  N   UNL     1       0.288   9.347  20.650  0.00  0.00    +0.000 NA
ATOM     20  C   UNL     1      -0.209  10.169  21.756  0.00  0.00    +0.000 C 
ATOM     21  C   UNL     1       0.683  10.195  19.519  0.00  0.00    +0.000 C 
ATOM     22  C   UNL     1       1.126   9.352  18.321  0.00  0.00    +0.000 C 
ENDBRANCH  14  16
ENDBRANCH   9  14
TORSDOF 3
ENDMDL
