MODEL 1
REMARK VINA RESULT:      -7.8      0.000      0.000
REMARK  Name = 
REMARK  1 active torsions:
REMARK  status: ('A' for Active; 'I' for Inactive)
REMARK    1  A    between atoms: C_4  and  N_5
REMARK                            x       y       z     vdW  Elec       q    Type
REMARK                         _______ _______ _______ _____ _____    ______ ____
ROOT
ATOM      1  N   UNL     1       4.378   4.039  16.588  0.00  0.00    +0.000 N 
ATOM      2  C   UNL     1       4.939   5.280  16.022  0.00  0.00    +0.000 C 
ATOM      3  C   UNL     1       5.227   6.420  16.927  0.00  0.00    +0.000 C 
ATOM      4  C   UNL     1       6.717   6.127  17.349  0.00  0.00    +0.000 C 
ATOM      5  C   UNL     1       6.529   4.658  17.660  0.00  0.00    +0.000 C 
ATOM      6  C   UNL     1       5.525   4.869  18.764  0.00  0.00    +0.000 C 
ATOM      7  C   UNL     1       4.862   3.287  19.536  0.00  0.00    +0.000 C 
ATOM      8  C   UNL     1       2.904   3.339  19.482  0.00  0.00    +0.000 C 
ATOM      9  C   UNL     1       2.368   5.187  18.364  0.00  0.00    +0.000 C 
ATOM     10  C   UNL     1       4.160   6.159  18.101  0.00  0.00    +0.000 C 
ATOM     11  C   UNL     1       5.793   4.157  16.484  0.00  0.00    +0.000 C 
ENDROOT
BRANCH   1  15
ATOM     12  C   UNL     1       0.824   3.756  19.907  0.00  0.00    +0.000 A 
ATOM     13  C   UNL     1       1.122   2.695  18.621  0.00  0.00    +0.000 A 
ATOM     14  C   UNL     1       2.465   2.749  17.610  0.00  0.00    +0.000 A 
ATOM     15  C   UNL     1       3.676   4.006  17.907  0.00  0.00    +0.000 A 
ATOM     16  C   UNL     1       3.324   5.199  19.486  0.00  0.00    +0.000 A 
ATOM     17  C   UNL     1       1.837   5.002  20.384  0.00  0.00    +0.000 A 
ENDBRANCH   1  15
TORSDOF 1
ENDMDL
MODEL 2
REMARK VINA RESULT:      -7.6      1.345      4.522
REMARK  Name = 
REMARK  1 active torsions:
REMARK  status: ('A' for Active; 'I' for Inactive)
REMARK    1  A    between atoms: C_4  and  N_5
REMARK                            x       y       z     vdW  Elec       q    Type
REMARK                         _______ _______ _______ _____ _____    ______ ____
ROOT
ATOM      1  N   UNL     1       3.690   3.235  19.923  0.00  0.00    +0.000 N 
ATOM      2  C   UNL     1       2.664   3.334  20.978  0.00  0.00    +0.000 C 
ATOM      3  C   UNL     1       1.463   4.174  20.740  0.00  0.00    +0.000 C 
ATOM      4  C   UNL     1       0.469   3.135  20.092  0.00  0.00    +0.000 C 
ATOM      5  C   UNL     1       1.452   2.537  19.108  0.00  0.00    +0.000 C 
ATOM      6  C   UNL     1       1.704   3.817  18.356  0.00  0.00    +0.000 C 
ATOM      7  C   UNL     1       2.961   3.675  16.963  0.00  0.00    +0.000 C 
ATOM      8  C   UNL     1       4.333   5.051  17.216  0.00  0.00    +0.000 C 
ATOM      9  C   UNL     1       3.859   6.043  19.151  0.00  0.00    +0.000 C 
ATOM     10  C   UNL     1       2.043   5.250  19.697  0.00  0.00    +0.000 C 
ATOM     11  C   UNL     1       2.641   2.272  19.940  0.00  0.00    +0.000 C 
ENDROOT
BRANCH   1  15
ATOM     12  C   UNL     1       5.435   6.900  17.233  0.00  0.00    +0.000 A 
ATOM     13  C   UNL     1       6.268   5.527  17.769  0.00  0.00    +0.000 A 
ATOM     14  C   UNL     1       5.569   4.212  18.551  0.00  0.00    +0.000 A 
ATOM     15  C   UNL     1       3.821   4.251  18.835  0.00  0.00    +0.000 A 
ATOM     16  C   UNL     1       2.857   5.862  18.119  0.00  0.00    +0.000 A 
ATOM     17  C   UNL     1       3.783   7.144  17.373  0.00  0.00    +0.000 A 
ENDBRANCH   1  15
TORSDOF 1
ENDMDL
MODEL 3
REMARK VINA RESULT:      -7.5      1.527      4.476
REMARK  Name = 
REMARK  1 active torsions:
REMARK  status: ('A' for Active; 'I' for Inactive)
REMARK    1  A    between atoms: C_4  and  N_5
REMARK                            x       y       z     vdW  Elec       q    Type
REMARK                         _______ _______ _______ _____ _____    ______ ____
ROOT
ATOM      1  N   UNL     1       3.608   2.819  19.392  0.00  0.00    +0.000 N 
ATOM      2  C   UNL     1       3.365   2.599  20.830  0.00  0.00    +0.000 C 
ATOM      3  C   UNL     1       2.429   3.498  21.549  0.00  0.00    +0.000 C 
ATOM      4  C   UNL     1       1.056   2.745  21.365  0.00  0.00    +0.000 C 
ATOM      5  C   UNL     1       1.201   2.471  19.883  0.00  0.00    +0.000 C 
ATOM      6  C   UNL     1       1.258   3.919  19.471  0.00  0.00    +0.000 C 
ATOM      7  C   UNL     1       1.496   4.202  17.627  0.00  0.00    +0.000 C 
ATOM      8  C   UNL     1       3.032   5.392  17.370  0.00  0.00    +0.000 C 
ATOM      9  C   UNL     1       3.898   5.723  19.393  0.00  0.00    +0.000 C 
ATOM     10  C   UNL     1       2.553   4.839  20.672  0.00  0.00    +0.000 C 
ATOM     11  C   UNL     1       2.567   1.927  19.774  0.00  0.00    +0.000 C 
ENDROOT
BRANCH   1  15
ATOM     12  C   UNL     1       4.315   7.104  17.186  0.00  0.00    +0.000 A 
ATOM     13  C   UNL     1       4.992   5.607  16.774  0.00  0.00    +0.000 A 
ATOM     14  C   UNL     1       4.579   4.131  17.467  0.00  0.00    +0.000 A 
ATOM     15  C   UNL     1       3.331   4.127  18.724  0.00  0.00    +0.000 A 
ATOM     16  C   UNL     1       2.499   5.911  19.132  0.00  0.00    +0.000 A 
ATOM     17  C   UNL     1       3.109   7.337  18.326  0.00  0.00    +0.000 A 
ENDBRANCH   1  15
TORSDOF 1
ENDMDL
MODEL 4
REMARK VINA RESULT:      -7.4      0.951      4.418
REMARK  Name = 
REMARK  1 active torsions:
REMARK  status: ('A' for Active; 'I' for Inactive)
REMARK    1  A    between atoms: C_4  and  N_5
REMARK                            x       y       z     vdW  Elec       q    Type
REMARK                         _______ _______ _______ _____ _____    ______ ____
ROOT
ATOM      1  N   UNL     1       3.176   3.547  17.074  0.00  0.00    +0.000 N 
ATOM      2  C   UNL     1       2.700   2.452  17.939  0.00  0.00    +0.000 C 
ATOM      3  C   UNL     1       2.860   2.571  19.410  0.00  0.00    +0.000 C 
ATOM      4  C   UNL     1       1.510   3.271  19.823  0.00  0.00    +0.000 C 
ATOM      5  C   UNL     1       1.526   4.339  18.750  0.00  0.00    +0.000 C 
ATOM      6  C   UNL     1       2.809   4.984  19.204  0.00  0.00    +0.000 C 
ATOM      7  C   UNL     1       3.379   6.429  18.143  0.00  0.00    +0.000 C 
ATOM      8  C   UNL     1       5.232   6.105  17.591  0.00  0.00    +0.000 C 
ATOM      9  C   UNL     1       5.751   4.075  18.340  0.00  0.00    +0.000 C 
ATOM     10  C   UNL     1       4.143   3.536  19.502  0.00  0.00    +0.000 C 
ATOM     11  C   UNL     1       1.825   3.577  17.523  0.00  0.00    +0.000 C 
ENDROOT
BRANCH   1  15
ATOM     12  C   UNL     1       7.388   5.947  17.545  0.00  0.00    +0.000 A 
ATOM     13  C   UNL     1       6.581   5.550  16.109  0.00  0.00    +0.000 A 
ATOM     14  C   UNL     1       5.046   4.870  16.015  0.00  0.00    +0.000 A 
ATOM     15  C   UNL     1       4.190   4.545  17.531  0.00  0.00    +0.000 A 
ATOM     16  C   UNL     1       5.147   5.099  19.209  0.00  0.00    +0.000 A 
ATOM     17  C   UNL     1       6.765   5.750  19.088  0.00  0.00    +0.000 A 
ENDBRANCH   1  15
TORSDOF 1
ENDMDL
MODEL 5
REMARK VINA RESULT:      -7.3      1.278      2.451
REMARK  Name = 
REMARK  1 active torsions:
REMARK  status: ('A' for Active; 'I' for Inactive)
REMARK    1  A    between atoms: C_4  and  N_5
REMARK                            x       y       z     vdW  Elec       q    Type
REMARK                         _______ _______ _______ _____ _____    ______ ____
ROOT
ATOM      1  N   UNL     1       4.641   6.480  17.283  0.00  0.00    +0.000 N 
ATOM      2  C   UNL     1       6.105   6.530  17.107  0.00  0.00    +0.000 C 
ATOM      3  C   UNL     1       6.896   5.287  17.282  0.00  0.00    +0.000 C 
ATOM      4  C   UNL     1       6.902   4.702  15.818  0.00  0.00    +0.000 C 
ATOM      5  C   UNL     1       5.424   4.888  15.547  0.00  0.00    +0.000 C 
ATOM      6  C   UNL     1       4.956   3.980  16.654  0.00  0.00    +0.000 C 
ATOM      7  C   UNL     1       3.087   3.858  16.833  0.00  0.00    +0.000 C 
ATOM      8  C   UNL     1       2.609   4.260  18.691  0.00  0.00    +0.000 C 
ATOM      9  C   UNL     1       4.504   4.850  19.699  0.00  0.00    +0.000 C 
ATOM     10  C   UNL     1       5.963   4.468  18.302  0.00  0.00    +0.000 C 
ATOM     11  C   UNL     1       5.175   6.276  15.978  0.00  0.00    +0.000 C 
ENDROOT
BRANCH   1  15
ATOM     12  C   UNL     1       2.336   4.105  20.856  0.00  0.00    +0.000 A 
ATOM     13  C   UNL     1       1.922   5.599  20.175  0.00  0.00    +0.000 A 
ATOM     14  C   UNL     1       2.656   6.289  18.829  0.00  0.00    +0.000 A 
ATOM     15  C   UNL     1       3.964   5.388  18.046  0.00  0.00    +0.000 A 
ATOM     16  C   UNL     1       4.377   3.587  18.837  0.00  0.00    +0.000 A 
ATOM     17  C   UNL     1       3.522   3.074  20.272  0.00  0.00    +0.000 A 
ENDBRANCH   1  15
TORSDOF 1
ENDMDL
MODEL 6
REMARK VINA RESULT:      -7.3      1.201      2.492
REMARK  Name = 
REMARK  1 active torsions:
REMARK  status: ('A' for Active; 'I' for Inactive)
REMARK    1  A    between atoms: C_4  and  N_5
REMARK                            x       y       z     vdW  Elec       q    Type
REMARK                         _______ _______ _______ _____ _____    ______ ____
ROOT
ATOM      1  N   UNL     1       5.221   4.771  19.152  0.00  0.00    +0.000 N 
ATOM      2  C   UNL     1       6.127   4.439  18.036  0.00  0.00    +0.000 C 
ATOM      3  C   UNL     1       5.572   4.329  16.664  0.00  0.00    +0.000 C 
ATOM      4  C   UNL     1       5.725   5.807  16.138  0.00  0.00    +0.000 C 
ATOM      5  C   UNL     1       5.163   6.492  17.366  0.00  0.00    +0.000 C 
ATOM      6  C   UNL     1       3.798   5.862  17.275  0.00  0.00    +0.000 C 
ATOM      7  C   UNL     1       2.618   6.342  18.658  0.00  0.00    +0.000 C 
ATOM      8  C   UNL     1       1.916   4.705  19.477  0.00  0.00    +0.000 C 
ATOM      9  C   UNL     1       2.984   3.018  18.493  0.00  0.00    +0.000 C 
ATOM     10  C   UNL     1       4.053   3.909  16.979  0.00  0.00    +0.000 C 
ATOM     11  C   UNL     1       5.881   5.836  18.474  0.00  0.00    +0.000 C 
ENDROOT
BRANCH   1  15
ATOM     12  C   UNL     1       0.767   2.978  19.969  0.00  0.00    +0.000 A 
ATOM     13  C   UNL     1       1.899   3.495  21.119  0.00  0.00    +0.000 A 
ATOM     14  C   UNL     1       3.354   4.263  20.771  0.00  0.00    +0.000 A 
ATOM     15  C   UNL     1       3.743   4.569  19.071  0.00  0.00    +0.000 A 
ATOM     16  C   UNL     1       2.344   4.009  17.741  0.00  0.00    +0.000 A 
ATOM     17  C   UNL     1       0.914   3.180  18.312  0.00  0.00    +0.000 A 
ENDBRANCH   1  15
TORSDOF 1
ENDMDL
MODEL 7
REMARK VINA RESULT:      -7.1      1.268      4.536
REMARK  Name = 
REMARK  1 active torsions:
REMARK  status: ('A' for Active; 'I' for Inactive)
REMARK    1  A    between atoms: C_4  and  N_5
REMARK                            x       y       z     vdW  Elec       q    Type
REMARK                         _______ _______ _______ _____ _____    ______ ____
ROOT
ATOM      1  N   UNL     1       2.282   5.107  18.572  0.00  0.00    +0.000 N 
ATOM      2  C   UNL     1       1.280   4.030  18.678  0.00  0.00    +0.000 C 
ATOM      3  C   UNL     1       1.726   2.617  18.592  0.00  0.00    +0.000 C 
ATOM      4  C   UNL     1       2.014   2.280  20.104  0.00  0.00    +0.000 C 
ATOM      5  C   UNL     1       2.802   3.534  20.420  0.00  0.00    +0.000 C 
ATOM      6  C   UNL     1       3.904   3.269  19.428  0.00  0.00    +0.000 C 
ATOM      7  C   UNL     1       5.222   4.608  19.343  0.00  0.00    +0.000 C 
ATOM      8  C   UNL     1       5.419   5.175  17.477  0.00  0.00    +0.000 C 
ATOM      9  C   UNL     1       3.851   4.083  16.335  0.00  0.00    +0.000 C 
ATOM     10  C   UNL     1       3.053   2.768  17.698  0.00  0.00    +0.000 C 
ATOM     11  C   UNL     1       1.957   4.609  19.866  0.00  0.00    +0.000 C 
ENDROOT
BRANCH   1  15
ATOM     12  C   UNL     1       6.012   5.404  15.454  0.00  0.00    +0.000 A 
ATOM     13  C   UNL     1       5.145   6.682  16.151  0.00  0.00    +0.000 A 
ATOM     14  C   UNL     1       3.978   6.521  17.351  0.00  0.00    +0.000 A 
ATOM     15  C   UNL     1       3.624   4.893  17.950  0.00  0.00    +0.000 A 
ATOM     16  C   UNL     1       4.725   3.412  17.152  0.00  0.00    +0.000 A 
ATOM     17  C   UNL     1       5.859   3.790  15.877  0.00  0.00    +0.000 A 
ENDBRANCH   1  15
TORSDOF 1
ENDMDL
MODEL 8
REMARK VINA RESULT:      -7.0      1.447      4.665
REMARK  Name = 
REMARK  1 active torsions:
REMARK  status: ('A' for Active; 'I' for Inactive)
REMARK    1  A    between atoms: C_4  and  N_5
REMARK                            x       y       z     vdW  Elec       q    Type
REMARK                         _______ _______ _______ _____ _____    ______ ____
ROOT
ATOM      1  N   UNL     1       2.928   5.086  20.439  0.00  0.00    +0.000 N 
ATOM      2  C   UNL     1       1.464   4.915  20.505  0.00  0.00    +0.000 C 
ATOM      3  C   UNL     1       0.824   3.856  19.686  0.00  0.00    +0.000 C 
ATOM      4  C   UNL     1       0.852   2.626  20.672  0.00  0.00    +0.000 C 
ATOM      5  C   UNL     1       2.292   2.783  21.111  0.00  0.00    +0.000 C 
ATOM      6  C   UNL     1       2.886   2.586  19.740  0.00  0.00    +0.000 C 
ATOM      7  C   UNL     1       4.759   2.732  19.667  0.00  0.00    +0.000 C 
ATOM      8  C   UNL     1       5.231   4.039  18.285  0.00  0.00    +0.000 C 
ATOM      9  C   UNL     1       3.305   4.882  17.553  0.00  0.00    +0.000 C 
ATOM     10  C   UNL     1       1.868   3.734  18.470  0.00  0.00    +0.000 C 
ATOM     11  C   UNL     1       2.391   4.219  21.433  0.00  0.00    +0.000 C 
ENDROOT
BRANCH   1  15
ATOM     12  C   UNL     1       5.743   5.012  16.465  0.00  0.00    +0.000 A 
ATOM     13  C   UNL     1       6.001   5.880  17.897  0.00  0.00    +0.000 A 
ATOM     14  C   UNL     1       5.084   5.734  19.299  0.00  0.00    +0.000 A 
ATOM     15  C   UNL     1       3.742   4.577  19.294  0.00  0.00    +0.000 A 
ATOM     16  C   UNL     1       3.514   3.514  17.604  0.00  0.00    +0.000 A 
ATOM     17  C   UNL     1       4.553   3.855  16.240  0.00  0.00    +0.000 A 
ENDBRANCH   1  15
TORSDOF 1
ENDMDL
