MODEL 1
REMARK VINA RESULT:      -5.7      0.000      0.000
REMARK  Name = 
REMARK  5 active torsions:
REMARK  status: ('A' for Active; 'I' for Inactive)
REMARK    1  A    between atoms: C_1  and  O_2
REMARK    2  A    between atoms: O_2  and  C_3
REMARK    3  A    between atoms: C_3  and  C_4
REMARK    4  A    between atoms: N_14  and  C_15
REMARK    5  A    between atoms: C_15  and  C_16
REMARK                            x       y       z     vdW  Elec       q    Type
REMARK                         _______ _______ _______ _____ _____    ______ ____
ROOT
ATOM      1  C   UNL     1       5.794   5.539  15.474  0.00  0.00    +0.000 C 
ATOM      2  O   UNL     1       5.044   6.290  14.848  0.00  0.00    +0.000 OA
ATOM      3  N   UNL     1       5.320   4.783  16.549  0.00  0.00    +0.000 N 
ATOM      4  C   UNL     1       6.226   4.146  17.506  0.00  0.00    +0.000 C 
ATOM      5  C   UNL     1       6.666   5.180  18.544  0.00  0.00    +0.000 C 
ATOM      6  O   UNL     1       5.800   5.333  19.660  0.00  0.00    +0.000 OA
ATOM      7  C   UNL     1       4.406   5.121  19.474  0.00  0.00    +0.000 C 
ATOM      8  C   UNL     1       3.730   5.808  18.268  0.00  0.00    +0.000 C 
ATOM      9  C   UNL     1       4.167   7.270  18.069  0.00  0.00    +0.000 C 
ATOM     10  C   UNL     1       2.867   8.030  17.851  0.00  0.00    +0.000 C 
ATOM     11  N   UNL     1       1.889   7.360  18.723  0.00  0.00    +0.000 NA
ATOM     12  C   UNL     1       2.204   5.928  18.554  0.00  0.00    +0.000 C 
ATOM     13  C   UNL     1       3.926   4.956  16.984  0.00  0.00    +0.000 C 
ENDROOT
BRANCH   1  14
ATOM     14  C   UNL     1       7.280   5.397  15.086  0.00  0.00    +0.000 C 
BRANCH  14  16
ATOM     15  C   UNL     1       6.659   4.023  13.268  0.00  0.00    +0.000 C 
ATOM     16  O   UNL     1       7.414   5.150  13.691  0.00  0.00    +0.000 OA
ENDBRANCH  14  16
ENDBRANCH   1  14
BRANCH  11  17
ATOM     17  C   UNL     1       2.022   7.851  20.110  0.00  0.00    +0.000 C 
BRANCH  17  18
ATOM     18  C   UNL     1       1.045   8.940  20.458  0.00  0.00    +0.000 A 
ATOM     19  C   UNL     1       0.353   9.783  19.610  0.00  0.00    +0.000 A 
ATOM     20  C   UNL     1      -0.458  10.719  20.317  0.00  0.00    +0.000 A 
ATOM     21  C   UNL     1      -0.360  10.558  21.681  0.00  0.00    +0.000 A 
ATOM     22  S   UNL     1       0.717   9.303  22.104  0.00  0.00    +0.000 S 
ENDBRANCH  17  18
ENDBRANCH  11  17
TORSDOF 4
ENDMDL
MODEL 2
REMARK VINA RESULT:      -5.5      1.213      1.373
REMARK  Name = 
REMARK  5 active torsions:
REMARK  status: ('A' for Active; 'I' for Inactive)
REMARK    1  A    between atoms: C_1  and  O_2
REMARK    2  A    between atoms: O_2  and  C_3
REMARK    3  A    between atoms: C_3  and  C_4
REMARK    4  A    between atoms: N_14  and  C_15
REMARK    5  A    between atoms: C_15  and  C_16
REMARK                            x       y       z     vdW  Elec       q    Type
REMARK                         _______ _______ _______ _____ _____    ______ ____
ROOT
ATOM      1  C   UNL     1       5.957   4.611  15.238  0.00  0.00    +0.000 C 
ATOM      2  O   UNL     1       4.833   4.712  14.741  0.00  0.00    +0.000 OA
ATOM      3  N   UNL     1       6.124   4.206  16.564  0.00  0.00    +0.000 N 
ATOM      4  C   UNL     1       7.389   4.389  17.276  0.00  0.00    +0.000 C 
ATOM      5  C   UNL     1       7.467   5.824  17.799  0.00  0.00    +0.000 C 
ATOM      6  O   UNL     1       6.868   6.045  19.068  0.00  0.00    +0.000 OA
ATOM      7  C   UNL     1       5.742   5.256  19.438  0.00  0.00    +0.000 C 
ATOM      8  C   UNL     1       4.602   5.109  18.408  0.00  0.00    +0.000 C 
ATOM      9  C   UNL     1       4.232   6.429  17.708  0.00  0.00    +0.000 C 
ATOM     10  C   UNL     1       2.712   6.480  17.768  0.00  0.00    +0.000 C 
ATOM     11  N   UNL     1       2.368   5.873  19.064  0.00  0.00    +0.000 NA
ATOM     12  C   UNL     1       3.295   4.729  19.164  0.00  0.00    +0.000 C 
ATOM     13  C   UNL     1       4.933   3.979  17.396  0.00  0.00    +0.000 C 
ENDROOT
BRANCH   1  14
ATOM     14  C   UNL     1       7.221   4.918  14.408  0.00  0.00    +0.000 C 
BRANCH  14  16
ATOM     15  C   UNL     1       7.784   5.341  12.153  0.00  0.00    +0.000 C 
ATOM     16  O   UNL     1       7.038   4.531  13.052  0.00  0.00    +0.000 OA
ENDBRANCH  14  16
ENDBRANCH   1  14
BRANCH  11  17
ATOM     17  C   UNL     1       2.511   6.868  20.146  0.00  0.00    +0.000 C 
BRANCH  17  18
ATOM     18  C   UNL     1       1.642   8.082  19.967  0.00  0.00    +0.000 A 
ATOM     19  C   UNL     1       1.544   8.920  18.873  0.00  0.00    +0.000 A 
ATOM     20  C   UNL     1       0.633   9.995  19.092  0.00  0.00    +0.000 A 
ATOM     21  C   UNL     1       0.064   9.940  20.343  0.00  0.00    +0.000 A 
ATOM     22  S   UNL     1       0.640   8.616  21.254  0.00  0.00    +0.000 S 
ENDBRANCH  17  18
ENDBRANCH  11  17
TORSDOF 4
ENDMDL
MODEL 3
REMARK VINA RESULT:      -5.4      3.655      7.708
REMARK  Name = 
REMARK  5 active torsions:
REMARK  status: ('A' for Active; 'I' for Inactive)
REMARK    1  A    between atoms: C_1  and  O_2
REMARK    2  A    between atoms: O_2  and  C_3
REMARK    3  A    between atoms: C_3  and  C_4
REMARK    4  A    between atoms: N_14  and  C_15
REMARK    5  A    between atoms: C_15  and  C_16
REMARK                            x       y       z     vdW  Elec       q    Type
REMARK                         _______ _______ _______ _____ _____    ______ ____
ROOT
ATOM      1  C   UNL     1       2.281   6.701  20.032  0.00  0.00    +0.000 C 
ATOM      2  O   UNL     1       2.916   7.644  19.557  0.00  0.00    +0.000 OA
ATOM      3  N   UNL     1       2.866   5.441  20.177  0.00  0.00    +0.000 N 
ATOM      4  C   UNL     1       2.066   4.240  20.422  0.00  0.00    +0.000 C 
ATOM      5  C   UNL     1       1.509   3.729  19.093  0.00  0.00    +0.000 C 
ATOM      6  O   UNL     1       2.364   2.857  18.367  0.00  0.00    +0.000 OA
ATOM      7  C   UNL     1       3.772   3.030  18.482  0.00  0.00    +0.000 C 
ATOM      8  C   UNL     1       4.333   4.460  18.329  0.00  0.00    +0.000 C 
ATOM      9  C   UNL     1       3.705   5.245  17.163  0.00  0.00    +0.000 C 
ATOM     10  C   UNL     1       4.890   5.866  16.439  0.00  0.00    +0.000 C 
ATOM     11  N   UNL     1       5.960   4.861  16.541  0.00  0.00    +0.000 NA
ATOM     12  C   UNL     1       5.834   4.366  17.926  0.00  0.00    +0.000 C 
ATOM     13  C   UNL     1       4.231   5.226  19.676  0.00  0.00    +0.000 C 
ENDROOT
BRANCH   1  14
ATOM     14  C   UNL     1       0.820   6.881  20.496  0.00  0.00    +0.000 C 
BRANCH  14  16
ATOM     15  C   UNL     1      -0.404   8.657  21.459  0.00  0.00    +0.000 C 
ATOM     16  O   UNL     1       0.743   7.824  21.558  0.00  0.00    +0.000 OA
ENDBRANCH  14  16
ENDBRANCH   1  14
BRANCH  11  17
ATOM     17  C   UNL     1       5.785   3.822  15.506  0.00  0.00    +0.000 C 
BRANCH  17  18
ATOM     18  C   UNL     1       6.460   4.152  14.202  0.00  0.00    +0.000 A 
ATOM     19  C   UNL     1       7.460   5.073  13.956  0.00  0.00    +0.000 A 
ATOM     20  C   UNL     1       7.819   5.128  12.578  0.00  0.00    +0.000 A 
ATOM     21  C   UNL     1       7.085   4.246  11.818  0.00  0.00    +0.000 A 
ATOM     22  S   UNL     1       5.957   3.375  12.757  0.00  0.00    +0.000 S 
ENDBRANCH  17  18
ENDBRANCH  11  17
TORSDOF 4
ENDMDL
MODEL 4
REMARK VINA RESULT:      -5.3      1.318      1.472
REMARK  Name = 
REMARK  5 active torsions:
REMARK  status: ('A' for Active; 'I' for Inactive)
REMARK    1  A    between atoms: C_1  and  O_2
REMARK    2  A    between atoms: O_2  and  C_3
REMARK    3  A    between atoms: C_3  and  C_4
REMARK    4  A    between atoms: N_14  and  C_15
REMARK    5  A    between atoms: C_15  and  C_16
REMARK                            x       y       z     vdW  Elec       q    Type
REMARK                         _______ _______ _______ _____ _____    ______ ____
ROOT
ATOM      1  C   UNL     1       5.752   4.463  15.233  0.00  0.00    +0.000 C 
ATOM      2  O   UNL     1       4.617   4.601  14.773  0.00  0.00    +0.000 OA
ATOM      3  N   UNL     1       5.948   4.142  16.579  0.00  0.00    +0.000 N 
ATOM      4  C   UNL     1       7.252   4.292  17.228  0.00  0.00    +0.000 C 
ATOM      5  C   UNL     1       7.439   5.752  17.643  0.00  0.00    +0.000 C 
ATOM      6  O   UNL     1       6.908   6.100  18.914  0.00  0.00    +0.000 OA
ATOM      7  C   UNL     1       5.753   5.413  19.381  0.00  0.00    +0.000 C 
ATOM      8  C   UNL     1       4.563   5.268  18.408  0.00  0.00    +0.000 C 
ATOM      9  C   UNL     1       4.246   6.556  17.628  0.00  0.00    +0.000 C 
ATOM     10  C   UNL     1       2.737   6.709  17.740  0.00  0.00    +0.000 C 
ATOM     11  N   UNL     1       2.410   6.218  19.089  0.00  0.00    +0.000 NA
ATOM     12  C   UNL     1       3.268   5.026  19.237  0.00  0.00    +0.000 C 
ATOM     13  C   UNL     1       4.781   4.050  17.468  0.00  0.00    +0.000 C 
ENDROOT
BRANCH   1  14
ATOM     14  C   UNL     1       6.997   4.630  14.337  0.00  0.00    +0.000 C 
BRANCH  14  16
ATOM     15  C   UNL     1       6.581   3.492  12.309  0.00  0.00    +0.000 C 
ATOM     16  O   UNL     1       6.620   4.749  12.971  0.00  0.00    +0.000 OA
ENDBRANCH  14  16
ENDBRANCH   1  14
BRANCH  11  17
ATOM     17  C   UNL     1       2.659   7.275  20.091  0.00  0.00    +0.000 C 
BRANCH  17  18
ATOM     18  C   UNL     1       1.521   8.247  20.236  0.00  0.00    +0.000 A 
ATOM     19  C   UNL     1       0.597   8.348  21.258  0.00  0.00    +0.000 A 
ATOM     20  C   UNL     1      -0.362   9.376  21.024  0.00  0.00    +0.000 A 
ATOM     21  C   UNL     1      -0.137  10.029  19.833  0.00  0.00    +0.000 A 
ATOM     22  S   UNL     1       1.207   9.391  18.996  0.00  0.00    +0.000 S 
ENDBRANCH  17  18
ENDBRANCH  11  17
TORSDOF 4
ENDMDL
MODEL 5
REMARK VINA RESULT:      -5.3      4.229      7.224
REMARK  Name = 
REMARK  5 active torsions:
REMARK  status: ('A' for Active; 'I' for Inactive)
REMARK    1  A    between atoms: C_1  and  O_2
REMARK    2  A    between atoms: O_2  and  C_3
REMARK    3  A    between atoms: C_3  and  C_4
REMARK    4  A    between atoms: N_14  and  C_15
REMARK    5  A    between atoms: C_15  and  C_16
REMARK                            x       y       z     vdW  Elec       q    Type
REMARK                         _______ _______ _______ _____ _____    ______ ____
ROOT
ATOM      1  C   UNL     1       1.640   4.594  19.032  0.00  0.00    +0.000 C 
ATOM      2  O   UNL     1       1.208   5.143  18.017  0.00  0.00    +0.000 OA
ATOM      3  N   UNL     1       2.883   4.942  19.565  0.00  0.00    +0.000 N 
ATOM      4  C   UNL     1       3.564   4.103  20.552  0.00  0.00    +0.000 C 
ATOM      5  C   UNL     1       4.293   2.970  19.829  0.00  0.00    +0.000 C 
ATOM      6  O   UNL     1       5.604   3.278  19.374  0.00  0.00    +0.000 OA
ATOM      7  C   UNL     1       5.894   4.617  18.988  0.00  0.00    +0.000 C 
ATOM      8  C   UNL     1       4.899   5.322  18.041  0.00  0.00    +0.000 C 
ATOM      9  C   UNL     1       4.419   4.431  16.881  0.00  0.00    +0.000 C 
ATOM     10  C   UNL     1       4.545   5.312  15.647  0.00  0.00    +0.000 C 
ATOM     11  N   UNL     1       5.748   6.125  15.887  0.00  0.00    +0.000 NA
ATOM     12  C   UNL     1       5.640   6.483  17.315  0.00  0.00    +0.000 C 
ATOM     13  C   UNL     1       3.717   5.920  18.851  0.00  0.00    +0.000 C 
ENDROOT
BRANCH   1  14
ATOM     14  C   UNL     1       0.817   3.509  19.758  0.00  0.00    +0.000 C 
BRANCH  14  16
ATOM     15  C   UNL     1       1.487   1.709  18.383  0.00  0.00    +0.000 C 
ATOM     16  O   UNL     1       0.401   2.500  18.846  0.00  0.00    +0.000 OA
ENDBRANCH  14  16
ENDBRANCH   1  14
BRANCH  11  17
ATOM     17  C   UNL     1       6.961   5.355  15.544  0.00  0.00    +0.000 C 
BRANCH  17  18
ATOM     18  C   UNL     1       6.931   4.771  14.159  0.00  0.00    +0.000 A 
ATOM     19  C   UNL     1       6.169   3.722  13.680  0.00  0.00    +0.000 A 
ATOM     20  C   UNL     1       6.446   3.430  12.312  0.00  0.00    +0.000 A 
ATOM     21  C   UNL     1       7.406   4.267  11.791  0.00  0.00    +0.000 A 
ATOM     22  S   UNL     1       7.985   5.380  12.949  0.00  0.00    +0.000 S 
ENDBRANCH  17  18
ENDBRANCH  11  17
TORSDOF 4
ENDMDL
MODEL 6
REMARK VINA RESULT:      -5.2      9.042     11.868
REMARK  Name = 
REMARK  5 active torsions:
REMARK  status: ('A' for Active; 'I' for Inactive)
REMARK    1  A    between atoms: C_1  and  O_2
REMARK    2  A    between atoms: O_2  and  C_3
REMARK    3  A    between atoms: C_3  and  C_4
REMARK    4  A    between atoms: N_14  and  C_15
REMARK    5  A    between atoms: C_15  and  C_16
REMARK                            x       y       z     vdW  Elec       q    Type
REMARK                         _______ _______ _______ _____ _____    ______ ____
ROOT
ATOM      1  C   UNL     1       5.567  11.960  25.888  0.00  0.00    +0.000 C 
ATOM      2  O   UNL     1       5.311  11.091  25.052  0.00  0.00    +0.000 OA
ATOM      3  N   UNL     1       5.988  13.233  25.496  0.00  0.00    +0.000 N 
ATOM      4  C   UNL     1       6.607  14.167  26.438  0.00  0.00    +0.000 C 
ATOM      5  C   UNL     1       8.089  13.821  26.586  0.00  0.00    +0.000 C 
ATOM      6  O   UNL     1       8.954  14.413  25.628  0.00  0.00    +0.000 OA
ATOM      7  C   UNL     1       8.452  14.665  24.320  0.00  0.00    +0.000 C 
ATOM      8  C   UNL     1       7.691  13.524  23.613  0.00  0.00    +0.000 C 
ATOM      9  C   UNL     1       8.366  12.149  23.764  0.00  0.00    +0.000 C 
ATOM     10  C   UNL     1       8.361  11.565  22.359  0.00  0.00    +0.000 C 
ATOM     11  N   UNL     1       8.573  12.721  21.472  0.00  0.00    +0.000 NA
ATOM     12  C   UNL     1       7.734  13.775  22.076  0.00  0.00    +0.000 C 
ATOM     13  C   UNL     1       6.206  13.504  24.067  0.00  0.00    +0.000 C 
ENDROOT
BRANCH   1  14
ATOM     14  C   UNL     1       5.420  11.676  27.397  0.00  0.00    +0.000 C 
BRANCH  14  16
ATOM     15  C   UNL     1       3.711  13.003  28.345  0.00  0.00    +0.000 C 
ATOM     16  O   UNL     1       4.054  11.741  27.790  0.00  0.00    +0.000 OA
ENDBRANCH  14  16
ENDBRANCH   1  14
BRANCH  11  17
ATOM     17  C   UNL     1      10.010  13.054  21.402  0.00  0.00    +0.000 C 
BRANCH  17  18
ATOM     18  C   UNL     1      10.640  12.725  20.077  0.00  0.00    +0.000 A 
ATOM     19  C   UNL     1      10.599  11.538  19.371  0.00  0.00    +0.000 A 
ATOM     20  C   UNL     1      11.354  11.597  18.164  0.00  0.00    +0.000 A 
ATOM     21  C   UNL     1      11.944  12.828  17.985  0.00  0.00    +0.000 A 
ATOM     22  S   UNL     1      11.607  13.895  19.274  0.00  0.00    +0.000 S 
ENDBRANCH  17  18
ENDBRANCH  11  17
TORSDOF 4
ENDMDL
MODEL 7
REMARK VINA RESULT:      -5.1      9.200     11.773
REMARK  Name = 
REMARK  5 active torsions:
REMARK  status: ('A' for Active; 'I' for Inactive)
REMARK    1  A    between atoms: C_1  and  O_2
REMARK    2  A    between atoms: O_2  and  C_3
REMARK    3  A    between atoms: C_3  and  C_4
REMARK    4  A    between atoms: N_14  and  C_15
REMARK    5  A    between atoms: C_15  and  C_16
REMARK                            x       y       z     vdW  Elec       q    Type
REMARK                         _______ _______ _______ _____ _____    ______ ____
ROOT
ATOM      1  C   UNL     1       5.592  11.893  25.918  0.00  0.00    +0.000 C 
ATOM      2  O   UNL     1       5.398  11.038  25.052  0.00  0.00    +0.000 OA
ATOM      3  N   UNL     1       5.898  13.211  25.571  0.00  0.00    +0.000 N 
ATOM      4  C   UNL     1       6.449  14.158  26.541  0.00  0.00    +0.000 C 
ATOM      5  C   UNL     1       7.957  13.934  26.659  0.00  0.00    +0.000 C 
ATOM      6  O   UNL     1       8.755  14.633  25.715  0.00  0.00    +0.000 OA
ATOM      7  C   UNL     1       8.214  14.891  24.424  0.00  0.00    +0.000 C 
ATOM      8  C   UNL     1       7.542  13.717  23.681  0.00  0.00    +0.000 C 
ATOM      9  C   UNL     1       8.332  12.399  23.770  0.00  0.00    +0.000 C 
ATOM     10  C   UNL     1       8.356  11.872  22.344  0.00  0.00    +0.000 C 
ATOM     11  N   UNL     1       8.456  13.074  21.500  0.00  0.00    +0.000 NA
ATOM     12  C   UNL     1       7.541  14.029  22.155  0.00  0.00    +0.000 C 
ATOM     13  C   UNL     1       6.071  13.554  24.152  0.00  0.00    +0.000 C 
ENDROOT
BRANCH   1  14
ATOM     14  C   UNL     1       5.491  11.540  27.417  0.00  0.00    +0.000 C 
BRANCH  14  16
ATOM     15  C   UNL     1       6.058   9.567  28.583  0.00  0.00    +0.000 C 
ATOM     16  O   UNL     1       5.229  10.154  27.590  0.00  0.00    +0.000 OA
ENDBRANCH  14  16
ENDBRANCH   1  14
BRANCH  11  17
ATOM     17  C   UNL     1       9.859  13.530  21.427  0.00  0.00    +0.000 C 
BRANCH  17  18
ATOM     18  C   UNL     1      10.604  12.996  20.234  0.00  0.00    +0.000 A 
ATOM     19  C   UNL     1      11.361  11.845  20.132  0.00  0.00    +0.000 A 
ATOM     20  C   UNL     1      11.947  11.693  18.842  0.00  0.00    +0.000 A 
ATOM     21  C   UNL     1      11.617  12.731  18.001  0.00  0.00    +0.000 A 
ATOM     22  S   UNL     1      10.626  13.889  18.768  0.00  0.00    +0.000 S 
ENDBRANCH  17  18
ENDBRANCH  11  17
TORSDOF 4
ENDMDL
MODEL 8
REMARK VINA RESULT:      -5.1      2.934      4.353
REMARK  Name = 
REMARK  5 active torsions:
REMARK  status: ('A' for Active; 'I' for Inactive)
REMARK    1  A    between atoms: C_1  and  O_2
REMARK    2  A    between atoms: O_2  and  C_3
REMARK    3  A    between atoms: C_3  and  C_4
REMARK    4  A    between atoms: N_14  and  C_15
REMARK    5  A    between atoms: C_15  and  C_16
REMARK                            x       y       z     vdW  Elec       q    Type
REMARK                         _______ _______ _______ _____ _____    ______ ____
ROOT
ATOM      1  C   UNL     1       4.753   2.767  19.649  0.00  0.00    +0.000 C 
ATOM      2  O   UNL     1       5.489   3.663  20.069  0.00  0.00    +0.000 OA
ATOM      3  N   UNL     1       4.005   2.939  18.483  0.00  0.00    +0.000 N 
ATOM      4  C   UNL     1       2.893   2.051  18.138  0.00  0.00    +0.000 C 
ATOM      5  C   UNL     1       1.643   2.496  18.898  0.00  0.00    +0.000 C 
ATOM      6  O   UNL     1       0.868   3.504  18.263  0.00  0.00    +0.000 OA
ATOM      7  C   UNL     1       1.532   4.460  17.445  0.00  0.00    +0.000 C 
ATOM      8  C   UNL     1       2.793   5.141  18.018  0.00  0.00    +0.000 C 
ATOM      9  C   UNL     1       2.642   5.578  19.487  0.00  0.00    +0.000 C 
ATOM     10  C   UNL     1       3.179   7.001  19.518  0.00  0.00    +0.000 C 
ATOM     11  N   UNL     1       2.776   7.583  18.227  0.00  0.00    +0.000 NA
ATOM     12  C   UNL     1       3.017   6.487  17.268  0.00  0.00    +0.000 C 
ATOM     13  C   UNL     1       4.039   4.240  17.798  0.00  0.00    +0.000 C 
ENDROOT
BRANCH   1  14
ATOM     14  C   UNL     1       4.641   1.420  20.392  0.00  0.00    +0.000 C 
BRANCH  14  16
ATOM     15  C   UNL     1       5.938   0.071  21.834  0.00  0.00    +0.000 C 
ATOM     16  O   UNL     1       5.516   1.390  21.513  0.00  0.00    +0.000 OA
ENDBRANCH  14  16
ENDBRANCH   1  14
BRANCH  11  17
ATOM     17  C   UNL     1       1.373   8.038  18.289  0.00  0.00    +0.000 C 
BRANCH  17  18
ATOM     18  C   UNL     1       1.205   9.383  18.941  0.00  0.00    +0.000 A 
ATOM     19  C   UNL     1       1.501  10.633  18.433  0.00  0.00    +0.000 A 
ATOM     20  C   UNL     1       1.239  11.676  19.368  0.00  0.00    +0.000 A 
ATOM     21  C   UNL     1       0.749  11.189  20.559  0.00  0.00    +0.000 A 
ATOM     22  S   UNL     1       0.627   9.487  20.554  0.00  0.00    +0.000 S 
ENDBRANCH  17  18
ENDBRANCH  11  17
TORSDOF 4
ENDMDL
MODEL 9
REMARK VINA RESULT:      -5.1      4.817      7.342
REMARK  Name = 
REMARK  5 active torsions:
REMARK  status: ('A' for Active; 'I' for Inactive)
REMARK    1  A    between atoms: C_1  and  O_2
REMARK    2  A    between atoms: O_2  and  C_3
REMARK    3  A    between atoms: C_3  and  C_4
REMARK    4  A    between atoms: N_14  and  C_15
REMARK    5  A    between atoms: C_15  and  C_16
REMARK                            x       y       z     vdW  Elec       q    Type
REMARK                         _______ _______ _______ _____ _____    ______ ____
ROOT
ATOM      1  C   UNL     1       1.581   9.026  18.521  0.00  0.00    +0.000 C 
ATOM      2  O   UNL     1       2.018   9.514  17.476  0.00  0.00    +0.000 OA
ATOM      3  N   UNL     1       0.472   9.579  19.164  0.00  0.00    +0.000 N 
ATOM      4  C   UNL     1       0.131   9.241  20.547  0.00  0.00    +0.000 C 
ATOM      5  C   UNL     1       0.987  10.084  21.493  0.00  0.00    +0.000 C 
ATOM      6  O   UNL     1       0.465  11.366  21.812  0.00  0.00    +0.000 OA
ATOM      7  C   UNL     1      -0.323  12.042  20.839  0.00  0.00    +0.000 C 
ATOM      8  C   UNL     1       0.223  12.112  19.397  0.00  0.00    +0.000 C 
ATOM      9  C   UNL     1       1.724  12.448  19.324  0.00  0.00    +0.000 C 
ATOM     10  C   UNL     1       1.820  13.531  18.259  0.00  0.00    +0.000 C 
ATOM     11  N   UNL     1       0.595  14.330  18.424  0.00  0.00    +0.000 NA
ATOM     12  C   UNL     1      -0.447  13.313  18.668  0.00  0.00    +0.000 C 
ATOM     13  C   UNL     1      -0.126  10.810  18.625  0.00  0.00    +0.000 C 
ENDROOT
BRANCH   1  14
ATOM     14  C   UNL     1       2.237   7.778  19.148  0.00  0.00    +0.000 C 
BRANCH  14  16
ATOM     15  C   UNL     1       2.842   5.667  18.279  0.00  0.00    +0.000 C 
ATOM     16  O   UNL     1       3.006   7.075  18.180  0.00  0.00    +0.000 OA
ENDBRANCH  14  16
ENDBRANCH   1  14
BRANCH  11  17
ATOM     17  C   UNL     1       0.765  15.302  19.523  0.00  0.00    +0.000 C 
BRANCH  17  18
ATOM     18  C   UNL     1      -0.131  16.504  19.407  0.00  0.00    +0.000 A 
ATOM     19  C   UNL     1      -0.656  17.084  18.269  0.00  0.00    +0.000 A 
ATOM     20  C   UNL     1      -1.436  18.241  18.558  0.00  0.00    +0.000 A 
ATOM     21  C   UNL     1      -1.483  18.506  19.908  0.00  0.00    +0.000 A 
ATOM     22  S   UNL     1      -0.576  17.380  20.815  0.00  0.00    +0.000 S 
ENDBRANCH  17  18
ENDBRANCH  11  17
TORSDOF 4
ENDMDL
