MODEL 1
REMARK VINA RESULT:      -7.9      0.000      0.000
REMARK  Name = 
REMARK  6 active torsions:
REMARK  status: ('A' for Active; 'I' for Inactive)
REMARK    1  A    between atoms: C_2  and  C_3
REMARK    2  A    between atoms: C_12  and  N_13
REMARK    3  A    between atoms: N_13  and  C_14
REMARK    4  A    between atoms: N_13  and  S_17
REMARK    5  A    between atoms: S_17  and  C_20
REMARK    6  A    between atoms: C_24  and  C_25
REMARK                            x       y       z     vdW  Elec       q    Type
REMARK                         _______ _______ _______ _____ _____    ______ ____
ROOT
ATOM      1  N   UNL     1       1.070  10.983  19.693  0.00  0.00    +0.000 NA
ENDROOT
BRANCH   1   7
ATOM      2  O   UNL     1       3.191   5.975  17.610  0.00  0.00    +0.000 OA
ATOM      3  C   UNL     1       2.614   6.250  18.676  0.00  0.00    +0.000 C 
ATOM      4  N   UNL     1       2.396   7.560  19.111  0.00  0.00    +0.000 N 
ATOM      5  C   UNL     1       1.772   7.987  20.365  0.00  0.00    +0.000 C 
ATOM      6  C   UNL     1       0.364   8.531  20.074  0.00  0.00    +0.000 C 
ATOM      7  C   UNL     1       0.435   9.712  19.094  0.00  0.00    +0.000 C 
ATOM      8  C   UNL     1       1.197   9.227  17.834  0.00  0.00    +0.000 C 
ATOM      9  C   UNL     1       2.567   8.647  18.171  0.00  0.00    +0.000 C 
BRANCH   3  10
ATOM     10  C   UNL     1       2.147   5.121  19.468  0.00  0.00    +0.000 A 
ATOM     11  C   UNL     1       1.286   4.169  18.931  0.00  0.00    +0.000 A 
ATOM     12  C   UNL     1       0.861   3.088  19.709  0.00  0.00    +0.000 A 
ATOM     13  C   UNL     1       1.329   2.929  21.015  0.00  0.00    +0.000 A 
ATOM     14  C   UNL     1       2.188   3.854  21.568  0.00  0.00    +0.000 A 
ATOM     15  C   UNL     1       2.512   4.959  20.822  0.00  0.00    +0.000 A 
ENDBRANCH   3  10
ENDBRANCH   1   7
BRANCH   1  16
ATOM     16  C   UNL     1       1.293  12.042  18.613  0.00  0.00    +0.000 C 
ATOM     17  C   UNL     1       1.741  13.447  18.949  0.00  0.00    +0.000 C 
ATOM     18  C   UNL     1       2.654  12.563  18.175  0.00  0.00    +0.000 C 
ENDBRANCH   1  16
BRANCH   1  19
ATOM     19  S   UNL     1       0.203  11.625  21.099  0.00  0.00    +0.000 S 
ATOM     20  O   UNL     1      -0.127  10.570  22.043  0.00  0.00    +0.000 OA
ATOM     21  O   UNL     1       0.880  12.807  21.578  0.00  0.00    +0.000 OA
BRANCH  19  22
ATOM     22  C   UNL     1      -1.409  12.153  20.482  0.00  0.00    +0.000 A 
ATOM     23  C   UNL     1      -2.166  13.055  21.248  0.00  0.00    +0.000 A 
ATOM     24  C   UNL     1      -3.502  13.300  20.928  0.00  0.00    +0.000 A 
ATOM     25  C   UNL     1      -4.087  12.664  19.835  0.00  0.00    +0.000 A 
ATOM     26  C   UNL     1      -3.338  11.770  19.047  0.00  0.00    +0.000 A 
ATOM     27  C   UNL     1      -1.997  11.506  19.391  0.00  0.00    +0.000 A 
BRANCH  26  28
ATOM     28  C   UNL     1      -3.975  11.067  17.873  0.00  0.00    +0.000 C 
ATOM     29  F   UNL     1      -5.328  10.954  17.974  0.00  0.00    +0.000 F 
ATOM     30  F   UNL     1      -3.739  11.712  16.698  0.00  0.00    +0.000 F 
ATOM     31  F   UNL     1      -3.505   9.799  17.705  0.00  0.00    +0.000 F 
ENDBRANCH  26  28
ENDBRANCH  19  22
ENDBRANCH   1  19
TORSDOF 6
ENDMDL
MODEL 2
REMARK VINA RESULT:      -7.8      0.304      1.166
REMARK  Name = 
REMARK  6 active torsions:
REMARK  status: ('A' for Active; 'I' for Inactive)
REMARK    1  A    between atoms: C_2  and  C_3
REMARK    2  A    between atoms: C_12  and  N_13
REMARK    3  A    between atoms: N_13  and  C_14
REMARK    4  A    between atoms: N_13  and  S_17
REMARK    5  A    between atoms: S_17  and  C_20
REMARK    6  A    between atoms: C_24  and  C_25
REMARK                            x       y       z     vdW  Elec       q    Type
REMARK                         _______ _______ _______ _____ _____    ______ ____
ROOT
ATOM      1  N   UNL     1       0.925  11.052  19.868  0.00  0.00    +0.000 NA
ENDROOT
BRANCH   1   7
ATOM      2  O   UNL     1       3.131   6.192  17.536  0.00  0.00    +0.000 OA
ATOM      3  C   UNL     1       2.576   6.409  18.627  0.00  0.00    +0.000 C 
ATOM      4  N   UNL     1       2.332   7.695  19.118  0.00  0.00    +0.000 N 
ATOM      5  C   UNL     1       1.732   8.056  20.404  0.00  0.00    +0.000 C 
ATOM      6  C   UNL     1       0.301   8.567  20.172  0.00  0.00    +0.000 C 
ATOM      7  C   UNL     1       0.310   9.786  19.237  0.00  0.00    +0.000 C 
ATOM      8  C   UNL     1       1.050   9.372  17.939  0.00  0.00    +0.000 C 
ATOM      9  C   UNL     1       2.445   8.821  18.217  0.00  0.00    +0.000 C 
BRANCH   3  10
ATOM     10  C   UNL     1       2.164   5.237  19.387  0.00  0.00    +0.000 A 
ATOM     11  C   UNL     1       2.520   5.081  20.722  0.00  0.00    +0.000 A 
ATOM     12  C   UNL     1       2.103   3.951  21.433  0.00  0.00    +0.000 A 
ATOM     13  C   UNL     1       1.289   2.993  20.823  0.00  0.00    +0.000 A 
ATOM     14  C   UNL     1       0.916   3.129  19.504  0.00  0.00    +0.000 A 
ATOM     15  C   UNL     1       1.419   4.192  18.798  0.00  0.00    +0.000 A 
ENDBRANCH   3  10
ENDBRANCH   1   7
BRANCH   1  16
ATOM     16  C   UNL     1       1.172  12.125  18.806  0.00  0.00    +0.000 C 
ATOM     17  C   UNL     1       1.677  13.505  19.164  0.00  0.00    +0.000 C 
ATOM     18  C   UNL     1       2.544  12.603  18.358  0.00  0.00    +0.000 C 
ENDBRANCH   1  16
BRANCH   1  19
ATOM     19  S   UNL     1       0.020  11.674  21.258  0.00  0.00    +0.000 S 
ATOM     20  O   UNL     1      -0.321  10.609  22.186  0.00  0.00    +0.000 OA
ATOM     21  O   UNL     1       0.673  12.860  21.762  0.00  0.00    +0.000 OA
BRANCH  19  22
ATOM     22  C   UNL     1      -1.584  12.191  20.609  0.00  0.00    +0.000 A 
ATOM     23  C   UNL     1      -2.434  12.950  21.428  0.00  0.00    +0.000 A 
ATOM     24  C   UNL     1      -3.762  13.164  21.057  0.00  0.00    +0.000 A 
ATOM     25  C   UNL     1      -4.246  12.638  19.860  0.00  0.00    +0.000 A 
ATOM     26  C   UNL     1      -3.403  11.889  19.019  0.00  0.00    +0.000 A 
ATOM     27  C   UNL     1      -2.070  11.654  19.412  0.00  0.00    +0.000 A 
BRANCH  26  28
ATOM     28  C   UNL     1      -3.929  11.305  17.730  0.00  0.00    +0.000 C 
ATOM     29  F   UNL     1      -3.162  11.601  16.645  0.00  0.00    +0.000 F 
ATOM     30  F   UNL     1      -4.006   9.947  17.775  0.00  0.00    +0.000 F 
ATOM     31  F   UNL     1      -5.184  11.742  17.433  0.00  0.00    +0.000 F 
ENDBRANCH  26  28
ENDBRANCH  19  22
ENDBRANCH   1  19
TORSDOF 6
ENDMDL
MODEL 3
REMARK VINA RESULT:      -7.7      5.041      9.556
REMARK  Name = 
REMARK  6 active torsions:
REMARK  status: ('A' for Active; 'I' for Inactive)
REMARK    1  A    between atoms: C_2  and  C_3
REMARK    2  A    between atoms: C_12  and  N_13
REMARK    3  A    between atoms: N_13  and  C_14
REMARK    4  A    between atoms: N_13  and  S_17
REMARK    5  A    between atoms: S_17  and  C_20
REMARK    6  A    between atoms: C_24  and  C_25
REMARK                            x       y       z     vdW  Elec       q    Type
REMARK                         _______ _______ _______ _____ _____    ______ ____
ROOT
ATOM      1  N   UNL     1       2.819   3.545  19.061  0.00  0.00    +0.000 NA
ENDROOT
BRANCH   1   7
ATOM      2  O   UNL     1       0.810   8.197  21.931  0.00  0.00    +0.000 OA
ATOM      3  C   UNL     1       1.321   8.076  20.804  0.00  0.00    +0.000 C 
ATOM      4  N   UNL     1       1.971   6.914  20.380  0.00  0.00    +0.000 N 
ATOM      5  C   UNL     1       2.643   6.689  19.099  0.00  0.00    +0.000 C 
ATOM      6  C   UNL     1       1.782   5.756  18.231  0.00  0.00    +0.000 C 
ATOM      7  C   UNL     1       1.552   4.416  18.945  0.00  0.00    +0.000 C 
ATOM      8  C   UNL     1       0.939   4.728  20.334  0.00  0.00    +0.000 C 
ATOM      9  C   UNL     1       1.796   5.697  21.143  0.00  0.00    +0.000 C 
BRANCH   3  10
ATOM     10  C   UNL     1       1.197   9.221  19.913  0.00  0.00    +0.000 A 
ATOM     11  C   UNL     1       0.367  10.292  20.224  0.00  0.00    +0.000 A 
ATOM     12  C   UNL     1       0.274  11.385  19.356  0.00  0.00    +0.000 A 
ATOM     13  C   UNL     1       1.045  11.431  18.192  0.00  0.00    +0.000 A 
ATOM     14  C   UNL     1       1.881  10.386  17.865  0.00  0.00    +0.000 A 
ATOM     15  C   UNL     1       1.880   9.280  18.679  0.00  0.00    +0.000 A 
ENDBRANCH   3  10
ENDBRANCH   1   7
BRANCH   1  16
ATOM     16  C   UNL     1       2.631   2.444  20.107  0.00  0.00    +0.000 C 
ATOM     17  C   UNL     1       3.781   1.925  20.941  0.00  0.00    +0.000 C 
ATOM     18  C   UNL     1       2.674   2.660  21.612  0.00  0.00    +0.000 C 
ENDBRANCH   1  16
BRANCH   1  19
ATOM     19  S   UNL     1       3.400   2.911  17.512  0.00  0.00    +0.000 S 
ATOM     20  O   UNL     1       3.931   1.566  17.657  0.00  0.00    +0.000 OA
ATOM     21  O   UNL     1       2.413   3.168  16.490  0.00  0.00    +0.000 OA
BRANCH  19  22
ATOM     22  C   UNL     1       4.857   3.892  17.095  0.00  0.00    +0.000 A 
ATOM     23  C   UNL     1       5.334   3.871  15.775  0.00  0.00    +0.000 A 
ATOM     24  C   UNL     1       6.581   4.419  15.468  0.00  0.00    +0.000 A 
ATOM     25  C   UNL     1       7.352   5.005  16.470  0.00  0.00    +0.000 A 
ATOM     26  C   UNL     1       6.883   5.048  17.797  0.00  0.00    +0.000 A 
ATOM     27  C   UNL     1       5.635   4.470  18.104  0.00  0.00    +0.000 A 
BRANCH  26  28
ATOM     28  C   UNL     1       7.724   5.667  18.887  0.00  0.00    +0.000 C 
ATOM     29  F   UNL     1       7.053   5.840  20.059  0.00  0.00    +0.000 F 
ATOM     30  F   UNL     1       8.814   4.911  19.186  0.00  0.00    +0.000 F 
ATOM     31  F   UNL     1       8.201   6.896  18.544  0.00  0.00    +0.000 F 
ENDBRANCH  26  28
ENDBRANCH  19  22
ENDBRANCH   1  19
TORSDOF 6
ENDMDL
MODEL 4
REMARK VINA RESULT:      -7.7      2.016      2.661
REMARK  Name = 
REMARK  6 active torsions:
REMARK  status: ('A' for Active; 'I' for Inactive)
REMARK    1  A    between atoms: C_2  and  C_3
REMARK    2  A    between atoms: C_12  and  N_13
REMARK    3  A    between atoms: N_13  and  C_14
REMARK    4  A    between atoms: N_13  and  S_17
REMARK    5  A    between atoms: S_17  and  C_20
REMARK    6  A    between atoms: C_24  and  C_25
REMARK                            x       y       z     vdW  Elec       q    Type
REMARK                         _______ _______ _______ _____ _____    ______ ____
ROOT
ATOM      1  N   UNL     1       1.167  10.977  19.827  0.00  0.00    +0.000 NA
ENDROOT
BRANCH   1   7
ATOM      2  O   UNL     1       2.950   5.953  17.482  0.00  0.00    +0.000 OA
ATOM      3  C   UNL     1       2.504   6.229  18.609  0.00  0.00    +0.000 C 
ATOM      4  N   UNL     1       2.360   7.539  19.075  0.00  0.00    +0.000 N 
ATOM      5  C   UNL     1       1.892   7.966  20.395  0.00  0.00    +0.000 C 
ATOM      6  C   UNL     1       0.468   8.534  20.272  0.00  0.00    +0.000 C 
ATOM      7  C   UNL     1       0.445   9.721  19.297  0.00  0.00    +0.000 C 
ATOM      8  C   UNL     1       1.049   9.234  17.955  0.00  0.00    +0.000 C 
ATOM      9  C   UNL     1       2.439   8.630  18.128  0.00  0.00    +0.000 C 
BRANCH   3  10
ATOM     10  C   UNL     1       2.113   5.101  19.443  0.00  0.00    +0.000 A 
ATOM     11  C   UNL     1       2.569   4.977  20.751  0.00  0.00    +0.000 A 
ATOM     12  C   UNL     1       2.169   3.890  21.534  0.00  0.00    +0.000 A 
ATOM     13  C   UNL     1       1.277   2.943  21.027  0.00  0.00    +0.000 A 
ATOM     14  C   UNL     1       0.804   3.047  19.737  0.00  0.00    +0.000 A 
ATOM     15  C   UNL     1       1.287   4.065  18.954  0.00  0.00    +0.000 A 
ENDBRANCH   3  10
ENDBRANCH   1   7
BRANCH   1  16
ATOM     16  C   UNL     1       1.202  12.075  18.763  0.00  0.00    +0.000 C 
ATOM     17  C   UNL     1       1.720  13.464  19.062  0.00  0.00    +0.000 C 
ATOM     18  C   UNL     1       2.467  12.605  18.104  0.00  0.00    +0.000 C 
ENDBRANCH   1  16
BRANCH   1  19
ATOM     19  S   UNL     1       0.544  11.562  21.379  0.00  0.00    +0.000 S 
ATOM     20  O   UNL     1       0.582  10.519  22.391  0.00  0.00    +0.000 OA
ATOM     21  O   UNL     1       1.132  12.847  21.676  0.00  0.00    +0.000 OA
BRANCH  19  22
ATOM     22  C   UNL     1      -1.223  11.836  21.128  0.00  0.00    +0.000 A 
ATOM     23  C   UNL     1      -1.707  11.979  19.818  0.00  0.00    +0.000 A 
ATOM     24  C   UNL     1      -3.011  12.424  19.594  0.00  0.00    +0.000 A 
ATOM     25  C   UNL     1      -3.845  12.713  20.673  0.00  0.00    +0.000 A 
ATOM     26  C   UNL     1      -3.381  12.560  21.993  0.00  0.00    +0.000 A 
ATOM     27  C   UNL     1      -2.055  12.135  22.212  0.00  0.00    +0.000 A 
BRANCH  26  28
ATOM     28  C   UNL     1      -4.277  12.888  23.163  0.00  0.00    +0.000 C 
ATOM     29  F   UNL     1      -5.603  12.738  22.891  0.00  0.00    +0.000 F 
ATOM     30  F   UNL     1      -4.024  12.098  24.241  0.00  0.00    +0.000 F 
ATOM     31  F   UNL     1      -4.125  14.171  23.593  0.00  0.00    +0.000 F 
ENDBRANCH  26  28
ENDBRANCH  19  22
ENDBRANCH   1  19
TORSDOF 6
ENDMDL
MODEL 5
REMARK VINA RESULT:      -7.6      5.029      9.517
REMARK  Name = 
REMARK  6 active torsions:
REMARK  status: ('A' for Active; 'I' for Inactive)
REMARK    1  A    between atoms: C_2  and  C_3
REMARK    2  A    between atoms: C_12  and  N_13
REMARK    3  A    between atoms: N_13  and  C_14
REMARK    4  A    between atoms: N_13  and  S_17
REMARK    5  A    between atoms: S_17  and  C_20
REMARK    6  A    between atoms: C_24  and  C_25
REMARK                            x       y       z     vdW  Elec       q    Type
REMARK                         _______ _______ _______ _____ _____    ______ ____
ROOT
ATOM      1  N   UNL     1       2.817   3.540  19.067  0.00  0.00    +0.000 NA
ENDROOT
BRANCH   1   7
ATOM      2  O   UNL     1       0.853   8.202  21.950  0.00  0.00    +0.000 OA
ATOM      3  C   UNL     1       1.307   8.071  20.801  0.00  0.00    +0.000 C 
ATOM      4  N   UNL     1       1.961   6.914  20.366  0.00  0.00    +0.000 N 
ATOM      5  C   UNL     1       2.571   6.679  19.056  0.00  0.00    +0.000 C 
ATOM      6  C   UNL     1       1.688   5.711  18.250  0.00  0.00    +0.000 C 
ATOM      7  C   UNL     1       1.526   4.380  19.000  0.00  0.00    +0.000 C 
ATOM      8  C   UNL     1       0.978   4.706  20.413  0.00  0.00    +0.000 C 
ATOM      9  C   UNL     1       1.853   5.709  21.158  0.00  0.00    +0.000 C 
BRANCH   3  10
ATOM     10  C   UNL     1       1.112   9.195  19.896  0.00  0.00    +0.000 A 
ATOM     11  C   UNL     1       1.960   9.406  18.814  0.00  0.00    +0.000 A 
ATOM     12  C   UNL     1       1.744  10.486  17.953  0.00  0.00    +0.000 A 
ATOM     13  C   UNL     1       0.653  11.337  18.145  0.00  0.00    +0.000 A 
ATOM     14  C   UNL     1      -0.206  11.144  19.205  0.00  0.00    +0.000 A 
ATOM     15  C   UNL     1       0.082  10.140  20.094  0.00  0.00    +0.000 A 
ENDBRANCH   3  10
ENDBRANCH   1   7
BRANCH   1  16
ATOM     16  C   UNL     1       2.680   2.411  20.090  0.00  0.00    +0.000 C 
ATOM     17  C   UNL     1       3.860   1.910  20.892  0.00  0.00    +0.000 C 
ATOM     18  C   UNL     1       2.744   2.595  21.599  0.00  0.00    +0.000 C 
ENDBRANCH   1  16
BRANCH   1  19
ATOM     19  S   UNL     1       3.376   2.956  17.490  0.00  0.00    +0.000 S 
ATOM     20  O   UNL     1       3.939   1.619  17.591  0.00  0.00    +0.000 OA
ATOM     21  O   UNL     1       2.360   3.215  16.496  0.00  0.00    +0.000 OA
BRANCH  19  22
ATOM     22  C   UNL     1       4.802   3.978  17.065  0.00  0.00    +0.000 A 
ATOM     23  C   UNL     1       5.218   4.039  15.725  0.00  0.00    +0.000 A 
ATOM     24  C   UNL     1       6.443   4.620  15.395  0.00  0.00    +0.000 A 
ATOM     25  C   UNL     1       7.253   5.158  16.394  0.00  0.00    +0.000 A 
ATOM     26  C   UNL     1       6.844   5.120  17.740  0.00  0.00    +0.000 A 
ATOM     27  C   UNL     1       5.618   4.509  18.070  0.00  0.00    +0.000 A 
BRANCH  26  28
ATOM     28  C   UNL     1       7.727   5.688  18.825  0.00  0.00    +0.000 C 
ATOM     29  F   UNL     1       8.226   6.920  18.531  0.00  0.00    +0.000 F 
ATOM     30  F   UNL     1       7.066   5.824  20.006  0.00  0.00    +0.000 F 
ATOM     31  F   UNL     1       8.806   4.899  19.086  0.00  0.00    +0.000 F 
ENDBRANCH  26  28
ENDBRANCH  19  22
ENDBRANCH   1  19
TORSDOF 6
ENDMDL
MODEL 6
REMARK VINA RESULT:      -7.5      5.723      8.376
REMARK  Name = 
REMARK  6 active torsions:
REMARK  status: ('A' for Active; 'I' for Inactive)
REMARK    1  A    between atoms: C_2  and  C_3
REMARK    2  A    between atoms: C_12  and  N_13
REMARK    3  A    between atoms: N_13  and  C_14
REMARK    4  A    between atoms: N_13  and  S_17
REMARK    5  A    between atoms: S_17  and  C_20
REMARK    6  A    between atoms: C_24  and  C_25
REMARK                            x       y       z     vdW  Elec       q    Type
REMARK                         _______ _______ _______ _____ _____    ______ ____
ROOT
ATOM      1  N   UNL     1       5.898   4.704  18.169  0.00  0.00    +0.000 NA
ENDROOT
BRANCH   1   7
ATOM      2  O   UNL     1       7.823   4.966  12.679  0.00  0.00    +0.000 OA
ATOM      3  C   UNL     1       6.970   4.244  13.224  0.00  0.00    +0.000 C 
ATOM      4  N   UNL     1       6.817   4.156  14.610  0.00  0.00    +0.000 N 
ATOM      5  C   UNL     1       5.880   3.305  15.348  0.00  0.00    +0.000 C 
ATOM      6  C   UNL     1       4.748   4.173  15.922  0.00  0.00    +0.000 C 
ATOM      7  C   UNL     1       5.318   5.256  16.851  0.00  0.00    +0.000 C 
ATOM      8  C   UNL     1       6.376   6.051  16.045  0.00  0.00    +0.000 C 
ATOM      9  C   UNL     1       7.452   5.149  15.449  0.00  0.00    +0.000 C 
BRANCH   3  10
ATOM     10  C   UNL     1       6.102   3.485  12.334  0.00  0.00    +0.000 A 
ATOM     11  C   UNL     1       6.489   2.248  11.831  0.00  0.00    +0.000 A 
ATOM     12  C   UNL     1       5.633   1.533  10.987  0.00  0.00    +0.000 A 
ATOM     13  C   UNL     1       4.366   2.034  10.677  0.00  0.00    +0.000 A 
ATOM     14  C   UNL     1       3.956   3.254  11.169  0.00  0.00    +0.000 A 
ATOM     15  C   UNL     1       4.850   3.983  11.912  0.00  0.00    +0.000 A 
ENDBRANCH   3  10
ENDBRANCH   1   7
BRANCH   1  16
ATOM     16  C   UNL     1       6.586   5.812  18.968  0.00  0.00    +0.000 C 
ATOM     17  C   UNL     1       7.781   5.538  19.853  0.00  0.00    +0.000 C 
ATOM     18  C   UNL     1       7.956   6.391  18.647  0.00  0.00    +0.000 C 
ENDBRANCH   1  16
BRANCH   1  19
ATOM     19  S   UNL     1       4.729   3.797  19.144  0.00  0.00    +0.000 S 
ATOM     20  O   UNL     1       3.950   2.885  18.322  0.00  0.00    +0.000 OA
ATOM     21  O   UNL     1       5.386   3.287  20.325  0.00  0.00    +0.000 OA
BRANCH  19  22
ATOM     22  C   UNL     1       3.509   5.006  19.699  0.00  0.00    +0.000 A 
ATOM     23  C   UNL     1       2.571   4.625  20.672  0.00  0.00    +0.000 A 
ATOM     24  C   UNL     1       1.475   5.443  20.951  0.00  0.00    +0.000 A 
ATOM     25  C   UNL     1       1.316   6.652  20.276  0.00  0.00    +0.000 A 
ATOM     26  C   UNL     1       2.256   7.057  19.310  0.00  0.00    +0.000 A 
ATOM     27  C   UNL     1       3.346   6.214  19.013  0.00  0.00    +0.000 A 
BRANCH  26  28
ATOM     28  C   UNL     1       2.077   8.358  18.566  0.00  0.00    +0.000 C 
ATOM     29  F   UNL     1       3.198   8.770  17.913  0.00  0.00    +0.000 F 
ATOM     30  F   UNL     1       1.101   8.280  17.621  0.00  0.00    +0.000 F 
ATOM     31  F   UNL     1       1.723   9.385  19.387  0.00  0.00    +0.000 F 
ENDBRANCH  26  28
ENDBRANCH  19  22
ENDBRANCH   1  19
TORSDOF 6
ENDMDL
MODEL 7
REMARK VINA RESULT:      -7.2      5.709      8.576
REMARK  Name = 
REMARK  6 active torsions:
REMARK  status: ('A' for Active; 'I' for Inactive)
REMARK    1  A    between atoms: C_2  and  C_3
REMARK    2  A    between atoms: C_12  and  N_13
REMARK    3  A    between atoms: N_13  and  C_14
REMARK    4  A    between atoms: N_13  and  S_17
REMARK    5  A    between atoms: S_17  and  C_20
REMARK    6  A    between atoms: C_24  and  C_25
REMARK                            x       y       z     vdW  Elec       q    Type
REMARK                         _______ _______ _______ _____ _____    ______ ____
ROOT
ATOM      1  N   UNL     1       2.851  15.223  19.591  0.00  0.00    +0.000 NA
ENDROOT
BRANCH   1   7
ATOM      2  O   UNL     1      -1.172  11.364  21.275  0.00  0.00    +0.000 OA
ATOM      3  C   UNL     1      -0.959  11.914  20.181  0.00  0.00    +0.000 C 
ATOM      4  N   UNL     1      -0.097  13.004  20.028  0.00  0.00    +0.000 N 
ATOM      5  C   UNL     1       0.184  13.748  18.799  0.00  0.00    +0.000 C 
ATOM      6  C   UNL     1       1.590  13.384  18.294  0.00  0.00    +0.000 C 
ATOM      7  C   UNL     1       2.647  13.712  19.359  0.00  0.00    +0.000 C 
ATOM      8  C   UNL     1       2.236  12.981  20.663  0.00  0.00    +0.000 C 
ATOM      9  C   UNL     1       0.817  13.328  21.102  0.00  0.00    +0.000 C 
BRANCH   3  10
ATOM     10  C   UNL     1      -1.651  11.352  19.030  0.00  0.00    +0.000 A 
ATOM     11  C   UNL     1      -1.044  10.402  18.215  0.00  0.00    +0.000 A 
ATOM     12  C   UNL     1      -1.735   9.869  17.122  0.00  0.00    +0.000 A 
ATOM     13  C   UNL     1      -3.053  10.253  16.863  0.00  0.00    +0.000 A 
ATOM     14  C   UNL     1      -3.679  11.186  17.660  0.00  0.00    +0.000 A 
ATOM     15  C   UNL     1      -2.950  11.770  18.665  0.00  0.00    +0.000 A 
ENDBRANCH   3  10
ENDBRANCH   1   7
BRANCH   1  16
ATOM     16  C   UNL     1       3.577  15.479  20.912  0.00  0.00    +0.000 C 
ATOM     17  C   UNL     1       3.758  16.873  21.471  0.00  0.00    +0.000 C 
ATOM     18  C   UNL     1       2.901  15.904  22.207  0.00  0.00    +0.000 C 
ENDBRANCH   1  16
BRANCH   1  19
ATOM     19  S   UNL     1       3.614  16.062  18.229  0.00  0.00    +0.000 S 
ATOM     20  O   UNL     1       3.411  15.341  16.983  0.00  0.00    +0.000 OA
ATOM     21  O   UNL     1       3.283  17.467  18.287  0.00  0.00    +0.000 OA
BRANCH  19  22
ATOM     22  C   UNL     1       5.393  15.927  18.504  0.00  0.00    +0.000 A 
ATOM     23  C   UNL     1       6.120  17.086  18.823  0.00  0.00    +0.000 A 
ATOM     24  C   UNL     1       7.515  17.067  18.808  0.00  0.00    +0.000 A 
ATOM     25  C   UNL     1       8.195  15.892  18.493  0.00  0.00    +0.000 A 
ATOM     26  C   UNL     1       7.483  14.717  18.187  0.00  0.00    +0.000 A 
ATOM     27  C   UNL     1       6.073  14.750  18.177  0.00  0.00    +0.000 A 
BRANCH  26  28
ATOM     28  C   UNL     1       8.216  13.448  17.829  0.00  0.00    +0.000 C 
ATOM     29  F   UNL     1       9.429  13.665  17.250  0.00  0.00    +0.000 F 
ATOM     30  F   UNL     1       8.456  12.669  18.919  0.00  0.00    +0.000 F 
ATOM     31  F   UNL     1       7.518  12.669  16.957  0.00  0.00    +0.000 F 
ENDBRANCH  26  28
ENDBRANCH  19  22
ENDBRANCH   1  19
TORSDOF 6
ENDMDL
MODEL 8
REMARK VINA RESULT:      -7.2      0.710      1.055
REMARK  Name = 
REMARK  6 active torsions:
REMARK  status: ('A' for Active; 'I' for Inactive)
REMARK    1  A    between atoms: C_2  and  C_3
REMARK    2  A    between atoms: C_12  and  N_13
REMARK    3  A    between atoms: N_13  and  C_14
REMARK    4  A    between atoms: N_13  and  S_17
REMARK    5  A    between atoms: S_17  and  C_20
REMARK    6  A    between atoms: C_24  and  C_25
REMARK                            x       y       z     vdW  Elec       q    Type
REMARK                         _______ _______ _______ _____ _____    ______ ____
ROOT
ATOM      1  N   UNL     1       0.816  11.203  19.878  0.00  0.00    +0.000 NA
ENDROOT
BRANCH   1   7
ATOM      2  O   UNL     1       3.073   6.366  17.548  0.00  0.00    +0.000 OA
ATOM      3  C   UNL     1       2.515   6.578  18.639  0.00  0.00    +0.000 C 
ATOM      4  N   UNL     1       2.258   7.861  19.130  0.00  0.00    +0.000 N 
ATOM      5  C   UNL     1       1.654   8.215  20.416  0.00  0.00    +0.000 C 
ATOM      6  C   UNL     1       0.218   8.712  20.183  0.00  0.00    +0.000 C 
ATOM      7  C   UNL     1       0.214   9.931  19.248  0.00  0.00    +0.000 C 
ATOM      8  C   UNL     1       0.959   9.524  17.950  0.00  0.00    +0.000 C 
ATOM      9  C   UNL     1       2.359   8.988  18.228  0.00  0.00    +0.000 C 
BRANCH   3  10
ATOM     10  C   UNL     1       2.116   5.402  19.399  0.00  0.00    +0.000 A 
ATOM     11  C   UNL     1       1.317   4.413  18.834  0.00  0.00    +0.000 A 
ATOM     12  C   UNL     1       0.957   3.288  19.581  0.00  0.00    +0.000 A 
ATOM     13  C   UNL     1       1.429   3.124  20.885  0.00  0.00    +0.000 A 
ATOM     14  C   UNL     1       2.228   4.085  21.466  0.00  0.00    +0.000 A 
ATOM     15  C   UNL     1       2.486   5.227  20.750  0.00  0.00    +0.000 A 
ENDBRANCH   3  10
ENDBRANCH   1   7
BRANCH   1  16
ATOM     16  C   UNL     1       1.001  12.298  18.826  0.00  0.00    +0.000 C 
ATOM     17  C   UNL     1       1.582  13.651  19.171  0.00  0.00    +0.000 C 
ATOM     18  C   UNL     1       2.342  12.746  18.266  0.00  0.00    +0.000 C 
ENDBRANCH   1  16
BRANCH   1  19
ATOM     19  S   UNL     1      -0.060  11.780  21.306  0.00  0.00    +0.000 S 
ATOM     20  O   UNL     1      -0.602  10.674  22.077  0.00  0.00    +0.000 OA
ATOM     21  O   UNL     1       0.733  12.782  21.981  0.00  0.00    +0.000 OA
BRANCH  19  22
ATOM     22  C   UNL     1      -1.533  12.611  20.676  0.00  0.00    +0.000 A 
ATOM     23  C   UNL     1      -1.843  13.896  21.150  0.00  0.00    +0.000 A 
ATOM     24  C   UNL     1      -3.086  14.468  20.872  0.00  0.00    +0.000 A 
ATOM     25  C   UNL     1      -4.019  13.772  20.105  0.00  0.00    +0.000 A 
ATOM     26  C   UNL     1      -3.719  12.490  19.608  0.00  0.00    +0.000 A 
ATOM     27  C   UNL     1      -2.473  11.907  19.915  0.00  0.00    +0.000 A 
BRANCH  26  28
ATOM     28  C   UNL     1      -4.734  11.728  18.791  0.00  0.00    +0.000 C 
ATOM     29  F   UNL     1      -4.204  10.678  18.106  0.00  0.00    +0.000 F 
ATOM     30  F   UNL     1      -5.728  11.209  19.562  0.00  0.00    +0.000 F 
ATOM     31  F   UNL     1      -5.350  12.510  17.862  0.00  0.00    +0.000 F 
ENDBRANCH  26  28
ENDBRANCH  19  22
ENDBRANCH   1  19
TORSDOF 6
ENDMDL
MODEL 9
REMARK VINA RESULT:      -7.0      2.930      5.212
REMARK  Name = 
REMARK  6 active torsions:
REMARK  status: ('A' for Active; 'I' for Inactive)
REMARK    1  A    between atoms: C_2  and  C_3
REMARK    2  A    between atoms: C_12  and  N_13
REMARK    3  A    between atoms: N_13  and  C_14
REMARK    4  A    between atoms: N_13  and  S_17
REMARK    5  A    between atoms: S_17  and  C_20
REMARK    6  A    between atoms: C_24  and  C_25
REMARK                            x       y       z     vdW  Elec       q    Type
REMARK                         _______ _______ _______ _____ _____    ______ ____
ROOT
ATOM      1  N   UNL     1      -3.357  12.949  22.078  0.00  0.00    +0.000 NA
ENDROOT
BRANCH   1   7
ATOM      2  O   UNL     1       1.354   9.565  22.594  0.00  0.00    +0.000 OA
ATOM      3  C   UNL     1       0.636   9.842  21.618  0.00  0.00    +0.000 C 
ATOM      4  N   UNL     1      -0.602  10.479  21.736  0.00  0.00    +0.000 N 
ATOM      5  C   UNL     1      -1.539  10.805  20.659  0.00  0.00    +0.000 C 
ATOM      6  C   UNL     1      -1.505  12.320  20.396  0.00  0.00    +0.000 C 
ATOM      7  C   UNL     1      -1.877  13.095  21.669  0.00  0.00    +0.000 C 
ATOM      8  C   UNL     1      -0.920  12.629  22.795  0.00  0.00    +0.000 C 
ATOM      9  C   UNL     1      -0.944  11.116  22.989  0.00  0.00    +0.000 C 
BRANCH   3  10
ATOM     10  C   UNL     1       1.159   9.479  20.308  0.00  0.00    +0.000 A 
ATOM     11  C   UNL     1       1.203  10.401  19.267  0.00  0.00    +0.000 A 
ATOM     12  C   UNL     1       1.721  10.031  18.022  0.00  0.00    +0.000 A 
ATOM     13  C   UNL     1       2.237   8.749  17.824  0.00  0.00    +0.000 A 
ATOM     14  C   UNL     1       2.213   7.819  18.841  0.00  0.00    +0.000 A 
ATOM     15  C   UNL     1       1.609   8.172  20.022  0.00  0.00    +0.000 A 
ENDBRANCH   3  10
ENDBRANCH   1   7
BRANCH   1  16
ATOM     16  C   UNL     1      -3.525  13.126  23.588  0.00  0.00    +0.000 C 
ATOM     17  C   UNL     1      -4.878  13.358  24.223  0.00  0.00    +0.000 C 
ATOM     18  C   UNL     1      -4.146  12.096  24.519  0.00  0.00    +0.000 C 
ENDBRANCH   1  16
BRANCH   1  19
ATOM     19  S   UNL     1      -4.464  13.977  21.152  0.00  0.00    +0.000 S 
ATOM     20  O   UNL     1      -5.628  14.345  21.941  0.00  0.00    +0.000 OA
ATOM     21  O   UNL     1      -3.710  15.017  20.490  0.00  0.00    +0.000 OA
BRANCH  19  22
ATOM     22  C   UNL     1      -5.151  12.920  19.860  0.00  0.00    +0.000 A 
ATOM     23  C   UNL     1      -6.481  12.486  19.976  0.00  0.00    +0.000 A 
ATOM     24  C   UNL     1      -6.971  11.487  19.133  0.00  0.00    +0.000 A 
ATOM     25  C   UNL     1      -6.145  10.926  18.160  0.00  0.00    +0.000 A 
ATOM     26  C   UNL     1      -4.813  11.361  18.020  0.00  0.00    +0.000 A 
ATOM     27  C   UNL     1      -4.317  12.352  18.892  0.00  0.00    +0.000 A 
BRANCH  26  28
ATOM     28  C   UNL     1      -3.912  10.744  16.979  0.00  0.00    +0.000 C 
ATOM     29  F   UNL     1      -4.518  10.564  15.772  0.00  0.00    +0.000 F 
ATOM     30  F   UNL     1      -2.811  11.506  16.735  0.00  0.00    +0.000 F 
ATOM     31  F   UNL     1      -3.446   9.519  17.350  0.00  0.00    +0.000 F 
ENDBRANCH  26  28
ENDBRANCH  19  22
ENDBRANCH   1  19
TORSDOF 6
ENDMDL
