MODEL 1
REMARK VINA RESULT:      -8.6      0.000      0.000
REMARK  Name = 
REMARK  9 active torsions:
REMARK  status: ('A' for Active; 'I' for Inactive)
REMARK    1  A    between atoms: C_1  and  O_2
REMARK    2  A    between atoms: O_2  and  C_3
REMARK    3  A    between atoms: C_3  and  C_4
REMARK    4  A    between atoms: C_4  and  N_5
REMARK    5  A    between atoms: N_5  and  C_6
REMARK    6  A    between atoms: C_6  and  C_7
REMARK    7  A    between atoms: N_11  and  C_12
REMARK    8  A    between atoms: C_22  and  C_24
REMARK    9  A    between atoms: C_33  and  O_34
REMARK                            x       y       z     vdW  Elec       q    Type
REMARK                         _______ _______ _______ _____ _____    ______ ____
ROOT
ATOM      1  N   UNL     1       3.908   4.600  18.771  0.00  0.00    +0.000 N 
ATOM      2  C   UNL     1       2.621   5.155  18.512  0.00  0.00    +0.000 C 
ATOM      3  O   UNL     1       1.704   4.461  18.072  0.00  0.00    +0.000 OA
ENDROOT
BRANCH   2   4
ATOM      4  C   UNL     1       2.329   6.614  18.692  0.00  0.00    +0.000 A 
ATOM      5  C   UNL     1       2.273   7.456  17.589  0.00  0.00    +0.000 A 
ATOM      6  C   UNL     1       2.020   8.820  17.706  0.00  0.00    +0.000 A 
ATOM      7  C   UNL     1       1.661   9.345  18.944  0.00  0.00    +0.000 A 
ATOM      8  C   UNL     1       1.338  10.696  19.079  0.00  0.00    +0.000 A 
ATOM      9  C   UNL     1       0.881  11.165  20.299  0.00  0.00    +0.000 A 
ATOM     10  C   UNL     1       0.781  10.267  21.345  0.00  0.00    +0.000 A 
ATOM     11  N   UNL     1       1.136   8.962  21.263  0.00  0.00    +0.000 NA
ATOM     12  C   UNL     1       1.575   8.501  20.071  0.00  0.00    +0.000 A 
ATOM     13  C   UNL     1       1.947   7.155  19.931  0.00  0.00    +0.000 A 
BRANCH  13  14
ATOM     14  O   UNL     1       1.897   6.380  21.067  0.00  0.00    +0.000 OA
ATOM     15  H   UNL     1       0.965   6.435  21.367  0.00  0.00    +0.000 HD
ENDBRANCH  13  14
ENDBRANCH   2   4
BRANCH   1  16
ATOM     16  C   UNL     1       4.026   3.134  18.622  0.00  0.00    +0.000 C 
BRANCH  16  17
ATOM     17  C   UNL     1       3.788   2.299  19.897  0.00  0.00    +0.000 C 
BRANCH  17  19
ATOM     18  C   UNL     1       2.322   2.963  21.652  0.00  0.00    +0.000 C 
ATOM     19  O   UNL     1       2.451   2.312  20.394  0.00  0.00    +0.000 OA
ENDBRANCH  17  19
ENDBRANCH  16  17
ENDBRANCH   1  16
BRANCH   1  20
ATOM     20  C   UNL     1       5.076   5.322  19.328  0.00  0.00    +0.000 C 
BRANCH  20  21
ATOM     21  C   UNL     1       6.465   4.932  18.737  0.00  0.00    +0.000 C 
ATOM     22  C   UNL     1       7.618   5.907  18.985  0.00  0.00    +0.000 C 
ATOM     23  C   UNL     1       7.524   7.134  18.099  0.00  0.00    +0.000 C 
ATOM     24  C   UNL     1       7.404   6.737  16.626  0.00  0.00    +0.000 C 
ATOM     25  N   UNL     1       6.229   5.875  16.403  0.00  0.00    +0.000 NA
ATOM     26  C   UNL     1       6.337   4.651  17.220  0.00  0.00    +0.000 C 
BRANCH  25  27
ATOM     27  C   UNL     1       6.059   5.543  14.963  0.00  0.00    +0.000 C 
ATOM     28  C   UNL     1       7.300   4.829  14.352  0.00  0.00    +0.000 C 
ATOM     29  C   UNL     1       6.706   4.052  13.220  0.00  0.00    +0.000 A 
ATOM     30  C   UNL     1       7.373   3.445  12.169  0.00  0.00    +0.000 A 
ATOM     31  C   UNL     1       6.627   2.709  11.248  0.00  0.00    +0.000 A 
ATOM     32  C   UNL     1       5.237   2.582  11.396  0.00  0.00    +0.000 A 
ATOM     33  C   UNL     1       4.575   3.189  12.467  0.00  0.00    +0.000 A 
ATOM     34  C   UNL     1       5.324   3.925  13.371  0.00  0.00    +0.000 A 
ATOM     35  C   UNL     1       4.860   4.605  14.626  0.00  0.00    +0.000 C 
ENDBRANCH  25  27
ENDBRANCH  20  21
ENDBRANCH   1  20
TORSDOF 8
ENDMDL
MODEL 2
REMARK VINA RESULT:      -7.7      1.123      1.521
REMARK  Name = 
REMARK  9 active torsions:
REMARK  status: ('A' for Active; 'I' for Inactive)
REMARK    1  A    between atoms: C_1  and  O_2
REMARK    2  A    between atoms: O_2  and  C_3
REMARK    3  A    between atoms: C_3  and  C_4
REMARK    4  A    between atoms: C_4  and  N_5
REMARK    5  A    between atoms: N_5  and  C_6
REMARK    6  A    between atoms: C_6  and  C_7
REMARK    7  A    between atoms: N_11  and  C_12
REMARK    8  A    between atoms: C_22  and  C_24
REMARK    9  A    between atoms: C_33  and  O_34
REMARK                            x       y       z     vdW  Elec       q    Type
REMARK                         _______ _______ _______ _____ _____    ______ ____
ROOT
ATOM      1  N   UNL     1       3.152   5.550  19.845  0.00  0.00    +0.000 N 
ATOM      2  C   UNL     1       1.982   6.277  20.210  0.00  0.00    +0.000 C 
ATOM      3  O   UNL     1       1.048   5.730  20.797  0.00  0.00    +0.000 OA
ENDROOT
BRANCH   2   4
ATOM      4  C   UNL     1       1.791   7.718  19.845  0.00  0.00    +0.000 A 
ATOM      5  C   UNL     1       1.772   8.104  18.510  0.00  0.00    +0.000 A 
ATOM      6  C   UNL     1       1.613   9.430  18.121  0.00  0.00    +0.000 A 
ATOM      7  C   UNL     1       1.311  10.392  19.079  0.00  0.00    +0.000 A 
ATOM      8  C   UNL     1       1.080  11.719  18.712  0.00  0.00    +0.000 A 
ATOM      9  C   UNL     1       0.676  12.630  19.673  0.00  0.00    +0.000 A 
ATOM     10  C   UNL     1       0.533  12.182  20.973  0.00  0.00    +0.000 A 
ATOM     11  N   UNL     1       0.799  10.915  21.375  0.00  0.00    +0.000 NA
ATOM     12  C   UNL     1       1.187  10.024  20.435  0.00  0.00    +0.000 A 
ATOM     13  C   UNL     1       1.466   8.697  20.798  0.00  0.00    +0.000 A 
BRANCH  13  14
ATOM     14  O   UNL     1       1.384   8.394  22.138  0.00  0.00    +0.000 OA
ATOM     15  H   UNL     1       0.494   7.994  22.250  0.00  0.00    +0.000 HD
ENDBRANCH  13  14
ENDBRANCH   2   4
BRANCH   1  16
ATOM     16  C   UNL     1       3.234   4.160  20.341  0.00  0.00    +0.000 C 
BRANCH  16  17
ATOM     17  C   UNL     1       2.314   3.135  19.645  0.00  0.00    +0.000 C 
BRANCH  17  19
ATOM     18  C   UNL     1       3.440   1.685  18.129  0.00  0.00    +0.000 C 
ATOM     19  O   UNL     1       2.637   2.848  18.286  0.00  0.00    +0.000 OA
ENDBRANCH  17  19
ENDBRANCH  16  17
ENDBRANCH   1  16
BRANCH   1  20
ATOM     20  C   UNL     1       4.350   6.102  19.169  0.00  0.00    +0.000 C 
BRANCH  20  21
ATOM     21  C   UNL     1       5.461   5.071  18.803  0.00  0.00    +0.000 C 
ATOM     22  C   UNL     1       6.891   5.421  19.224  0.00  0.00    +0.000 C 
ATOM     23  C   UNL     1       7.503   6.481  18.329  0.00  0.00    +0.000 C 
ATOM     24  C   UNL     1       7.412   6.073  16.858  0.00  0.00    +0.000 C 
ATOM     25  N   UNL     1       6.013   5.837  16.458  0.00  0.00    +0.000 NA
ATOM     26  C   UNL     1       5.424   4.767  17.286  0.00  0.00    +0.000 C 
BRANCH  25  27
ATOM     27  C   UNL     1       5.906   5.511  15.009  0.00  0.00    +0.000 C 
ATOM     28  C   UNL     1       7.201   4.871  14.431  0.00  0.00    +0.000 C 
ATOM     29  C   UNL     1       6.685   4.076  13.274  0.00  0.00    +0.000 A 
ATOM     30  C   UNL     1       7.415   3.517  12.239  0.00  0.00    +0.000 A 
ATOM     31  C   UNL     1       6.738   2.752  11.289  0.00  0.00    +0.000 A 
ATOM     32  C   UNL     1       5.353   2.549  11.392  0.00  0.00    +0.000 A 
ATOM     33  C   UNL     1       4.628   3.108  12.448  0.00  0.00    +0.000 A 
ATOM     34  C   UNL     1       5.308   3.873  13.382  0.00  0.00    +0.000 A 
ATOM     35  C   UNL     1       4.770   4.514  14.627  0.00  0.00    +0.000 C 
ENDBRANCH  25  27
ENDBRANCH  20  21
ENDBRANCH   1  20
TORSDOF 8
ENDMDL
MODEL 3
REMARK VINA RESULT:      -7.7      1.825      8.561
REMARK  Name = 
REMARK  9 active torsions:
REMARK  status: ('A' for Active; 'I' for Inactive)
REMARK    1  A    between atoms: C_1  and  O_2
REMARK    2  A    between atoms: O_2  and  C_3
REMARK    3  A    between atoms: C_3  and  C_4
REMARK    4  A    between atoms: C_4  and  N_5
REMARK    5  A    between atoms: N_5  and  C_6
REMARK    6  A    between atoms: C_6  and  C_7
REMARK    7  A    between atoms: N_11  and  C_12
REMARK    8  A    between atoms: C_22  and  C_24
REMARK    9  A    between atoms: C_33  and  O_34
REMARK                            x       y       z     vdW  Elec       q    Type
REMARK                         _______ _______ _______ _____ _____    ______ ____
ROOT
ATOM      1  N   UNL     1       3.211   4.375  20.515  0.00  0.00    +0.000 N 
ATOM      2  C   UNL     1       3.978   3.490  19.705  0.00  0.00    +0.000 C 
ATOM      3  O   UNL     1       4.018   2.282  19.941  0.00  0.00    +0.000 OA
ENDROOT
BRANCH   2   4
ATOM      4  C   UNL     1       4.829   3.978  18.573  0.00  0.00    +0.000 A 
ATOM      5  C   UNL     1       6.059   4.572  18.829  0.00  0.00    +0.000 A 
ATOM      6  C   UNL     1       6.879   5.055  17.813  0.00  0.00    +0.000 A 
ATOM      7  C   UNL     1       6.540   4.809  16.486  0.00  0.00    +0.000 A 
ATOM      8  C   UNL     1       7.375   5.223  15.447  0.00  0.00    +0.000 A 
ATOM      9  C   UNL     1       7.065   4.869  14.145  0.00  0.00    +0.000 A 
ATOM     10  C   UNL     1       5.920   4.125  13.929  0.00  0.00    +0.000 A 
ATOM     11  N   UNL     1       5.059   3.752  14.906  0.00  0.00    +0.000 NA
ATOM     12  C   UNL     1       5.365   4.091  16.179  0.00  0.00    +0.000 A 
ATOM     13  C   UNL     1       4.511   3.721  17.229  0.00  0.00    +0.000 A 
BRANCH  13  14
ATOM     14  O   UNL     1       3.351   3.068  16.880  0.00  0.00    +0.000 OA
ATOM     15  H   UNL     1       2.885   3.687  16.278  0.00  0.00    +0.000 HD
ENDBRANCH  13  14
ENDBRANCH   2   4
BRANCH   1  16
ATOM     16  C   UNL     1       2.361   3.742  21.546  0.00  0.00    +0.000 C 
BRANCH  16  17
ATOM     17  C   UNL     1       1.198   2.871  21.028  0.00  0.00    +0.000 C 
BRANCH  17  19
ATOM     18  C   UNL     1       0.678   2.417  18.749  0.00  0.00    +0.000 C 
ATOM     19  O   UNL     1       0.575   3.334  19.831  0.00  0.00    +0.000 OA
ENDBRANCH  17  19
ENDBRANCH  16  17
ENDBRANCH   1  16
BRANCH   1  20
ATOM     20  C   UNL     1       3.059   5.836  20.315  0.00  0.00    +0.000 C 
BRANCH  20  21
ATOM     21  C   UNL     1       1.837   6.283  19.456  0.00  0.00    +0.000 C 
ATOM     22  C   UNL     1       2.096   6.542  17.970  0.00  0.00    +0.000 C 
ATOM     23  C   UNL     1       2.810   7.860  17.740  0.00  0.00    +0.000 C 
ATOM     24  C   UNL     1       2.058   9.012  18.410  0.00  0.00    +0.000 C 
ATOM     25  N   UNL     1       1.907   8.778  19.857  0.00  0.00    +0.000 NA
ATOM     26  C   UNL     1       1.165   7.524  20.092  0.00  0.00    +0.000 C 
BRANCH  25  27
ATOM     27  C   UNL     1       1.242   9.926  20.531  0.00  0.00    +0.000 C 
ATOM     28  C   UNL     1       0.091  10.545  19.686  0.00  0.00    +0.000 C 
ATOM     29  C   UNL     1      -0.790  11.155  20.730  0.00  0.00    +0.000 A 
ATOM     30  C   UNL     1      -1.816  12.065  20.545  0.00  0.00    +0.000 A 
ATOM     31  C   UNL     1      -2.561  12.460  21.657  0.00  0.00    +0.000 A 
ATOM     32  C   UNL     1      -2.278  11.934  22.927  0.00  0.00    +0.000 A 
ATOM     33  C   UNL     1      -1.247  11.007  23.101  0.00  0.00    +0.000 A 
ATOM     34  C   UNL     1      -0.508  10.628  21.992  0.00  0.00    +0.000 A 
ATOM     35  C   UNL     1       0.590   9.609  21.911  0.00  0.00    +0.000 C 
ENDBRANCH  25  27
ENDBRANCH  20  21
ENDBRANCH   1  20
TORSDOF 8
ENDMDL
MODEL 4
REMARK VINA RESULT:      -7.5      1.002      1.500
REMARK  Name = 
REMARK  9 active torsions:
REMARK  status: ('A' for Active; 'I' for Inactive)
REMARK    1  A    between atoms: C_1  and  O_2
REMARK    2  A    between atoms: O_2  and  C_3
REMARK    3  A    between atoms: C_3  and  C_4
REMARK    4  A    between atoms: C_4  and  N_5
REMARK    5  A    between atoms: N_5  and  C_6
REMARK    6  A    between atoms: C_6  and  C_7
REMARK    7  A    between atoms: N_11  and  C_12
REMARK    8  A    between atoms: C_22  and  C_24
REMARK    9  A    between atoms: C_33  and  O_34
REMARK                            x       y       z     vdW  Elec       q    Type
REMARK                         _______ _______ _______ _____ _____    ______ ____
ROOT
ATOM      1  N   UNL     1       3.862   4.523  19.007  0.00  0.00    +0.000 N 
ATOM      2  C   UNL     1       2.495   4.923  18.991  0.00  0.00    +0.000 C 
ATOM      3  O   UNL     1       1.603   4.133  18.679  0.00  0.00    +0.000 OA
ENDROOT
BRANCH   2   4
ATOM      4  C   UNL     1       2.071   6.330  19.283  0.00  0.00    +0.000 A 
ATOM      5  C   UNL     1       1.624   6.676  20.552  0.00  0.00    +0.000 A 
ATOM      6  C   UNL     1       1.205   7.965  20.869  0.00  0.00    +0.000 A 
ATOM      7  C   UNL     1       1.374   8.986  19.938  0.00  0.00    +0.000 A 
ATOM      8  C   UNL     1       1.024  10.300  20.250  0.00  0.00    +0.000 A 
ATOM      9  C   UNL     1       1.303  11.310  19.345  0.00  0.00    +0.000 A 
ATOM     10  C   UNL     1       1.909  10.964  18.152  0.00  0.00    +0.000 A 
ATOM     11  N   UNL     1       2.214   9.693  17.794  0.00  0.00    +0.000 NA
ATOM     12  C   UNL     1       1.947   8.708  18.680  0.00  0.00    +0.000 A 
ATOM     13  C   UNL     1       2.252   7.375  18.362  0.00  0.00    +0.000 A 
BRANCH  13  14
ATOM     14  O   UNL     1       2.762   7.142  17.105  0.00  0.00    +0.000 OA
ATOM     15  H   UNL     1       3.390   6.397  17.223  0.00  0.00    +0.000 HD
ENDBRANCH  13  14
ENDBRANCH   2   4
BRANCH   1  16
ATOM     16  C   UNL     1       4.122   3.086  18.775  0.00  0.00    +0.000 C 
BRANCH  16  17
ATOM     17  C   UNL     1       3.911   2.152  19.984  0.00  0.00    +0.000 C 
BRANCH  17  19
ATOM     18  C   UNL     1       2.282   2.506  21.684  0.00  0.00    +0.000 C 
ATOM     19  O   UNL     1       3.589   2.806  21.211  0.00  0.00    +0.000 OA
ENDBRANCH  17  19
ENDBRANCH  16  17
ENDBRANCH   1  16
BRANCH   1  20
ATOM     20  C   UNL     1       5.017   5.368  19.394  0.00  0.00    +0.000 C 
BRANCH  20  21
ATOM     21  C   UNL     1       6.401   4.937  18.818  0.00  0.00    +0.000 C 
ATOM     22  C   UNL     1       7.580   5.877  19.082  0.00  0.00    +0.000 C 
ATOM     23  C   UNL     1       7.533   7.108  18.197  0.00  0.00    +0.000 C 
ATOM     24  C   UNL     1       7.418   6.717  16.723  0.00  0.00    +0.000 C 
ATOM     25  N   UNL     1       6.220   5.891  16.484  0.00  0.00    +0.000 NA
ATOM     26  C   UNL     1       6.282   4.663  17.299  0.00  0.00    +0.000 C 
BRANCH  25  27
ATOM     27  C   UNL     1       6.058   5.566  15.040  0.00  0.00    +0.000 C 
ATOM     28  C   UNL     1       7.310   4.872  14.428  0.00  0.00    +0.000 C 
ATOM     29  C   UNL     1       6.728   4.096  13.289  0.00  0.00    +0.000 A 
ATOM     30  C   UNL     1       7.405   3.504  12.236  0.00  0.00    +0.000 A 
ATOM     31  C   UNL     1       6.671   2.765  11.308  0.00  0.00    +0.000 A 
ATOM     32  C   UNL     1       5.282   2.619  11.452  0.00  0.00    +0.000 A 
ATOM     33  C   UNL     1       4.611   3.210  12.526  0.00  0.00    +0.000 A 
ATOM     34  C   UNL     1       5.348   3.950  13.437  0.00  0.00    +0.000 A 
ATOM     35  C   UNL     1       4.873   4.615  14.695  0.00  0.00    +0.000 C 
ENDBRANCH  25  27
ENDBRANCH  20  21
ENDBRANCH   1  20
TORSDOF 8
ENDMDL
MODEL 5
REMARK VINA RESULT:      -7.5      8.745     12.764
REMARK  Name = 
REMARK  9 active torsions:
REMARK  status: ('A' for Active; 'I' for Inactive)
REMARK    1  A    between atoms: C_1  and  O_2
REMARK    2  A    between atoms: O_2  and  C_3
REMARK    3  A    between atoms: C_3  and  C_4
REMARK    4  A    between atoms: C_4  and  N_5
REMARK    5  A    between atoms: N_5  and  C_6
REMARK    6  A    between atoms: C_6  and  C_7
REMARK    7  A    between atoms: N_11  and  C_12
REMARK    8  A    between atoms: C_22  and  C_24
REMARK    9  A    between atoms: C_33  and  O_34
REMARK                            x       y       z     vdW  Elec       q    Type
REMARK                         _______ _______ _______ _____ _____    ______ ____
ROOT
ATOM      1  N   UNL     1      -2.864  10.833  17.407  0.00  0.00    +0.000 N 
ATOM      2  C   UNL     1      -1.633  10.807  18.123  0.00  0.00    +0.000 C 
ATOM      3  O   UNL     1      -0.750   9.995  17.845  0.00  0.00    +0.000 OA
ENDROOT
BRANCH   2   4
ATOM      4  C   UNL     1      -1.368  11.710  19.289  0.00  0.00    +0.000 A 
ATOM      5  C   UNL     1      -1.380  11.202  20.582  0.00  0.00    +0.000 A 
ATOM      6  C   UNL     1      -1.155  12.002  21.698  0.00  0.00    +0.000 A 
ATOM      7  C   UNL     1      -0.755  13.323  21.523  0.00  0.00    +0.000 A 
ATOM      8  C   UNL     1      -0.458  14.131  22.621  0.00  0.00    +0.000 A 
ATOM      9  C   UNL     1       0.041  15.406  22.411  0.00  0.00    +0.000 A 
ATOM     10  C   UNL     1       0.208  15.831  21.107  0.00  0.00    +0.000 A 
ATOM     11  N   UNL     1      -0.119  15.094  20.018  0.00  0.00    +0.000 NA
ATOM     12  C   UNL     1      -0.599  13.847  20.223  0.00  0.00    +0.000 A 
ATOM     13  C   UNL     1      -0.945  13.039  19.128  0.00  0.00    +0.000 A 
BRANCH  13  14
ATOM     14  O   UNL     1      -0.827  13.608  17.880  0.00  0.00    +0.000 OA
ATOM     15  H   UNL     1      -0.392  14.473  18.039  0.00  0.00    +0.000 HD
ENDBRANCH  13  14
ENDBRANCH   2   4
BRANCH   1  16
ATOM     16  C   UNL     1      -2.953   9.939  16.233  0.00  0.00    +0.000 C 
BRANCH  16  17
ATOM     17  C   UNL     1      -3.158  10.627  14.867  0.00  0.00    +0.000 C 
BRANCH  17  19
ATOM     18  C   UNL     1      -4.014   9.804  12.803  0.00  0.00    +0.000 C 
ATOM     19  O   UNL     1      -2.933   9.800  13.727  0.00  0.00    +0.000 OA
ENDBRANCH  17  19
ENDBRANCH  16  17
ENDBRANCH   1  16
BRANCH   1  20
ATOM     20  C   UNL     1      -3.985  11.779  17.625  0.00  0.00    +0.000 C 
BRANCH  20  21
ATOM     21  C   UNL     1      -5.130  11.276  18.555  0.00  0.00    +0.000 C 
ATOM     22  C   UNL     1      -6.557  11.380  18.010  0.00  0.00    +0.000 C 
ATOM     23  C   UNL     1      -7.076  12.804  18.047  0.00  0.00    +0.000 C 
ATOM     24  C   UNL     1      -6.945  13.396  19.451  0.00  0.00    +0.000 C 
ATOM     25  N   UNL     1      -5.545  13.369  19.911  0.00  0.00    +0.000 NA
ATOM     26  C   UNL     1      -5.046  11.981  19.931  0.00  0.00    +0.000 C 
BRANCH  25  27
ATOM     27  C   UNL     1      -5.394  14.010  21.245  0.00  0.00    +0.000 C 
ATOM     28  C   UNL     1      -4.728  13.077  22.298  0.00  0.00    +0.000 C 
ATOM     29  C   UNL     1      -4.109  14.049  23.252  0.00  0.00    +0.000 A 
ATOM     30  C   UNL     1      -3.617  13.793  24.520  0.00  0.00    +0.000 A 
ATOM     31  C   UNL     1      -3.017  14.838  25.223  0.00  0.00    +0.000 A 
ATOM     32  C   UNL     1      -2.909  16.114  24.646  0.00  0.00    +0.000 A 
ATOM     33  C   UNL     1      -3.398  16.359  23.360  0.00  0.00    +0.000 A 
ATOM     34  C   UNL     1      -4.000  15.316  22.675  0.00  0.00    +0.000 A 
ATOM     35  C   UNL     1      -4.534  15.311  21.273  0.00  0.00    +0.000 C 
ENDBRANCH  25  27
ENDBRANCH  20  21
ENDBRANCH   1  20
TORSDOF 8
ENDMDL
MODEL 6
REMARK VINA RESULT:      -7.5      2.976      5.740
REMARK  Name = 
REMARK  9 active torsions:
REMARK  status: ('A' for Active; 'I' for Inactive)
REMARK    1  A    between atoms: C_1  and  O_2
REMARK    2  A    between atoms: O_2  and  C_3
REMARK    3  A    between atoms: C_3  and  C_4
REMARK    4  A    between atoms: C_4  and  N_5
REMARK    5  A    between atoms: N_5  and  C_6
REMARK    6  A    between atoms: C_6  and  C_7
REMARK    7  A    between atoms: N_11  and  C_12
REMARK    8  A    between atoms: C_22  and  C_24
REMARK    9  A    between atoms: C_33  and  O_34
REMARK                            x       y       z     vdW  Elec       q    Type
REMARK                         _______ _______ _______ _____ _____    ______ ____
ROOT
ATOM      1  N   UNL     1       3.994   5.880  17.440  0.00  0.00    +0.000 N 
ATOM      2  C   UNL     1       2.678   6.007  17.968  0.00  0.00    +0.000 C 
ATOM      3  O   UNL     1       1.868   5.082  17.893  0.00  0.00    +0.000 OA
ENDROOT
BRANCH   2   4
ATOM      4  C   UNL     1       2.181   7.282  18.579  0.00  0.00    +0.000 A 
ATOM      5  C   UNL     1       1.828   8.353  17.767  0.00  0.00    +0.000 A 
ATOM      6  C   UNL     1       1.376   9.563  18.287  0.00  0.00    +0.000 A 
ATOM      7  C   UNL     1       1.121   9.669  19.651  0.00  0.00    +0.000 A 
ATOM      8  C   UNL     1       0.606  10.848  20.191  0.00  0.00    +0.000 A 
ATOM      9  C   UNL     1       0.262  10.887  21.532  0.00  0.00    +0.000 A 
ATOM     10  C   UNL     1       0.462   9.747  22.287  0.00  0.00    +0.000 A 
ATOM     11  N   UNL     1       1.010   8.603  21.808  0.00  0.00    +0.000 NA
ATOM     12  C   UNL     1       1.339   8.563  20.498  0.00  0.00    +0.000 A 
ATOM     13  C   UNL     1       1.901   7.399  19.950  0.00  0.00    +0.000 A 
BRANCH  13  14
ATOM     14  O   UNL     1       2.144   6.362  20.822  0.00  0.00    +0.000 OA
ATOM     15  H   UNL     1       2.982   5.960  20.507  0.00  0.00    +0.000 HD
ENDBRANCH  13  14
ENDBRANCH   2   4
BRANCH   1  16
ATOM     16  C   UNL     1       4.368   4.540  16.940  0.00  0.00    +0.000 C 
BRANCH  16  17
ATOM     17  C   UNL     1       4.420   3.411  17.990  0.00  0.00    +0.000 C 
BRANCH  17  19
ATOM     18  C   UNL     1       2.813   1.835  18.766  0.00  0.00    +0.000 C 
ATOM     19  O   UNL     1       3.638   2.258  17.688  0.00  0.00    +0.000 OA
ENDBRANCH  17  19
ENDBRANCH  16  17
ENDBRANCH   1  16
BRANCH   1  20
ATOM     20  C   UNL     1       5.064   6.905  17.498  0.00  0.00    +0.000 C 
BRANCH  20  21
ATOM     21  C   UNL     1       6.492   6.423  17.102  0.00  0.00    +0.000 C 
ATOM     22  C   UNL     1       7.113   5.322  17.966  0.00  0.00    +0.000 C 
ATOM     23  C   UNL     1       7.603   5.856  19.299  0.00  0.00    +0.000 C 
ATOM     24  C   UNL     1       8.548   7.042  19.098  0.00  0.00    +0.000 C 
ATOM     25  N   UNL     1       7.890   8.124  18.344  0.00  0.00    +0.000 NA
ATOM     26  C   UNL     1       7.458   7.630  17.023  0.00  0.00    +0.000 C 
BRANCH  25  27
ATOM     27  C   UNL     1       8.775   9.312  18.207  0.00  0.00    +0.000 C 
ATOM     28  C   UNL     1       8.063  10.530  17.550  0.00  0.00    +0.000 C 
ATOM     29  C   UNL     1       8.835  11.692  18.090  0.00  0.00    +0.000 A 
ATOM     30  C   UNL     1       8.818  13.001  17.642  0.00  0.00    +0.000 A 
ATOM     31  C   UNL     1       9.570  13.949  18.335  0.00  0.00    +0.000 A 
ATOM     32  C   UNL     1      10.315  13.579  19.466  0.00  0.00    +0.000 A 
ATOM     33  C   UNL     1      10.316  12.257  19.918  0.00  0.00    +0.000 A 
ATOM     34  C   UNL     1       9.572  11.321  19.217  0.00  0.00    +0.000 A 
ATOM     35  C   UNL     1       9.360   9.872  19.540  0.00  0.00    +0.000 C 
ENDBRANCH  25  27
ENDBRANCH  20  21
ENDBRANCH   1  20
TORSDOF 8
ENDMDL
MODEL 7
REMARK VINA RESULT:      -7.4      4.870      8.410
REMARK  Name = 
REMARK  9 active torsions:
REMARK  status: ('A' for Active; 'I' for Inactive)
REMARK    1  A    between atoms: C_1  and  O_2
REMARK    2  A    between atoms: O_2  and  C_3
REMARK    3  A    between atoms: C_3  and  C_4
REMARK    4  A    between atoms: C_4  and  N_5
REMARK    5  A    between atoms: N_5  and  C_6
REMARK    6  A    between atoms: C_6  and  C_7
REMARK    7  A    between atoms: N_11  and  C_12
REMARK    8  A    between atoms: C_22  and  C_24
REMARK    9  A    between atoms: C_33  and  O_34
REMARK                            x       y       z     vdW  Elec       q    Type
REMARK                         _______ _______ _______ _____ _____    ______ ____
ROOT
ATOM      1  N   UNL     1       1.211  12.856  19.334  0.00  0.00    +0.000 N 
ATOM      2  C   UNL     1       0.185  13.781  19.682  0.00  0.00    +0.000 C 
ATOM      3  O   UNL     1       0.068  14.855  19.091  0.00  0.00    +0.000 OA
ENDROOT
BRANCH   2   4
ATOM      4  C   UNL     1      -0.760  13.536  20.819  0.00  0.00    +0.000 A 
ATOM      5  C   UNL     1      -0.333  13.708  22.130  0.00  0.00    +0.000 A 
ATOM      6  C   UNL     1      -1.167  13.479  23.220  0.00  0.00    +0.000 A 
ATOM      7  C   UNL     1      -2.516  13.215  23.005  0.00  0.00    +0.000 A 
ATOM      8  C   UNL     1      -3.391  13.046  24.079  0.00  0.00    +0.000 A 
ATOM      9  C   UNL     1      -4.745  12.892  23.834  0.00  0.00    +0.000 A 
ATOM     10  C   UNL     1      -5.173  12.897  22.520  0.00  0.00    +0.000 A 
ATOM     11  N   UNL     1      -4.346  13.005  21.451  0.00  0.00    +0.000 NA
ATOM     12  C   UNL     1      -3.025  13.162  21.690  0.00  0.00    +0.000 A 
ATOM     13  C   UNL     1      -2.127  13.288  20.619  0.00  0.00    +0.000 A 
BRANCH  13  14
ATOM     14  O   UNL     1      -2.658  13.179  19.353  0.00  0.00    +0.000 OA
ATOM     15  H   UNL     1      -1.881  13.190  18.753  0.00  0.00    +0.000 HD
ENDBRANCH  13  14
ENDBRANCH   2   4
BRANCH   1  16
ATOM     16  C   UNL     1       2.017  13.197  18.142  0.00  0.00    +0.000 C 
BRANCH  16  17
ATOM     17  C   UNL     1       3.352  13.924  18.408  0.00  0.00    +0.000 C 
BRANCH  17  19
ATOM     18  C   UNL     1       4.515  16.000  18.486  0.00  0.00    +0.000 C 
ATOM     19  O   UNL     1       3.257  15.340  18.552  0.00  0.00    +0.000 OA
ENDBRANCH  17  19
ENDBRANCH  16  17
ENDBRANCH   1  16
BRANCH   1  20
ATOM     20  C   UNL     1       1.434  11.524  19.946  0.00  0.00    +0.000 C 
BRANCH  20  21
ATOM     21  C   UNL     1       0.380  10.429  19.597  0.00  0.00    +0.000 C 
ATOM     22  C   UNL     1      -0.718  10.175  20.632  0.00  0.00    +0.000 C 
ATOM     23  C   UNL     1      -0.206   9.383  21.820  0.00  0.00    +0.000 C 
ATOM     24  C   UNL     1       0.473   8.091  21.363  0.00  0.00    +0.000 C 
ATOM     25  N   UNL     1       1.588   8.375  20.441  0.00  0.00    +0.000 NA
ATOM     26  C   UNL     1       1.091   9.098  19.254  0.00  0.00    +0.000 C 
BRANCH  25  27
ATOM     27  C   UNL     1       2.303   7.130  20.048  0.00  0.00    +0.000 C 
ATOM     28  C   UNL     1       1.671   5.846  20.658  0.00  0.00    +0.000 C 
ATOM     29  C   UNL     1       2.074   4.787  19.681  0.00  0.00    +0.000 A 
ATOM     30  C   UNL     1       2.019   3.414  19.851  0.00  0.00    +0.000 A 
ATOM     31  C   UNL     1       2.385   2.599  18.780  0.00  0.00    +0.000 A 
ATOM     32  C   UNL     1       2.787   3.163  17.559  0.00  0.00    +0.000 A 
ATOM     33  C   UNL     1       2.826   4.550  17.394  0.00  0.00    +0.000 A 
ATOM     34  C   UNL     1       2.470   5.351  18.467  0.00  0.00    +0.000 A 
ATOM     35  C   UNL     1       2.366   6.848  18.516  0.00  0.00    +0.000 C 
ENDBRANCH  25  27
ENDBRANCH  20  21
ENDBRANCH   1  20
TORSDOF 8
ENDMDL
MODEL 8
REMARK VINA RESULT:      -7.4      1.747      8.573
REMARK  Name = 
REMARK  9 active torsions:
REMARK  status: ('A' for Active; 'I' for Inactive)
REMARK    1  A    between atoms: C_1  and  O_2
REMARK    2  A    between atoms: O_2  and  C_3
REMARK    3  A    between atoms: C_3  and  C_4
REMARK    4  A    between atoms: C_4  and  N_5
REMARK    5  A    between atoms: N_5  and  C_6
REMARK    6  A    between atoms: C_6  and  C_7
REMARK    7  A    between atoms: N_11  and  C_12
REMARK    8  A    between atoms: C_22  and  C_24
REMARK    9  A    between atoms: C_33  and  O_34
REMARK                            x       y       z     vdW  Elec       q    Type
REMARK                         _______ _______ _______ _____ _____    ______ ____
ROOT
ATOM      1  N   UNL     1       3.480   4.568  20.192  0.00  0.00    +0.000 N 
ATOM      2  C   UNL     1       4.272   3.647  19.448  0.00  0.00    +0.000 C 
ATOM      3  O   UNL     1       4.343   2.460  19.771  0.00  0.00    +0.000 OA
ENDROOT
BRANCH   2   4
ATOM      4  C   UNL     1       5.113   4.074  18.283  0.00  0.00    +0.000 A 
ATOM      5  C   UNL     1       6.388   4.586  18.493  0.00  0.00    +0.000 A 
ATOM      6  C   UNL     1       7.200   5.010  17.446  0.00  0.00    +0.000 A 
ATOM      7  C   UNL     1       6.799   4.782  16.133  0.00  0.00    +0.000 A 
ATOM      8  C   UNL     1       7.622   5.137  15.063  0.00  0.00    +0.000 A 
ATOM      9  C   UNL     1       7.242   4.800  13.774  0.00  0.00    +0.000 A 
ATOM     10  C   UNL     1       6.044   4.134  13.603  0.00  0.00    +0.000 A 
ATOM     11  N   UNL     1       5.196   3.822  14.612  0.00  0.00    +0.000 NA
ATOM     12  C   UNL     1       5.568   4.144  15.871  0.00  0.00    +0.000 A 
ATOM     13  C   UNL     1       4.730   3.835  16.954  0.00  0.00    +0.000 A 
BRANCH  13  14
ATOM     14  O   UNL     1       3.517   3.259  16.649  0.00  0.00    +0.000 OA
ATOM     15  H   UNL     1       2.978   3.990  16.279  0.00  0.00    +0.000 HD
ENDBRANCH  13  14
ENDBRANCH   2   4
BRANCH   1  16
ATOM     16  C   UNL     1       2.645   3.989  21.266  0.00  0.00    +0.000 C 
BRANCH  16  17
ATOM     17  C   UNL     1       1.199   3.617  20.877  0.00  0.00    +0.000 C 
BRANCH  17  19
ATOM     18  C   UNL     1       0.794   2.522  18.802  0.00  0.00    +0.000 C 
ATOM     19  O   UNL     1       1.051   2.374  20.192  0.00  0.00    +0.000 OA
ENDBRANCH  17  19
ENDBRANCH  16  17
ENDBRANCH   1  16
BRANCH   1  20
ATOM     20  C   UNL     1       3.291   6.006  19.886  0.00  0.00    +0.000 C 
BRANCH  20  21
ATOM     21  C   UNL     1       2.296   6.332  18.730  0.00  0.00    +0.000 C 
ATOM     22  C   UNL     1       2.903   6.847  17.423  0.00  0.00    +0.000 C 
ATOM     23  C   UNL     1       3.338   8.296  17.532  0.00  0.00    +0.000 C 
ATOM     24  C   UNL     1       2.189   9.176  18.026  0.00  0.00    +0.000 C 
ATOM     25  N   UNL     1       1.689   8.711  19.333  0.00  0.00    +0.000 NA
ATOM     26  C   UNL     1       1.211   7.319  19.225  0.00  0.00    +0.000 C 
BRANCH  25  27
ATOM     27  C   UNL     1       0.620   9.603  19.858  0.00  0.00    +0.000 C 
ATOM     28  C   UNL     1       0.167   9.228  21.299  0.00  0.00    +0.000 C 
ATOM     29  C   UNL     1      -0.349  10.528  21.829  0.00  0.00    +0.000 A 
ATOM     30  C   UNL     1      -1.120  10.735  22.961  0.00  0.00    +0.000 A 
ATOM     31  C   UNL     1      -1.440  12.046  23.314  0.00  0.00    +0.000 A 
ATOM     32  C   UNL     1      -0.979  13.124  22.543  0.00  0.00    +0.000 A 
ATOM     33  C   UNL     1      -0.191  12.905  21.410  0.00  0.00    +0.000 A 
ATOM     34  C   UNL     1       0.114  11.599  21.063  0.00  0.00    +0.000 A 
ATOM     35  C   UNL     1       0.989  11.115  19.944  0.00  0.00    +0.000 C 
ENDBRANCH  25  27
ENDBRANCH  20  21
ENDBRANCH   1  20
TORSDOF 8
ENDMDL
MODEL 9
REMARK VINA RESULT:      -7.4      1.288      1.900
REMARK  Name = 
REMARK  9 active torsions:
REMARK  status: ('A' for Active; 'I' for Inactive)
REMARK    1  A    between atoms: C_1  and  O_2
REMARK    2  A    between atoms: O_2  and  C_3
REMARK    3  A    between atoms: C_3  and  C_4
REMARK    4  A    between atoms: C_4  and  N_5
REMARK    5  A    between atoms: N_5  and  C_6
REMARK    6  A    between atoms: C_6  and  C_7
REMARK    7  A    between atoms: N_11  and  C_12
REMARK    8  A    between atoms: C_22  and  C_24
REMARK    9  A    between atoms: C_33  and  O_34
REMARK                            x       y       z     vdW  Elec       q    Type
REMARK                         _______ _______ _______ _____ _____    ______ ____
ROOT
ATOM      1  N   UNL     1       3.423   4.700  19.959  0.00  0.00    +0.000 N 
ATOM      2  C   UNL     1       2.118   5.185  20.261  0.00  0.00    +0.000 C 
ATOM      3  O   UNL     1       1.210   4.417  20.583  0.00  0.00    +0.000 OA
ENDROOT
BRANCH   2   4
ATOM      4  C   UNL     1       1.757   6.634  20.143  0.00  0.00    +0.000 A 
ATOM      5  C   UNL     1       1.303   7.334  21.254  0.00  0.00    +0.000 A 
ATOM      6  C   UNL     1       0.940   8.677  21.191  0.00  0.00    +0.000 A 
ATOM      7  C   UNL     1       1.176   9.394  20.023  0.00  0.00    +0.000 A 
ATOM      8  C   UNL     1       0.884  10.757  19.951  0.00  0.00    +0.000 A 
ATOM      9  C   UNL     1       1.230  11.467  18.813  0.00  0.00    +0.000 A 
ATOM     10  C   UNL     1       1.841  10.781  17.780  0.00  0.00    +0.000 A 
ATOM     11  N   UNL     1       2.091   9.449  17.794  0.00  0.00    +0.000 NA
ATOM     12  C   UNL     1       1.760   8.757  18.908  0.00  0.00    +0.000 A 
ATOM     13  C   UNL     1       2.006   7.377  18.977  0.00  0.00    +0.000 A 
BRANCH  13  14
ATOM     14  O   UNL     1       2.529   6.786  17.849  0.00  0.00    +0.000 OA
ATOM     15  H   UNL     1       2.346   5.829  17.960  0.00  0.00    +0.000 HD
ENDBRANCH  13  14
ENDBRANCH   2   4
BRANCH   1  16
ATOM     16  C   UNL     1       3.652   3.259  20.196  0.00  0.00    +0.000 C 
BRANCH  16  17
ATOM     17  C   UNL     1       2.903   2.288  19.259  0.00  0.00    +0.000 C 
BRANCH  17  19
ATOM     18  C   UNL     1       2.328   3.225  17.148  0.00  0.00    +0.000 C 
ATOM     19  O   UNL     1       3.229   2.401  17.875  0.00  0.00    +0.000 OA
ENDBRANCH  17  19
ENDBRANCH  16  17
ENDBRANCH   1  16
BRANCH   1  20
ATOM     20  C   UNL     1       4.600   5.523  19.593  0.00  0.00    +0.000 C 
BRANCH  20  21
ATOM     21  C   UNL     1       5.843   4.742  19.071  0.00  0.00    +0.000 C 
ATOM     22  C   UNL     1       7.217   5.311  19.433  0.00  0.00    +0.000 C 
ATOM     23  C   UNL     1       7.564   6.529  18.599  0.00  0.00    +0.000 C 
ATOM     24  C   UNL     1       7.435   6.224  17.105  0.00  0.00    +0.000 C 
ATOM     25  N   UNL     1       6.073   5.769  16.772  0.00  0.00    +0.000 NA
ATOM     26  C   UNL     1       5.746   4.550  17.538  0.00  0.00    +0.000 C 
BRANCH  25  27
ATOM     27  C   UNL     1       5.915   5.539  15.310  0.00  0.00    +0.000 C 
ATOM     28  C   UNL     1       7.228   5.064  14.623  0.00  0.00    +0.000 C 
ATOM     29  C   UNL     1       6.721   4.310  13.435  0.00  0.00    +0.000 A 
ATOM     30  C   UNL     1       7.439   3.896  12.326  0.00  0.00    +0.000 A 
ATOM     31  C   UNL     1       6.781   3.141  11.354  0.00  0.00    +0.000 A 
ATOM     32  C   UNL     1       5.427   2.805  11.509  0.00  0.00    +0.000 A 
ATOM     33  C   UNL     1       4.715   3.217  12.638  0.00  0.00    +0.000 A 
ATOM     34  C   UNL     1       5.375   3.974  13.593  0.00  0.00    +0.000 A 
ATOM     35  C   UNL     1       4.853   4.471  14.909  0.00  0.00    +0.000 C 
ENDBRANCH  25  27
ENDBRANCH  20  21
ENDBRANCH   1  20
TORSDOF 8
ENDMDL
