MODEL 1
REMARK VINA RESULT:      -7.2      0.000      0.000
REMARK  Name = 
REMARK  9 active torsions:
REMARK  status: ('A' for Active; 'I' for Inactive)
REMARK    1  A    between atoms: C_1  and  O_2
REMARK    2  A    between atoms: O_2  and  C_3
REMARK    3  A    between atoms: C_3  and  C_5
REMARK    4  A    between atoms: C_6  and  N_7
REMARK    5  A    between atoms: C_8  and  C_10
REMARK    6  A    between atoms: C_11  and  O_12
REMARK    7  A    between atoms: O_12  and  C_13
REMARK    8  A    between atoms: C_17  and  O_18
REMARK    9  A    between atoms: O_18  and  C_19
REMARK                            x       y       z     vdW  Elec       q    Type
REMARK                         _______ _______ _______ _____ _____    ______ ____
ROOT
ATOM      1  N   UNL     1       5.066   3.996  17.527  0.00  0.00    +0.000 N 
ATOM      2  C   UNL     1       4.049   4.820  17.983  0.00  0.00    +0.000 C 
ATOM      3  O   UNL     1       3.713   5.856  17.422  0.00  0.00    +0.000 OA
ATOM      4  H   UNL     1       5.669   3.620  18.253  0.00  0.00    +0.000 HD
ENDROOT
BRANCH   1   6
ATOM      5  C   UNL     1       6.738   4.971  15.903  0.00  0.00    +0.000 A 
ATOM      6  C   UNL     1       5.648   4.211  16.296  0.00  0.00    +0.000 A 
ATOM      7  S   UNL     1       4.854   3.433  15.017  0.00  0.00    +0.000 S 
ATOM      8  C   UNL     1       6.042   3.939  13.912  0.00  0.00    +0.000 A 
ATOM      9  C   UNL     1       6.962   4.803  14.479  0.00  0.00    +0.000 A 
ATOM     10  C   UNL     1       8.028   5.461  13.644  0.00  0.00    +0.000 C 
ATOM     11  C   UNL     1       7.735   5.351  12.138  0.00  0.00    +0.000 C 
ATOM     12  C   UNL     1       7.293   3.935  11.753  0.00  0.00    +0.000 C 
ATOM     13  C   UNL     1       5.995   3.535  12.471  0.00  0.00    +0.000 C 
BRANCH   5  14
ATOM     14  C   UNL     1       7.449   5.868  16.814  0.00  0.00    +0.000 C 
ATOM     15  O   UNL     1       7.657   7.051  16.581  0.00  0.00    +0.000 OA
BRANCH  14  17
ATOM     16  C   UNL     1       7.729   5.954  19.139  0.00  0.00    +0.000 C 
ATOM     17  O   UNL     1       7.925   5.225  17.927  0.00  0.00    +0.000 OA
ENDBRANCH  14  17
ENDBRANCH   5  14
ENDBRANCH   1   6
BRANCH   2  18
ATOM     18  C   UNL     1       3.403   4.390  19.272  0.00  0.00    +0.000 A 
ATOM     19  C   UNL     1       2.569   5.300  19.984  0.00  0.00    +0.000 A 
ATOM     20  C   UNL     1       1.955   4.912  21.185  0.00  0.00    +0.000 A 
ATOM     21  C   UNL     1       2.180   3.651  21.716  0.00  0.00    +0.000 A 
ATOM     22  C   UNL     1       2.982   2.752  21.025  0.00  0.00    +0.000 A 
ATOM     23  C   UNL     1       3.590   3.093  19.803  0.00  0.00    +0.000 A 
BRANCH  19  24
ATOM     24  O   UNL     1       2.335   6.542  19.430  0.00  0.00    +0.000 OA
ATOM     25  C   UNL     1       1.858   7.554  20.318  0.00  0.00    +0.000 C 
ENDBRANCH  19  24
BRANCH  23  26
ATOM     26  O   UNL     1       4.223   2.011  19.250  0.00  0.00    +0.000 OA
ATOM     27  C   UNL     1       3.486   1.165  18.381  0.00  0.00    +0.000 C 
ENDBRANCH  23  26
ENDBRANCH   2  18
TORSDOF 6
ENDMDL
MODEL 2
REMARK VINA RESULT:      -7.1      2.409      7.578
REMARK  Name = 
REMARK  9 active torsions:
REMARK  status: ('A' for Active; 'I' for Inactive)
REMARK    1  A    between atoms: C_1  and  O_2
REMARK    2  A    between atoms: O_2  and  C_3
REMARK    3  A    between atoms: C_3  and  C_5
REMARK    4  A    between atoms: C_6  and  N_7
REMARK    5  A    between atoms: C_8  and  C_10
REMARK    6  A    between atoms: C_11  and  O_12
REMARK    7  A    between atoms: O_12  and  C_13
REMARK    8  A    between atoms: C_17  and  O_18
REMARK    9  A    between atoms: O_18  and  C_19
REMARK                            x       y       z     vdW  Elec       q    Type
REMARK                         _______ _______ _______ _____ _____    ______ ____
ROOT
ATOM      1  N   UNL     1       3.288   6.691  17.767  0.00  0.00    +0.000 N 
ATOM      2  C   UNL     1       4.463   6.053  18.132  0.00  0.00    +0.000 C 
ATOM      3  O   UNL     1       4.944   6.110  19.257  0.00  0.00    +0.000 OA
ATOM      4  H   UNL     1       3.306   7.126  16.848  0.00  0.00    +0.000 HD
ENDROOT
BRANCH   1   6
ATOM      5  C   UNL     1       1.908   6.819  19.880  0.00  0.00    +0.000 A 
ATOM      6  C   UNL     1       2.490   7.294  18.715  0.00  0.00    +0.000 A 
ATOM      7  S   UNL     1       2.114   8.909  18.367  0.00  0.00    +0.000 S 
ATOM      8  C   UNL     1       1.305   9.089  19.852  0.00  0.00    +0.000 A 
ATOM      9  C   UNL     1       1.203   7.897  20.548  0.00  0.00    +0.000 A 
ATOM     10  C   UNL     1       0.419   7.811  21.831  0.00  0.00    +0.000 C 
ATOM     11  C   UNL     1      -0.492   9.033  22.036  0.00  0.00    +0.000 C 
ATOM     12  C   UNL     1       0.243  10.342  21.729  0.00  0.00    +0.000 C 
ATOM     13  C   UNL     1       0.709  10.398  20.267  0.00  0.00    +0.000 C 
BRANCH   5  14
ATOM     14  C   UNL     1       1.948   5.410  20.268  0.00  0.00    +0.000 C 
ATOM     15  O   UNL     1       2.497   4.998  21.282  0.00  0.00    +0.000 OA
BRANCH  14  17
ATOM     16  C   UNL     1       0.832   3.384  19.892  0.00  0.00    +0.000 C 
ATOM     17  O   UNL     1       1.369   4.586  19.338  0.00  0.00    +0.000 OA
ENDBRANCH  14  17
ENDBRANCH   5  14
ENDBRANCH   1   6
BRANCH   2  18
ATOM     18  C   UNL     1       5.163   5.313  17.024  0.00  0.00    +0.000 A 
ATOM     19  C   UNL     1       4.677   4.039  16.608  0.00  0.00    +0.000 A 
ATOM     20  C   UNL     1       5.316   3.338  15.573  0.00  0.00    +0.000 A 
ATOM     21  C   UNL     1       6.449   3.857  14.965  0.00  0.00    +0.000 A 
ATOM     22  C   UNL     1       6.924   5.103  15.355  0.00  0.00    +0.000 A 
ATOM     23  C   UNL     1       6.294   5.849  16.368  0.00  0.00    +0.000 A 
BRANCH  19  24
ATOM     24  O   UNL     1       3.534   3.548  17.205  0.00  0.00    +0.000 OA
ATOM     25  C   UNL     1       3.667   2.313  17.910  0.00  0.00    +0.000 C 
ENDBRANCH  19  24
BRANCH  23  26
ATOM     26  O   UNL     1       6.860   7.091  16.489  0.00  0.00    +0.000 OA
ATOM     27  C   UNL     1       7.704   7.346  17.601  0.00  0.00    +0.000 C 
ENDBRANCH  23  26
ENDBRANCH   2  18
TORSDOF 6
ENDMDL
MODEL 3
REMARK VINA RESULT:      -7.0      0.588      2.561
REMARK  Name = 
REMARK  9 active torsions:
REMARK  status: ('A' for Active; 'I' for Inactive)
REMARK    1  A    between atoms: C_1  and  O_2
REMARK    2  A    between atoms: O_2  and  C_3
REMARK    3  A    between atoms: C_3  and  C_5
REMARK    4  A    between atoms: C_6  and  N_7
REMARK    5  A    between atoms: C_8  and  C_10
REMARK    6  A    between atoms: C_11  and  O_12
REMARK    7  A    between atoms: O_12  and  C_13
REMARK    8  A    between atoms: C_17  and  O_18
REMARK    9  A    between atoms: O_18  and  C_19
REMARK                            x       y       z     vdW  Elec       q    Type
REMARK                         _______ _______ _______ _____ _____    ______ ____
ROOT
ATOM      1  N   UNL     1       4.708   4.060  17.306  0.00  0.00    +0.000 N 
ATOM      2  C   UNL     1       3.685   4.913  17.691  0.00  0.00    +0.000 C 
ATOM      3  O   UNL     1       3.436   5.970  17.126  0.00  0.00    +0.000 OA
ATOM      4  H   UNL     1       5.232   3.648  18.074  0.00  0.00    +0.000 HD
ENDROOT
BRANCH   1   6
ATOM      5  C   UNL     1       6.546   5.006  15.854  0.00  0.00    +0.000 A 
ATOM      6  C   UNL     1       5.402   4.276  16.136  0.00  0.00    +0.000 A 
ATOM      7  S   UNL     1       4.699   3.547  14.777  0.00  0.00    +0.000 S 
ATOM      8  C   UNL     1       5.995   4.031  13.790  0.00  0.00    +0.000 A 
ATOM      9  C   UNL     1       6.889   4.854  14.452  0.00  0.00    +0.000 A 
ATOM     10  C   UNL     1       8.044   5.491  13.725  0.00  0.00    +0.000 C 
ATOM     11  C   UNL     1       7.881   5.415  12.198  0.00  0.00    +0.000 C 
ATOM     12  C   UNL     1       7.429   4.021  11.748  0.00  0.00    +0.000 C 
ATOM     13  C   UNL     1       6.062   3.653  12.342  0.00  0.00    +0.000 C 
BRANCH   5  14
ATOM     14  C   UNL     1       7.203   5.863  16.840  0.00  0.00    +0.000 C 
ATOM     15  O   UNL     1       7.348   7.070  16.705  0.00  0.00    +0.000 OA
BRANCH  14  17
ATOM     16  C   UNL     1       7.634   5.862  19.144  0.00  0.00    +0.000 C 
ATOM     17  O   UNL     1       7.707   5.159  17.903  0.00  0.00    +0.000 OA
ENDBRANCH  14  17
ENDBRANCH   5  14
ENDBRANCH   1   6
BRANCH   2  18
ATOM     18  C   UNL     1       2.914   4.482  18.910  0.00  0.00    +0.000 A 
ATOM     19  C   UNL     1       2.614   3.103  19.106  0.00  0.00    +0.000 A 
ATOM     20  C   UNL     1       1.900   2.685  20.240  0.00  0.00    +0.000 A 
ATOM     21  C   UNL     1       1.446   3.611  21.167  0.00  0.00    +0.000 A 
ATOM     22  C   UNL     1       1.744   4.956  20.992  0.00  0.00    +0.000 A 
ATOM     23  C   UNL     1       2.482   5.410  19.884  0.00  0.00    +0.000 A 
BRANCH  19  24
ATOM     24  O   UNL     1       3.094   2.192  18.187  0.00  0.00    +0.000 OA
ATOM     25  C   UNL     1       3.773   1.053  18.718  0.00  0.00    +0.000 C 
ENDBRANCH  19  24
BRANCH  23  26
ATOM     26  O   UNL     1       2.758   6.748  19.993  0.00  0.00    +0.000 OA
ATOM     27  C   UNL     1       1.745   7.612  20.483  0.00  0.00    +0.000 C 
ENDBRANCH  23  26
ENDBRANCH   2  18
TORSDOF 6
ENDMDL
MODEL 4
REMARK VINA RESULT:      -6.8      2.390      7.387
REMARK  Name = 
REMARK  9 active torsions:
REMARK  status: ('A' for Active; 'I' for Inactive)
REMARK    1  A    between atoms: C_1  and  O_2
REMARK    2  A    between atoms: O_2  and  C_3
REMARK    3  A    between atoms: C_3  and  C_5
REMARK    4  A    between atoms: C_6  and  N_7
REMARK    5  A    between atoms: C_8  and  C_10
REMARK    6  A    between atoms: C_11  and  O_12
REMARK    7  A    between atoms: O_12  and  C_13
REMARK    8  A    between atoms: C_17  and  O_18
REMARK    9  A    between atoms: O_18  and  C_19
REMARK                            x       y       z     vdW  Elec       q    Type
REMARK                         _______ _______ _______ _____ _____    ______ ____
ROOT
ATOM      1  N   UNL     1       3.196   6.718  17.759  0.00  0.00    +0.000 N 
ATOM      2  C   UNL     1       4.362   6.060  18.119  0.00  0.00    +0.000 C 
ATOM      3  O   UNL     1       4.853   6.114  19.240  0.00  0.00    +0.000 OA
ATOM      4  H   UNL     1       3.216   7.148  16.838  0.00  0.00    +0.000 HD
ENDROOT
BRANCH   1   6
ATOM      5  C   UNL     1       1.857   6.889  19.895  0.00  0.00    +0.000 A 
ATOM      6  C   UNL     1       2.417   7.341  18.711  0.00  0.00    +0.000 A 
ATOM      7  S   UNL     1       2.037   8.950  18.338  0.00  0.00    +0.000 S 
ATOM      8  C   UNL     1       1.257   9.160  19.834  0.00  0.00    +0.000 A 
ATOM      9  C   UNL     1       1.166   7.982  20.555  0.00  0.00    +0.000 A 
ATOM     10  C   UNL     1       0.406   7.923  21.854  0.00  0.00    +0.000 C 
ATOM     11  C   UNL     1      -0.499   9.150  22.052  0.00  0.00    +0.000 C 
ATOM     12  C   UNL     1       0.232  10.451  21.706  0.00  0.00    +0.000 C 
ATOM     13  C   UNL     1       0.670  10.478  20.234  0.00  0.00    +0.000 C 
BRANCH   5  14
ATOM     14  C   UNL     1       1.902   5.488  20.310  0.00  0.00    +0.000 C 
ATOM     15  O   UNL     1       2.404   5.104  21.358  0.00  0.00    +0.000 OA
BRANCH  14  17
ATOM     16  C   UNL     1       0.899   3.409  19.905  0.00  0.00    +0.000 C 
ATOM     17  O   UNL     1       1.388   4.638  19.366  0.00  0.00    +0.000 OA
ENDBRANCH  14  17
ENDBRANCH   5  14
ENDBRANCH   1   6
BRANCH   2  18
ATOM     18  C   UNL     1       5.040   5.301  17.010  0.00  0.00    +0.000 A 
ATOM     19  C   UNL     1       6.165   5.872  16.346  0.00  0.00    +0.000 A 
ATOM     20  C   UNL     1       6.810   5.175  15.313  0.00  0.00    +0.000 A 
ATOM     21  C   UNL     1       6.341   3.938  14.898  0.00  0.00    +0.000 A 
ATOM     22  C   UNL     1       5.252   3.367  15.545  0.00  0.00    +0.000 A 
ATOM     23  C   UNL     1       4.598   4.022  16.604  0.00  0.00    +0.000 A 
BRANCH  19  24
ATOM     24  O   UNL     1       6.634   7.092  16.789  0.00  0.00    +0.000 OA
ATOM     25  C   UNL     1       7.738   7.058  17.694  0.00  0.00    +0.000 C 
ENDBRANCH  19  24
BRANCH  23  26
ATOM     26  O   UNL     1       3.642   3.215  17.165  0.00  0.00    +0.000 OA
ATOM     27  C   UNL     1       4.002   2.407  18.274  0.00  0.00    +0.000 C 
ENDBRANCH  23  26
ENDBRANCH   2  18
TORSDOF 6
ENDMDL
MODEL 5
REMARK VINA RESULT:      -6.6      3.940      8.369
REMARK  Name = 
REMARK  9 active torsions:
REMARK  status: ('A' for Active; 'I' for Inactive)
REMARK    1  A    between atoms: C_1  and  O_2
REMARK    2  A    between atoms: O_2  and  C_3
REMARK    3  A    between atoms: C_3  and  C_5
REMARK    4  A    between atoms: C_6  and  N_7
REMARK    5  A    between atoms: C_8  and  C_10
REMARK    6  A    between atoms: C_11  and  O_12
REMARK    7  A    between atoms: O_12  and  C_13
REMARK    8  A    between atoms: C_17  and  O_18
REMARK    9  A    between atoms: O_18  and  C_19
REMARK                            x       y       z     vdW  Elec       q    Type
REMARK                         _______ _______ _______ _____ _____    ______ ____
ROOT
ATOM      1  N   UNL     1       2.205   7.785  20.320  0.00  0.00    +0.000 N 
ATOM      2  C   UNL     1       1.789   6.463  20.296  0.00  0.00    +0.000 C 
ATOM      3  O   UNL     1       0.686   6.093  20.679  0.00  0.00    +0.000 OA
ATOM      4  H   UNL     1       3.168   7.925  20.616  0.00  0.00    +0.000 HD
ENDROOT
BRANCH   1   6
ATOM      5  C   UNL     1       0.599   9.670  19.818  0.00  0.00    +0.000 A 
ATOM      6  C   UNL     1       1.319   8.797  20.618  0.00  0.00    +0.000 A 
ATOM      7  S   UNL     1       1.103   9.051  22.280  0.00  0.00    +0.000 S 
ATOM      8  C   UNL     1      -0.098  10.219  21.993  0.00  0.00    +0.000 A 
ATOM      9  C   UNL     1      -0.241  10.514  20.648  0.00  0.00    +0.000 A 
ATOM     10  C   UNL     1      -1.167  11.608  20.187  0.00  0.00    +0.000 C 
ATOM     11  C   UNL     1      -1.598  12.527  21.342  0.00  0.00    +0.000 C 
ATOM     12  C   UNL     1      -1.999  11.722  22.583  0.00  0.00    +0.000 C 
ATOM     13  C   UNL     1      -0.825  10.888  23.117  0.00  0.00    +0.000 C 
BRANCH   5  14
ATOM     14  C   UNL     1       0.780   9.749  18.369  0.00  0.00    +0.000 C 
ATOM     15  O   UNL     1      -0.095   9.477  17.558  0.00  0.00    +0.000 OA
BRANCH  14  17
ATOM     16  C   UNL     1       2.325  11.491  18.101  0.00  0.00    +0.000 C 
ATOM     17  O   UNL     1       2.058  10.090  18.012  0.00  0.00    +0.000 OA
ENDBRANCH  14  17
ENDBRANCH   5  14
ENDBRANCH   1   6
BRANCH   2  18
ATOM     18  C   UNL     1       2.817   5.475  19.815  0.00  0.00    +0.000 A 
ATOM     19  C   UNL     1       2.953   4.218  20.474  0.00  0.00    +0.000 A 
ATOM     20  C   UNL     1       3.904   3.284  20.034  0.00  0.00    +0.000 A 
ATOM     21  C   UNL     1       4.748   3.583  18.976  0.00  0.00    +0.000 A 
ATOM     22  C   UNL     1       4.616   4.800  18.319  0.00  0.00    +0.000 A 
ATOM     23  C   UNL     1       3.655   5.750  18.711  0.00  0.00    +0.000 A 
BRANCH  19  24
ATOM     24  O   UNL     1       2.088   3.927  21.509  0.00  0.00    +0.000 OA
ATOM     25  C   UNL     1       1.491   2.629  21.491  0.00  0.00    +0.000 C 
ENDBRANCH  19  24
BRANCH  23  26
ATOM     26  O   UNL     1       3.627   6.808  17.842  0.00  0.00    +0.000 OA
ATOM     27  C   UNL     1       4.602   6.866  16.812  0.00  0.00    +0.000 C 
ENDBRANCH  23  26
ENDBRANCH   2  18
TORSDOF 6
ENDMDL
MODEL 6
REMARK VINA RESULT:      -6.6      4.144      8.244
REMARK  Name = 
REMARK  9 active torsions:
REMARK  status: ('A' for Active; 'I' for Inactive)
REMARK    1  A    between atoms: C_1  and  O_2
REMARK    2  A    between atoms: O_2  and  C_3
REMARK    3  A    between atoms: C_3  and  C_5
REMARK    4  A    between atoms: C_6  and  N_7
REMARK    5  A    between atoms: C_8  and  C_10
REMARK    6  A    between atoms: C_11  and  O_12
REMARK    7  A    between atoms: O_12  and  C_13
REMARK    8  A    between atoms: C_17  and  O_18
REMARK    9  A    between atoms: O_18  and  C_19
REMARK                            x       y       z     vdW  Elec       q    Type
REMARK                         _______ _______ _______ _____ _____    ______ ____
ROOT
ATOM      1  N   UNL     1       2.122   7.728  20.402  0.00  0.00    +0.000 N 
ATOM      2  C   UNL     1       1.655   6.427  20.305  0.00  0.00    +0.000 C 
ATOM      3  O   UNL     1       0.515   6.092  20.603  0.00  0.00    +0.000 OA
ATOM      4  H   UNL     1       3.068   7.816  20.764  0.00  0.00    +0.000 HD
ENDROOT
BRANCH   1   6
ATOM      5  C   UNL     1       0.588   9.661  19.863  0.00  0.00    +0.000 A 
ATOM      6  C   UNL     1       1.260   8.767  20.680  0.00  0.00    +0.000 A 
ATOM      7  S   UNL     1       1.012   9.026  22.337  0.00  0.00    +0.000 S 
ATOM      8  C   UNL     1      -0.145  10.231  22.021  0.00  0.00    +0.000 A 
ATOM      9  C   UNL     1      -0.246  10.531  20.673  0.00  0.00    +0.000 A 
ATOM     10  C   UNL     1      -1.126  11.653  20.190  0.00  0.00    +0.000 C 
ATOM     11  C   UNL     1      -1.557  12.585  21.335  0.00  0.00    +0.000 C 
ATOM     12  C   UNL     1      -2.013  11.792  22.565  0.00  0.00    +0.000 C 
ATOM     13  C   UNL     1      -0.879  10.922  23.127  0.00  0.00    +0.000 C 
BRANCH   5  14
ATOM     14  C   UNL     1       0.806   9.735  18.419  0.00  0.00    +0.000 C 
ATOM     15  O   UNL     1      -0.046   9.459  17.586  0.00  0.00    +0.000 OA
BRANCH  14  17
ATOM     16  C   UNL     1       2.322  11.486  18.060  0.00  0.00    +0.000 C 
ATOM     17  O   UNL     1       2.093  10.077  18.094  0.00  0.00    +0.000 OA
ENDBRANCH  14  17
ENDBRANCH   5  14
ENDBRANCH   1   6
BRANCH   2  18
ATOM     18  C   UNL     1       2.671   5.411  19.855  0.00  0.00    +0.000 A 
ATOM     19  C   UNL     1       3.492   5.686  18.723  0.00  0.00    +0.000 A 
ATOM     20  C   UNL     1       4.447   4.752  18.293  0.00  0.00    +0.000 A 
ATOM     21  C   UNL     1       4.581   3.533  18.941  0.00  0.00    +0.000 A 
ATOM     22  C   UNL     1       3.794   3.260  20.053  0.00  0.00    +0.000 A 
ATOM     23  C   UNL     1       2.847   4.183  20.531  0.00  0.00    +0.000 A 
BRANCH  19  24
ATOM     24  O   UNL     1       3.363   6.914  18.105  0.00  0.00    +0.000 OA
ATOM     25  C   UNL     1       4.340   7.230  17.113  0.00  0.00    +0.000 C 
ENDBRANCH  19  24
BRANCH  23  26
ATOM     26  O   UNL     1       2.286   3.749  21.704  0.00  0.00    +0.000 OA
ATOM     27  C   UNL     1       1.499   2.569  21.683  0.00  0.00    +0.000 C 
ENDBRANCH  23  26
ENDBRANCH   2  18
TORSDOF 6
ENDMDL
MODEL 7
REMARK VINA RESULT:      -6.4      3.353      6.250
REMARK  Name = 
REMARK  9 active torsions:
REMARK  status: ('A' for Active; 'I' for Inactive)
REMARK    1  A    between atoms: C_1  and  O_2
REMARK    2  A    between atoms: O_2  and  C_3
REMARK    3  A    between atoms: C_3  and  C_5
REMARK    4  A    between atoms: C_6  and  N_7
REMARK    5  A    between atoms: C_8  and  C_10
REMARK    6  A    between atoms: C_11  and  O_12
REMARK    7  A    between atoms: O_12  and  C_13
REMARK    8  A    between atoms: C_17  and  O_18
REMARK    9  A    between atoms: O_18  and  C_19
REMARK                            x       y       z     vdW  Elec       q    Type
REMARK                         _______ _______ _______ _____ _____    ______ ____
ROOT
ATOM      1  N   UNL     1       1.888   7.917  19.102  0.00  0.00    +0.000 N 
ATOM      2  C   UNL     1       1.487   9.096  18.494  0.00  0.00    +0.000 C 
ATOM      3  O   UNL     1       1.920   9.484  17.415  0.00  0.00    +0.000 OA
ATOM      4  H   UNL     1       2.025   7.980  20.108  0.00  0.00    +0.000 HD
ENDROOT
BRANCH   1   6
ATOM      5  C   UNL     1       2.680   5.628  18.381  0.00  0.00    +0.000 A 
ATOM      6  C   UNL     1       2.683   7.013  18.431  0.00  0.00    +0.000 A 
ATOM      7  S   UNL     1       3.928   7.731  17.532  0.00  0.00    +0.000 S 
ATOM      8  C   UNL     1       4.400   6.226  16.898  0.00  0.00    +0.000 A 
ATOM      9  C   UNL     1       3.709   5.170  17.466  0.00  0.00    +0.000 A 
ATOM     10  C   UNL     1       4.057   3.744  17.131  0.00  0.00    +0.000 C 
ATOM     11  C   UNL     1       5.422   3.629  16.432  0.00  0.00    +0.000 C 
ATOM     12  C   UNL     1       5.581   4.685  15.332  0.00  0.00    +0.000 C 
ATOM     13  C   UNL     1       5.513   6.109  15.903  0.00  0.00    +0.000 C 
BRANCH   5  14
ATOM     14  C   UNL     1       1.814   4.807  19.226  0.00  0.00    +0.000 C 
ATOM     15  O   UNL     1       1.059   3.946  18.794  0.00  0.00    +0.000 OA
BRANCH  14  17
ATOM     16  C   UNL     1       2.138   4.048  21.420  0.00  0.00    +0.000 C 
ATOM     17  O   UNL     1       1.883   5.152  20.551  0.00  0.00    +0.000 OA
ENDBRANCH  14  17
ENDBRANCH   5  14
ENDBRANCH   1   6
BRANCH   2  18
ATOM     18  C   UNL     1       0.506   9.923  19.280  0.00  0.00    +0.000 A 
ATOM     19  C   UNL     1      -0.696  10.374  18.659  0.00  0.00    +0.000 A 
ATOM     20  C   UNL     1      -1.623  11.142  19.380  0.00  0.00    +0.000 A 
ATOM     21  C   UNL     1      -1.369  11.503  20.694  0.00  0.00    +0.000 A 
ATOM     22  C   UNL     1      -0.207  11.059  21.313  0.00  0.00    +0.000 A 
ATOM     23  C   UNL     1       0.733  10.263  20.632  0.00  0.00    +0.000 A 
BRANCH  19  24
ATOM     24  O   UNL     1      -0.945   9.985  17.359  0.00  0.00    +0.000 OA
ATOM     25  C   UNL     1      -2.317   9.931  16.965  0.00  0.00    +0.000 C 
ENDBRANCH  19  24
BRANCH  23  26
ATOM     26  O   UNL     1       1.726   9.844  21.478  0.00  0.00    +0.000 OA
ATOM     27  C   UNL     1       1.362   9.134  22.652  0.00  0.00    +0.000 C 
ENDBRANCH  23  26
ENDBRANCH   2  18
TORSDOF 6
ENDMDL
MODEL 8
REMARK VINA RESULT:      -6.4      5.727      9.523
REMARK  Name = 
REMARK  9 active torsions:
REMARK  status: ('A' for Active; 'I' for Inactive)
REMARK    1  A    between atoms: C_1  and  O_2
REMARK    2  A    between atoms: O_2  and  C_3
REMARK    3  A    between atoms: C_3  and  C_5
REMARK    4  A    between atoms: C_6  and  N_7
REMARK    5  A    between atoms: C_8  and  C_10
REMARK    6  A    between atoms: C_11  and  O_12
REMARK    7  A    between atoms: O_12  and  C_13
REMARK    8  A    between atoms: C_17  and  O_18
REMARK    9  A    between atoms: O_18  and  C_19
REMARK                            x       y       z     vdW  Elec       q    Type
REMARK                         _______ _______ _______ _____ _____    ______ ____
ROOT
ATOM      1  N   UNL     1       0.989  11.083  19.637  0.00  0.00    +0.000 N 
ATOM      2  C   UNL     1      -0.320  11.476  19.408  0.00  0.00    +0.000 C 
ATOM      3  O   UNL     1      -1.206  10.708  19.051  0.00  0.00    +0.000 OA
ATOM      4  H   UNL     1       1.695  11.731  19.296  0.00  0.00    +0.000 HD
ENDROOT
BRANCH   1   6
ATOM      5  C   UNL     1       1.309   8.787  20.641  0.00  0.00    +0.000 A 
ATOM      6  C   UNL     1       1.333   9.749  19.644  0.00  0.00    +0.000 A 
ATOM      7  S   UNL     1       1.943   9.191  18.164  0.00  0.00    +0.000 S 
ATOM      8  C   UNL     1       2.030   7.597  18.748  0.00  0.00    +0.000 A 
ATOM      9  C   UNL     1       1.728   7.508  20.096  0.00  0.00    +0.000 A 
ATOM     10  C   UNL     1       1.861   6.205  20.838  0.00  0.00    +0.000 C 
ATOM     11  C   UNL     1       2.679   5.169  20.048  0.00  0.00    +0.000 C 
ATOM     12  C   UNL     1       2.252   5.119  18.577  0.00  0.00    +0.000 C 
ATOM     13  C   UNL     1       2.480   6.466  17.877  0.00  0.00    +0.000 C 
BRANCH   5  14
ATOM     14  C   UNL     1       0.997   9.098  22.035  0.00  0.00    +0.000 C 
ATOM     15  O   UNL     1       1.845   9.331  22.887  0.00  0.00    +0.000 OA
BRANCH  14  17
ATOM     16  C   UNL     1      -0.841  10.152  23.036  0.00  0.00    +0.000 C 
ATOM     17  O   UNL     1      -0.344   9.029  22.307  0.00  0.00    +0.000 OA
ENDBRANCH  14  17
ENDBRANCH   5  14
ENDBRANCH   1   6
BRANCH   2  18
ATOM     18  C   UNL     1      -0.587  12.948  19.572  0.00  0.00    +0.000 A 
ATOM     19  C   UNL     1       0.261  13.896  18.930  0.00  0.00    +0.000 A 
ATOM     20  C   UNL     1       0.023  15.273  19.069  0.00  0.00    +0.000 A 
ATOM     21  C   UNL     1      -1.019  15.730  19.861  0.00  0.00    +0.000 A 
ATOM     22  C   UNL     1      -1.860  14.814  20.482  0.00  0.00    +0.000 A 
ATOM     23  C   UNL     1      -1.670  13.428  20.342  0.00  0.00    +0.000 A 
BRANCH  19  24
ATOM     24  O   UNL     1       1.278  13.424  18.125  0.00  0.00    +0.000 OA
ATOM     25  C   UNL     1       2.531  14.102  18.222  0.00  0.00    +0.000 C 
ENDBRANCH  19  24
BRANCH  23  26
ATOM     26  O   UNL     1      -2.690  12.730  20.935  0.00  0.00    +0.000 OA
ATOM     27  C   UNL     1      -3.963  12.725  20.307  0.00  0.00    +0.000 C 
ENDBRANCH  23  26
ENDBRANCH   2  18
TORSDOF 6
ENDMDL
MODEL 9
REMARK VINA RESULT:      -6.3      6.173     10.009
REMARK  Name = 
REMARK  9 active torsions:
REMARK  status: ('A' for Active; 'I' for Inactive)
REMARK    1  A    between atoms: C_1  and  O_2
REMARK    2  A    between atoms: O_2  and  C_3
REMARK    3  A    between atoms: C_3  and  C_5
REMARK    4  A    between atoms: C_6  and  N_7
REMARK    5  A    between atoms: C_8  and  C_10
REMARK    6  A    between atoms: C_11  and  O_12
REMARK    7  A    between atoms: O_12  and  C_13
REMARK    8  A    between atoms: C_17  and  O_18
REMARK    9  A    between atoms: O_18  and  C_19
REMARK                            x       y       z     vdW  Elec       q    Type
REMARK                         _______ _______ _______ _____ _____    ______ ____
ROOT
ATOM      1  N   UNL     1       0.392  11.683  20.014  0.00  0.00    +0.000 N 
ATOM      2  C   UNL     1      -0.937  11.945  19.718  0.00  0.00    +0.000 C 
ATOM      3  O   UNL     1      -1.679  11.144  19.164  0.00  0.00    +0.000 OA
ATOM      4  H   UNL     1       1.028  12.458  19.846  0.00  0.00    +0.000 HD
ENDROOT
BRANCH   1   6
ATOM      5  C   UNL     1       1.020   9.338  20.716  0.00  0.00    +0.000 A 
ATOM      6  C   UNL     1       0.913  10.417  19.853  0.00  0.00    +0.000 A 
ATOM      7  S   UNL     1       1.590  10.145  18.323  0.00  0.00    +0.000 S 
ATOM      8  C   UNL     1       1.892   8.514  18.697  0.00  0.00    +0.000 A 
ATOM      9  C   UNL     1       1.607   8.210  20.016  0.00  0.00    +0.000 A 
ATOM     10  C   UNL     1       1.916   6.850  20.585  0.00  0.00    +0.000 C 
ATOM     11  C   UNL     1       2.864   6.046  19.681  0.00  0.00    +0.000 C 
ATOM     12  C   UNL     1       2.446   6.132  18.208  0.00  0.00    +0.000 C 
ATOM     13  C   UNL     1       2.490   7.578  17.693  0.00  0.00    +0.000 C 
BRANCH   5  14
ATOM     14  C   UNL     1       0.671   9.420  22.134  0.00  0.00    +0.000 C 
ATOM     15  O   UNL     1       1.491   9.367  23.041  0.00  0.00    +0.000 OA
BRANCH  14  17
ATOM     16  C   UNL     1      -1.081  10.593  23.156  0.00  0.00    +0.000 C 
ATOM     17  O   UNL     1      -0.681   9.487  22.345  0.00  0.00    +0.000 OA
ENDBRANCH  14  17
ENDBRANCH   5  14
ENDBRANCH   1   6
BRANCH   2  18
ATOM     18  C   UNL     1      -1.414  13.327  20.076  0.00  0.00    +0.000 A 
ATOM     19  C   UNL     1      -0.734  14.466  19.555  0.00  0.00    +0.000 A 
ATOM     20  C   UNL     1      -1.169  15.762  19.875  0.00  0.00    +0.000 A 
ATOM     21  C   UNL     1      -2.243  15.952  20.731  0.00  0.00    +0.000 A 
ATOM     22  C   UNL     1      -2.920  14.849  21.235  0.00  0.00    +0.000 A 
ATOM     23  C   UNL     1      -2.532  13.536  20.913  0.00  0.00    +0.000 A 
BRANCH  19  24
ATOM     24  O   UNL     1       0.317  14.259  18.685  0.00  0.00    +0.000 OA
ATOM     25  C   UNL     1       1.494  15.036  18.914  0.00  0.00    +0.000 C 
ENDBRANCH  19  24
BRANCH  23  26
ATOM     26  O   UNL     1      -3.420  12.623  21.420  0.00  0.00    +0.000 OA
ATOM     27  C   UNL     1      -3.994  12.871  22.694  0.00  0.00    +0.000 C 
ENDBRANCH  23  26
ENDBRANCH   2  18
TORSDOF 6
ENDMDL
