MODEL 1
REMARK VINA RESULT:      -7.3      0.000      0.000
REMARK  Name = 
REMARK  14 active torsions:
REMARK  status: ('A' for Active; 'I' for Inactive)
REMARK    1  A    between atoms: C_1  and  C_2
REMARK    2  A    between atoms: C_2  and  C_3
REMARK    3  A    between atoms: C_3  and  C_4
REMARK    4  A    between atoms: C_4  and  C_5
REMARK    5  A    between atoms: C_5  and  C_6
REMARK    6  A    between atoms: C_6  and  C_7
REMARK    7  A    between atoms: C_7  and  C_8
REMARK    8  A    between atoms: C_7  and  C_9
REMARK    9  A    between atoms: C_7  and  C_10
REMARK   10  A    between atoms: C_12  and  O_13
REMARK   11  A    between atoms: C_18  and  C_19
REMARK   12  A    between atoms: C_18  and  C_20
REMARK   13  A    between atoms: C_24  and  O_25
REMARK   14  A    between atoms: O_25  and  C_26
REMARK                            x       y       z     vdW  Elec       q    Type
REMARK                         _______ _______ _______ _____ _____    ______ ____
ROOT
ATOM      1  C   UNL     1       2.926   6.763  18.469  0.00  0.00    +0.000 A 
ATOM      2  C   UNL     1       2.780   7.860  17.618  0.00  0.00    +0.000 A 
ATOM      3  C   UNL     1       2.124   9.032  18.030  0.00  0.00    +0.000 A 
ATOM      4  C   UNL     1       1.571   9.176  19.316  0.00  0.00    +0.000 A 
ATOM      5  C   UNL     1       1.718   8.066  20.161  0.00  0.00    +0.000 A 
ATOM      6  C   UNL     1       2.383   6.893  19.750  0.00  0.00    +0.000 A 
ATOM      7  O   UNL     1       1.259   8.006  21.445  0.00  0.00    +0.000 OA
ATOM      8  C   UNL     1       0.478   9.088  21.982  0.00  0.00    +0.000 C 
ATOM      9  C   UNL     1      -0.920   8.497  22.243  0.00  0.00    +0.000 C 
ATOM     10  C   UNL     1       1.162   9.420  23.321  0.00  0.00    +0.000 C 
ATOM     11  C   UNL     1       0.345  10.346  21.131  0.00  0.00    +0.000 A 
ATOM     12  C   UNL     1      -0.339  11.473  21.641  0.00  0.00    +0.000 A 
ATOM     13  C   UNL     1      -0.504  12.631  20.886  0.00  0.00    +0.000 A 
ATOM     14  C   UNL     1       0.010  12.680  19.601  0.00  0.00    +0.000 A 
ATOM     15  C   UNL     1       0.688  11.566  19.096  0.00  0.00    +0.000 A 
ATOM     16  C   UNL     1       0.872  10.376  19.829  0.00  0.00    +0.000 A 
ENDROOT
BRANCH   1  17
ATOM     17  C   UNL     1       3.640   5.474  18.018  0.00  0.00    +0.000 C 
ATOM     18  C   UNL     1       4.535   4.854  19.122  0.00  0.00    +0.000 C 
ATOM     19  C   UNL     1       4.580   5.820  16.838  0.00  0.00    +0.000 C 
BRANCH  17  20
ATOM     20  C   UNL     1       2.617   4.396  17.539  0.00  0.00    +0.000 C 
BRANCH  20  21
ATOM     21  C   UNL     1       3.045   2.953  17.828  0.00  0.00    +0.000 C 
BRANCH  21  22
ATOM     22  C   UNL     1       1.992   2.183  18.625  0.00  0.00    +0.000 C 
BRANCH  22  23
ATOM     23  C   UNL     1       1.125   3.165  19.413  0.00  0.00    +0.000 C 
BRANCH  23  25
ATOM     24  C   UNL     1       2.203   3.648  21.624  0.00  0.00    +0.000 C 
ATOM     25  C   UNL     1       1.121   2.856  20.907  0.00  0.00    +0.000 C 
ENDBRANCH  23  25
ENDBRANCH  22  23
ENDBRANCH  21  22
ENDBRANCH  20  21
ENDBRANCH  17  20
ENDBRANCH   1  17
BRANCH   3  26
ATOM     26  O   UNL     1       2.048  10.036  17.098  0.00  0.00    +0.000 OA
ATOM     27  H   UNL     1       2.670   9.864  16.374  0.00  0.00    +0.000 HD
ENDBRANCH   3  26
BRANCH  14  28
ATOM     28  O   UNL     1      -0.076  13.737  18.738  0.00  0.00    +0.000 OA
ATOM     29  C   UNL     1      -0.028  15.035  19.311  0.00  0.00    +0.000 C 
ENDBRANCH  14  28
TORSDOF 8
ENDMDL
MODEL 2
REMARK VINA RESULT:      -7.0      1.224      2.838
REMARK  Name = 
REMARK  14 active torsions:
REMARK  status: ('A' for Active; 'I' for Inactive)
REMARK    1  A    between atoms: C_1  and  C_2
REMARK    2  A    between atoms: C_2  and  C_3
REMARK    3  A    between atoms: C_3  and  C_4
REMARK    4  A    between atoms: C_4  and  C_5
REMARK    5  A    between atoms: C_5  and  C_6
REMARK    6  A    between atoms: C_6  and  C_7
REMARK    7  A    between atoms: C_7  and  C_8
REMARK    8  A    between atoms: C_7  and  C_9
REMARK    9  A    between atoms: C_7  and  C_10
REMARK   10  A    between atoms: C_12  and  O_13
REMARK   11  A    between atoms: C_18  and  C_19
REMARK   12  A    between atoms: C_18  and  C_20
REMARK   13  A    between atoms: C_24  and  O_25
REMARK   14  A    between atoms: O_25  and  C_26
REMARK                            x       y       z     vdW  Elec       q    Type
REMARK                         _______ _______ _______ _____ _____    ______ ____
ROOT
ATOM      1  C   UNL     1       2.867   6.605  18.483  0.00  0.00    +0.000 A 
ATOM      2  C   UNL     1       2.748   7.695  17.619  0.00  0.00    +0.000 A 
ATOM      3  C   UNL     1       2.137   8.893  18.021  0.00  0.00    +0.000 A 
ATOM      4  C   UNL     1       1.604   9.074  19.311  0.00  0.00    +0.000 A 
ATOM      5  C   UNL     1       1.723   7.970  20.170  0.00  0.00    +0.000 A 
ATOM      6  C   UNL     1       2.343   6.771  19.768  0.00  0.00    +0.000 A 
ATOM      7  O   UNL     1       1.276   7.944  21.460  0.00  0.00    +0.000 OA
ATOM      8  C   UNL     1       0.538   9.058  21.990  0.00  0.00    +0.000 C 
ATOM      9  C   UNL     1      -0.876   8.518  22.274  0.00  0.00    +0.000 C 
ATOM     10  C   UNL     1       1.248   9.386  23.316  0.00  0.00    +0.000 C 
ATOM     11  C   UNL     1       0.437  10.308  21.122  0.00  0.00    +0.000 A 
ATOM     12  C   UNL     1      -0.203  11.465  21.624  0.00  0.00    +0.000 A 
ATOM     13  C   UNL     1      -0.337  12.617  20.854  0.00  0.00    +0.000 A 
ATOM     14  C   UNL     1       0.164  12.632  19.564  0.00  0.00    +0.000 A 
ATOM     15  C   UNL     1       0.799  11.489  19.067  0.00  0.00    +0.000 A 
ATOM     16  C   UNL     1       0.951  10.303  19.815  0.00  0.00    +0.000 A 
ENDROOT
BRANCH   1  17
ATOM     17  C   UNL     1       3.533   5.286  18.043  0.00  0.00    +0.000 C 
ATOM     18  C   UNL     1       2.512   4.202  17.609  0.00  0.00    +0.000 C 
ATOM     19  C   UNL     1       4.306   4.701  19.248  0.00  0.00    +0.000 C 
BRANCH  17  20
ATOM     20  C   UNL     1       4.540   5.523  16.874  0.00  0.00    +0.000 C 
BRANCH  20  21
ATOM     21  C   UNL     1       5.564   4.396  16.690  0.00  0.00    +0.000 C 
BRANCH  21  22
ATOM     22  C   UNL     1       7.004   4.892  16.827  0.00  0.00    +0.000 C 
BRANCH  22  23
ATOM     23  C   UNL     1       7.009   6.409  17.014  0.00  0.00    +0.000 C 
BRANCH  23  25
ATOM     24  C   UNL     1       7.789   5.771  19.310  0.00  0.00    +0.000 C 
ATOM     25  C   UNL     1       7.836   6.835  18.224  0.00  0.00    +0.000 C 
ENDBRANCH  23  25
ENDBRANCH  22  23
ENDBRANCH  21  22
ENDBRANCH  20  21
ENDBRANCH  17  20
ENDBRANCH   1  17
BRANCH   3  26
ATOM     26  O   UNL     1       2.084   9.886  17.076  0.00  0.00    +0.000 OA
ATOM     27  H   UNL     1       2.932   9.946  16.610  0.00  0.00    +0.000 HD
ENDBRANCH   3  26
BRANCH  14  28
ATOM     28  O   UNL     1       0.103  13.679  18.686  0.00  0.00    +0.000 OA
ATOM     29  C   UNL     1       0.481  14.953  19.186  0.00  0.00    +0.000 C 
ENDBRANCH  14  28
TORSDOF 8
ENDMDL
MODEL 3
REMARK VINA RESULT:      -6.8      2.350      7.578
REMARK  Name = 
REMARK  14 active torsions:
REMARK  status: ('A' for Active; 'I' for Inactive)
REMARK    1  A    between atoms: C_1  and  C_2
REMARK    2  A    between atoms: C_2  and  C_3
REMARK    3  A    between atoms: C_3  and  C_4
REMARK    4  A    between atoms: C_4  and  C_5
REMARK    5  A    between atoms: C_5  and  C_6
REMARK    6  A    between atoms: C_6  and  C_7
REMARK    7  A    between atoms: C_7  and  C_8
REMARK    8  A    between atoms: C_7  and  C_9
REMARK    9  A    between atoms: C_7  and  C_10
REMARK   10  A    between atoms: C_12  and  O_13
REMARK   11  A    between atoms: C_18  and  C_19
REMARK   12  A    between atoms: C_18  and  C_20
REMARK   13  A    between atoms: C_24  and  O_25
REMARK   14  A    between atoms: O_25  and  C_26
REMARK                            x       y       z     vdW  Elec       q    Type
REMARK                         _______ _______ _______ _____ _____    ______ ____
ROOT
ATOM      1  C   UNL     1       1.312   8.040  20.652  0.00  0.00    +0.000 A 
ATOM      2  C   UNL     1       2.122   8.316  19.549  0.00  0.00    +0.000 A 
ATOM      3  C   UNL     1       2.727   7.292  18.802  0.00  0.00    +0.000 A 
ATOM      4  C   UNL     1       2.562   5.929  19.115  0.00  0.00    +0.000 A 
ATOM      5  C   UNL     1       1.751   5.663  20.230  0.00  0.00    +0.000 A 
ATOM      6  C   UNL     1       1.138   6.691  20.974  0.00  0.00    +0.000 A 
ATOM      7  O   UNL     1       1.462   4.412  20.693  0.00  0.00    +0.000 OA
ATOM      8  C   UNL     1       2.085   3.261  20.098  0.00  0.00    +0.000 C 
ATOM      9  C   UNL     1       2.972   2.656  21.202  0.00  0.00    +0.000 C 
ATOM     10  C   UNL     1       0.913   2.311  19.792  0.00  0.00    +0.000 C 
ATOM     11  C   UNL     1       2.922   3.488  18.844  0.00  0.00    +0.000 A 
ATOM     12  C   UNL     1       3.489   2.384  18.166  0.00  0.00    +0.000 A 
ATOM     13  C   UNL     1       4.281   2.551  17.033  0.00  0.00    +0.000 A 
ATOM     14  C   UNL     1       4.522   3.829  16.558  0.00  0.00    +0.000 A 
ATOM     15  C   UNL     1       3.960   4.922  17.226  0.00  0.00    +0.000 A 
ATOM     16  C   UNL     1       3.157   4.792  18.378  0.00  0.00    +0.000 A 
ENDROOT
BRANCH   1  17
ATOM     17  C   UNL     1       0.651   9.162  21.477  0.00  0.00    +0.000 C 
ATOM     18  C   UNL     1       1.420   9.494  22.782  0.00  0.00    +0.000 C 
ATOM     19  C   UNL     1      -0.757   8.690  21.907  0.00  0.00    +0.000 C 
BRANCH  17  20
ATOM     20  C   UNL     1       0.503  10.470  20.637  0.00  0.00    +0.000 C 
BRANCH  20  21
ATOM     21  C   UNL     1      -0.786  10.541  19.811  0.00  0.00    +0.000 C 
BRANCH  21  22
ATOM     22  C   UNL     1      -0.510  10.613  18.308  0.00  0.00    +0.000 C 
BRANCH  22  23
ATOM     23  C   UNL     1      -1.678   9.994  17.540  0.00  0.00    +0.000 C 
BRANCH  23  25
ATOM     24  C   UNL     1      -2.832  10.612  15.403  0.00  0.00    +0.000 C 
ATOM     25  C   UNL     1      -2.516  11.049  16.824  0.00  0.00    +0.000 C 
ENDBRANCH  23  25
ENDBRANCH  22  23
ENDBRANCH  21  22
ENDBRANCH  20  21
ENDBRANCH  17  20
ENDBRANCH   1  17
BRANCH   3  26
ATOM     26  O   UNL     1       3.498   7.697  17.743  0.00  0.00    +0.000 OA
ATOM     27  H   UNL     1       3.105   7.391  16.911  0.00  0.00    +0.000 HD
ENDBRANCH   3  26
BRANCH  14  28
ATOM     28  O   UNL     1       5.279   4.155  15.467  0.00  0.00    +0.000 OA
ATOM     29  C   UNL     1       5.575   5.531  15.283  0.00  0.00    +0.000 C 
ENDBRANCH  14  28
TORSDOF 8
ENDMDL
MODEL 4
REMARK VINA RESULT:      -6.7      1.721      3.403
REMARK  Name = 
REMARK  14 active torsions:
REMARK  status: ('A' for Active; 'I' for Inactive)
REMARK    1  A    between atoms: C_1  and  C_2
REMARK    2  A    between atoms: C_2  and  C_3
REMARK    3  A    between atoms: C_3  and  C_4
REMARK    4  A    between atoms: C_4  and  C_5
REMARK    5  A    between atoms: C_5  and  C_6
REMARK    6  A    between atoms: C_6  and  C_7
REMARK    7  A    between atoms: C_7  and  C_8
REMARK    8  A    between atoms: C_7  and  C_9
REMARK    9  A    between atoms: C_7  and  C_10
REMARK   10  A    between atoms: C_12  and  O_13
REMARK   11  A    between atoms: C_18  and  C_19
REMARK   12  A    between atoms: C_18  and  C_20
REMARK   13  A    between atoms: C_24  and  O_25
REMARK   14  A    between atoms: O_25  and  C_26
REMARK                            x       y       z     vdW  Elec       q    Type
REMARK                         _______ _______ _______ _____ _____    ______ ____
ROOT
ATOM      1  C   UNL     1       2.976   6.854  18.440  0.00  0.00    +0.000 A 
ATOM      2  C   UNL     1       2.822   7.958  17.600  0.00  0.00    +0.000 A 
ATOM      3  C   UNL     1       2.138   9.112  18.014  0.00  0.00    +0.000 A 
ATOM      4  C   UNL     1       1.562   9.231  19.293  0.00  0.00    +0.000 A 
ATOM      5  C   UNL     1       1.718   8.114  20.128  0.00  0.00    +0.000 A 
ATOM      6  C   UNL     1       2.412   6.959  19.714  0.00  0.00    +0.000 A 
ATOM      7  O   UNL     1       1.241   8.031  21.404  0.00  0.00    +0.000 OA
ATOM      8  C   UNL     1       0.430   9.091  21.941  0.00  0.00    +0.000 C 
ATOM      9  C   UNL     1      -0.959   8.471  22.173  0.00  0.00    +0.000 C 
ATOM     10  C   UNL     1       1.088   9.422  23.293  0.00  0.00    +0.000 C 
ATOM     11  C   UNL     1       0.286  10.356  21.101  0.00  0.00    +0.000 A 
ATOM     12  C   UNL     1      -0.427  11.464  21.613  0.00  0.00    +0.000 A 
ATOM     13  C   UNL     1      -0.604  12.627  20.868  0.00  0.00    +0.000 A 
ATOM     14  C   UNL     1      -0.071  12.701  19.592  0.00  0.00    +0.000 A 
ATOM     15  C   UNL     1       0.637  11.606  19.085  0.00  0.00    +0.000 A 
ATOM     16  C   UNL     1       0.832  10.411  19.808  0.00  0.00    +0.000 A 
ENDROOT
BRANCH   1  17
ATOM     17  C   UNL     1       3.723   5.584  17.986  0.00  0.00    +0.000 C 
ATOM     18  C   UNL     1       2.773   4.407  17.645  0.00  0.00    +0.000 C 
ATOM     19  C   UNL     1       4.619   5.099  19.150  0.00  0.00    +0.000 C 
BRANCH  17  20
ATOM     20  C   UNL     1       4.629   5.871  16.748  0.00  0.00    +0.000 C 
BRANCH  20  21
ATOM     21  C   UNL     1       5.082   4.613  15.997  0.00  0.00    +0.000 C 
BRANCH  21  22
ATOM     22  C   UNL     1       5.877   4.945  14.734  0.00  0.00    +0.000 C 
BRANCH  22  23
ATOM     23  C   UNL     1       6.272   3.652  14.020  0.00  0.00    +0.000 C 
BRANCH  23  25
ATOM     24  C   UNL     1       5.078   3.148  11.875  0.00  0.00    +0.000 C 
ATOM     25  C   UNL     1       6.290   3.817  12.504  0.00  0.00    +0.000 C 
ENDBRANCH  23  25
ENDBRANCH  22  23
ENDBRANCH  21  22
ENDBRANCH  20  21
ENDBRANCH  17  20
ENDBRANCH   1  17
BRANCH   3  26
ATOM     26  O   UNL     1       2.056  10.124  17.092  0.00  0.00    +0.000 OA
ATOM     27  H   UNL     1       1.362  10.751  17.349  0.00  0.00    +0.000 HD
ENDBRANCH   3  26
BRANCH  14  28
ATOM     28  O   UNL     1      -0.164  13.765  18.739  0.00  0.00    +0.000 OA
ATOM     29  C   UNL     1      -0.314  15.047  19.331  0.00  0.00    +0.000 C 
ENDBRANCH  14  28
TORSDOF 8
ENDMDL
MODEL 5
REMARK VINA RESULT:      -6.7      0.658      1.078
REMARK  Name = 
REMARK  14 active torsions:
REMARK  status: ('A' for Active; 'I' for Inactive)
REMARK    1  A    between atoms: C_1  and  C_2
REMARK    2  A    between atoms: C_2  and  C_3
REMARK    3  A    between atoms: C_3  and  C_4
REMARK    4  A    between atoms: C_4  and  C_5
REMARK    5  A    between atoms: C_5  and  C_6
REMARK    6  A    between atoms: C_6  and  C_7
REMARK    7  A    between atoms: C_7  and  C_8
REMARK    8  A    between atoms: C_7  and  C_9
REMARK    9  A    between atoms: C_7  and  C_10
REMARK   10  A    between atoms: C_12  and  O_13
REMARK   11  A    between atoms: C_18  and  C_19
REMARK   12  A    between atoms: C_18  and  C_20
REMARK   13  A    between atoms: C_24  and  O_25
REMARK   14  A    between atoms: O_25  and  C_26
REMARK                            x       y       z     vdW  Elec       q    Type
REMARK                         _______ _______ _______ _____ _____    ______ ____
ROOT
ATOM      1  C   UNL     1       2.915   6.835  18.413  0.00  0.00    +0.000 A 
ATOM      2  C   UNL     1       2.775   7.954  17.590  0.00  0.00    +0.000 A 
ATOM      3  C   UNL     1       2.129   9.119  18.032  0.00  0.00    +0.000 A 
ATOM      4  C   UNL     1       1.580   9.235  19.323  0.00  0.00    +0.000 A 
ATOM      5  C   UNL     1       1.720   8.103  20.140  0.00  0.00    +0.000 A 
ATOM      6  C   UNL     1       2.376   6.937  19.698  0.00  0.00    +0.000 A 
ATOM      7  O   UNL     1       1.264   8.014  21.423  0.00  0.00    +0.000 OA
ATOM      8  C   UNL     1       0.492   9.088  21.989  0.00  0.00    +0.000 C 
ATOM      9  C   UNL     1      -0.910   8.500  22.238  0.00  0.00    +0.000 C 
ATOM     10  C   UNL     1       1.181   9.382  23.334  0.00  0.00    +0.000 C 
ATOM     11  C   UNL     1       0.365  10.368  21.169  0.00  0.00    +0.000 A 
ATOM     12  C   UNL     1      -0.309  11.486  21.710  0.00  0.00    +0.000 A 
ATOM     13  C   UNL     1      -0.468  12.664  20.983  0.00  0.00    +0.000 A 
ATOM     14  C   UNL     1       0.044  12.742  19.699  0.00  0.00    +0.000 A 
ATOM     15  C   UNL     1       0.713  11.636  19.165  0.00  0.00    +0.000 A 
ATOM     16  C   UNL     1       0.890  10.427  19.868  0.00  0.00    +0.000 A 
ENDROOT
BRANCH   1  17
ATOM     17  C   UNL     1       3.620   5.552  17.928  0.00  0.00    +0.000 C 
ATOM     18  C   UNL     1       4.644   5.811  16.792  0.00  0.00    +0.000 C 
ATOM     19  C   UNL     1       2.553   4.596  17.345  0.00  0.00    +0.000 C 
BRANCH  17  20
ATOM     20  C   UNL     1       4.348   4.827  19.103  0.00  0.00    +0.000 C 
BRANCH  20  21
ATOM     21  C   UNL     1       4.482   3.311  18.917  0.00  0.00    +0.000 C 
BRANCH  21  22
ATOM     22  C   UNL     1       3.891   2.528  20.090  0.00  0.00    +0.000 C 
BRANCH  22  23
ATOM     23  C   UNL     1       2.491   2.033  19.725  0.00  0.00    +0.000 C 
BRANCH  23  25
ATOM     24  C   UNL     1       1.918   3.494  21.680  0.00  0.00    +0.000 C 
ATOM     25  C   UNL     1       1.398   2.854  20.403  0.00  0.00    +0.000 C 
ENDBRANCH  23  25
ENDBRANCH  22  23
ENDBRANCH  21  22
ENDBRANCH  20  21
ENDBRANCH  17  20
ENDBRANCH   1  17
BRANCH   3  26
ATOM     26  O   UNL     1       2.057  10.147  17.126  0.00  0.00    +0.000 OA
ATOM     27  H   UNL     1       2.016  10.997  17.592  0.00  0.00    +0.000 HD
ENDBRANCH   3  26
BRANCH  14  28
ATOM     28  O   UNL     1      -0.037  13.820  18.863  0.00  0.00    +0.000 OA
ATOM     29  C   UNL     1       1.093  14.678  18.816  0.00  0.00    +0.000 C 
ENDBRANCH  14  28
TORSDOF 8
ENDMDL
MODEL 6
REMARK VINA RESULT:      -6.6      2.403      7.555
REMARK  Name = 
REMARK  14 active torsions:
REMARK  status: ('A' for Active; 'I' for Inactive)
REMARK    1  A    between atoms: C_1  and  C_2
REMARK    2  A    between atoms: C_2  and  C_3
REMARK    3  A    between atoms: C_3  and  C_4
REMARK    4  A    between atoms: C_4  and  C_5
REMARK    5  A    between atoms: C_5  and  C_6
REMARK    6  A    between atoms: C_6  and  C_7
REMARK    7  A    between atoms: C_7  and  C_8
REMARK    8  A    between atoms: C_7  and  C_9
REMARK    9  A    between atoms: C_7  and  C_10
REMARK   10  A    between atoms: C_12  and  O_13
REMARK   11  A    between atoms: C_18  and  C_19
REMARK   12  A    between atoms: C_18  and  C_20
REMARK   13  A    between atoms: C_24  and  O_25
REMARK   14  A    between atoms: O_25  and  C_26
REMARK                            x       y       z     vdW  Elec       q    Type
REMARK                         _______ _______ _______ _____ _____    ______ ____
ROOT
ATOM      1  C   UNL     1       1.235   8.976  19.830  0.00  0.00    +0.000 A 
ATOM      2  C   UNL     1       2.104   8.968  18.737  0.00  0.00    +0.000 A 
ATOM      3  C   UNL     1       2.696   7.783  18.273  0.00  0.00    +0.000 A 
ATOM      4  C   UNL     1       2.459   6.533  18.875  0.00  0.00    +0.000 A 
ATOM      5  C   UNL     1       1.589   6.552  19.976  0.00  0.00    +0.000 A 
ATOM      6  C   UNL     1       0.988   7.741  20.436  0.00  0.00    +0.000 A 
ATOM      7  O   UNL     1       1.225   5.449  20.693  0.00  0.00    +0.000 OA
ATOM      8  C   UNL     1       1.825   4.173  20.406  0.00  0.00    +0.000 C 
ATOM      9  C   UNL     1       2.635   3.807  21.663  0.00  0.00    +0.000 C 
ATOM     10  C   UNL     1       0.627   3.217  20.259  0.00  0.00    +0.000 C 
ATOM     11  C   UNL     1       2.726   4.083  19.179  0.00  0.00    +0.000 A 
ATOM     12  C   UNL     1       3.274   2.837  18.798  0.00  0.00    +0.000 A 
ATOM     13  C   UNL     1       4.121   2.717  17.700  0.00  0.00    +0.000 A 
ATOM     14  C   UNL     1       4.438   3.846  16.963  0.00  0.00    +0.000 A 
ATOM     15  C   UNL     1       3.895   5.079  17.338  0.00  0.00    +0.000 A 
ATOM     16  C   UNL     1       3.037   5.240  18.445  0.00  0.00    +0.000 A 
ENDROOT
BRANCH   1  17
ATOM     17  C   UNL     1       0.587  10.276  20.344  0.00  0.00    +0.000 C 
ATOM     18  C   UNL     1       1.325  11.555  19.870  0.00  0.00    +0.000 C 
ATOM     19  C   UNL     1       0.656  10.281  21.890  0.00  0.00    +0.000 C 
BRANCH  17  20
ATOM     20  C   UNL     1      -0.910  10.373  19.913  0.00  0.00    +0.000 C 
BRANCH  20  21
ATOM     21  C   UNL     1      -1.320  11.750  19.377  0.00  0.00    +0.000 C 
BRANCH  21  22
ATOM     22  C   UNL     1      -1.801  11.689  17.927  0.00  0.00    +0.000 C 
BRANCH  22  23
ATOM     23  C   UNL     1      -1.759  10.243  17.431  0.00  0.00    +0.000 C 
BRANCH  23  25
ATOM     24  C   UNL     1      -3.806  11.100  16.266  0.00  0.00    +0.000 C 
ATOM     25  C   UNL     1      -3.026   9.860  16.673  0.00  0.00    +0.000 C 
ENDBRANCH  23  25
ENDBRANCH  22  23
ENDBRANCH  21  22
ENDBRANCH  20  21
ENDBRANCH  17  20
ENDBRANCH   1  17
BRANCH   3  26
ATOM     26  O   UNL     1       3.531   7.912  17.192  0.00  0.00    +0.000 OA
ATOM     27  H   UNL     1       4.418   8.169  17.488  0.00  0.00    +0.000 HD
ENDBRANCH   3  26
BRANCH  14  28
ATOM     28  O   UNL     1       5.257   3.891  15.868  0.00  0.00    +0.000 OA
ATOM     29  C   UNL     1       6.528   4.497  16.047  0.00  0.00    +0.000 C 
ENDBRANCH  14  28
TORSDOF 8
ENDMDL
MODEL 7
REMARK VINA RESULT:      -6.5      1.408      2.970
REMARK  Name = 
REMARK  14 active torsions:
REMARK  status: ('A' for Active; 'I' for Inactive)
REMARK    1  A    between atoms: C_1  and  C_2
REMARK    2  A    between atoms: C_2  and  C_3
REMARK    3  A    between atoms: C_3  and  C_4
REMARK    4  A    between atoms: C_4  and  C_5
REMARK    5  A    between atoms: C_5  and  C_6
REMARK    6  A    between atoms: C_6  and  C_7
REMARK    7  A    between atoms: C_7  and  C_8
REMARK    8  A    between atoms: C_7  and  C_9
REMARK    9  A    between atoms: C_7  and  C_10
REMARK   10  A    between atoms: C_12  and  O_13
REMARK   11  A    between atoms: C_18  and  C_19
REMARK   12  A    between atoms: C_18  and  C_20
REMARK   13  A    between atoms: C_24  and  O_25
REMARK   14  A    between atoms: O_25  and  C_26
REMARK                            x       y       z     vdW  Elec       q    Type
REMARK                         _______ _______ _______ _____ _____    ______ ____
ROOT
ATOM      1  C   UNL     1       2.700   5.790  18.807  0.00  0.00    +0.000 A 
ATOM      2  C   UNL     1       2.797   6.782  17.829  0.00  0.00    +0.000 A 
ATOM      3  C   UNL     1       2.379   8.100  18.070  0.00  0.00    +0.000 A 
ATOM      4  C   UNL     1       1.834   8.507  19.303  0.00  0.00    +0.000 A 
ATOM      5  C   UNL     1       1.735   7.501  20.277  0.00  0.00    +0.000 A 
ATOM      6  C   UNL     1       2.163   6.180  20.037  0.00  0.00    +0.000 A 
ATOM      7  O   UNL     1       1.242   7.690  21.535  0.00  0.00    +0.000 OA
ATOM      8  C   UNL     1       0.680   8.961  21.906  0.00  0.00    +0.000 C 
ATOM      9  C   UNL     1      -0.814   8.691  22.164  0.00  0.00    +0.000 C 
ATOM     10  C   UNL     1       1.384   9.316  23.228  0.00  0.00    +0.000 C 
ATOM     11  C   UNL     1       0.822  10.107  20.909  0.00  0.00    +0.000 A 
ATOM     12  C   UNL     1       0.364  11.400  21.252  0.00  0.00    +0.000 A 
ATOM     13  C   UNL     1       0.452  12.466  20.360  0.00  0.00    +0.000 A 
ATOM     14  C   UNL     1       0.997  12.256  19.105  0.00  0.00    +0.000 A 
ATOM     15  C   UNL     1       1.452  10.977  18.766  0.00  0.00    +0.000 A 
ATOM     16  C   UNL     1       1.376   9.874  19.640  0.00  0.00    +0.000 A 
ENDROOT
BRANCH   1  17
ATOM     17  C   UNL     1       3.154   4.341  18.543  0.00  0.00    +0.000 C 
ATOM     18  C   UNL     1       2.326   3.633  17.438  0.00  0.00    +0.000 C 
ATOM     19  C   UNL     1       2.948   3.518  19.837  0.00  0.00    +0.000 C 
BRANCH  17  20
ATOM     20  C   UNL     1       4.664   4.282  18.152  0.00  0.00    +0.000 C 
BRANCH  20  21
ATOM     21  C   UNL     1       4.916   4.012  16.663  0.00  0.00    +0.000 C 
BRANCH  21  22
ATOM     22  C   UNL     1       5.511   5.225  15.946  0.00  0.00    +0.000 C 
BRANCH  22  23
ATOM     23  C   UNL     1       6.960   5.426  16.392  0.00  0.00    +0.000 C 
BRANCH  23  25
ATOM     24  C   UNL     1       7.723   6.390  18.577  0.00  0.00    +0.000 C 
ATOM     25  C   UNL     1       7.135   6.703  17.210  0.00  0.00    +0.000 C 
ENDBRANCH  23  25
ENDBRANCH  22  23
ENDBRANCH  21  22
ENDBRANCH  20  21
ENDBRANCH  17  20
ENDBRANCH   1  17
BRANCH   3  26
ATOM     26  O   UNL     1       2.527   8.977  17.026  0.00  0.00    +0.000 OA
ATOM     27  H   UNL     1       2.701   8.490  16.206  0.00  0.00    +0.000 HD
ENDBRANCH   3  26
BRANCH  14  28
ATOM     28  O   UNL     1       1.145  13.195  18.122  0.00  0.00    +0.000 OA
ATOM     29  C   UNL     1       2.028  14.272  18.397  0.00  0.00    +0.000 C 
ENDBRANCH  14  28
TORSDOF 8
ENDMDL
MODEL 8
REMARK VINA RESULT:      -6.5      1.762      3.408
REMARK  Name = 
REMARK  14 active torsions:
REMARK  status: ('A' for Active; 'I' for Inactive)
REMARK    1  A    between atoms: C_1  and  C_2
REMARK    2  A    between atoms: C_2  and  C_3
REMARK    3  A    between atoms: C_3  and  C_4
REMARK    4  A    between atoms: C_4  and  C_5
REMARK    5  A    between atoms: C_5  and  C_6
REMARK    6  A    between atoms: C_6  and  C_7
REMARK    7  A    between atoms: C_7  and  C_8
REMARK    8  A    between atoms: C_7  and  C_9
REMARK    9  A    between atoms: C_7  and  C_10
REMARK   10  A    between atoms: C_12  and  O_13
REMARK   11  A    between atoms: C_18  and  C_19
REMARK   12  A    between atoms: C_18  and  C_20
REMARK   13  A    between atoms: C_24  and  O_25
REMARK   14  A    between atoms: O_25  and  C_26
REMARK                            x       y       z     vdW  Elec       q    Type
REMARK                         _______ _______ _______ _____ _____    ______ ____
ROOT
ATOM      1  C   UNL     1       2.047   7.711  19.195  0.00  0.00    +0.000 A 
ATOM      2  C   UNL     1       1.470   7.587  20.460  0.00  0.00    +0.000 A 
ATOM      3  C   UNL     1       0.694   8.614  21.022  0.00  0.00    +0.000 A 
ATOM      4  C   UNL     1       0.451   9.829  20.354  0.00  0.00    +0.000 A 
ATOM      5  C   UNL     1       1.040   9.946  19.086  0.00  0.00    +0.000 A 
ATOM      6  C   UNL     1       1.812   8.912  18.519  0.00  0.00    +0.000 A 
ATOM      7  O   UNL     1       0.920  11.038  18.276  0.00  0.00    +0.000 OA
ATOM      8  C   UNL     1       0.240  12.214  18.748  0.00  0.00    +0.000 C 
ATOM      9  C   UNL     1       1.318  13.312  18.820  0.00  0.00    +0.000 C 
ATOM     10  C   UNL     1      -0.767  12.543  17.631  0.00  0.00    +0.000 C 
ATOM     11  C   UNL     1      -0.475  12.118  20.092  0.00  0.00    +0.000 A 
ATOM     12  C   UNL     1      -1.230  13.214  20.567  0.00  0.00    +0.000 A 
ATOM     13  C   UNL     1      -1.877  13.175  21.800  0.00  0.00    +0.000 A 
ATOM     14  C   UNL     1      -1.775  12.037  22.582  0.00  0.00    +0.000 A 
ATOM     15  C   UNL     1      -1.029  10.952  22.112  0.00  0.00    +0.000 A 
ATOM     16  C   UNL     1      -0.358  10.956  20.871  0.00  0.00    +0.000 A 
ENDROOT
BRANCH   1  17
ATOM     17  C   UNL     1       2.903   6.587  18.578  0.00  0.00    +0.000 C 
ATOM     18  C   UNL     1       3.773   5.840  19.623  0.00  0.00    +0.000 C 
ATOM     19  C   UNL     1       3.886   7.220  17.565  0.00  0.00    +0.000 C 
BRANCH  17  20
ATOM     20  C   UNL     1       2.016   5.546  17.828  0.00  0.00    +0.000 C 
BRANCH  20  21
ATOM     21  C   UNL     1       2.500   4.097  17.962  0.00  0.00    +0.000 C 
BRANCH  21  22
ATOM     22  C   UNL     1       1.349   3.120  18.205  0.00  0.00    +0.000 C 
BRANCH  22  23
ATOM     23  C   UNL     1       1.564   2.391  19.531  0.00  0.00    +0.000 C 
BRANCH  23  25
ATOM     24  C   UNL     1       2.127   3.208  21.833  0.00  0.00    +0.000 C 
ATOM     25  C   UNL     1       1.088   3.216  20.723  0.00  0.00    +0.000 C 
ENDBRANCH  23  25
ENDBRANCH  22  23
ENDBRANCH  21  22
ENDBRANCH  20  21
ENDBRANCH  17  20
ENDBRANCH   1  17
BRANCH   3  26
ATOM     26  O   UNL     1       0.186   8.367  22.271  0.00  0.00    +0.000 OA
ATOM     27  H   UNL     1       0.529   9.017  22.904  0.00  0.00    +0.000 HD
ENDBRANCH   3  26
BRANCH  14  28
ATOM     28  O   UNL     1      -2.343  11.850  23.812  0.00  0.00    +0.000 OA
ATOM     29  C   UNL     1      -3.596  12.477  24.038  0.00  0.00    +0.000 C 
ENDBRANCH  14  28
TORSDOF 8
ENDMDL
MODEL 9
REMARK VINA RESULT:      -6.4      3.453      8.242
REMARK  Name = 
REMARK  14 active torsions:
REMARK  status: ('A' for Active; 'I' for Inactive)
REMARK    1  A    between atoms: C_1  and  C_2
REMARK    2  A    between atoms: C_2  and  C_3
REMARK    3  A    between atoms: C_3  and  C_4
REMARK    4  A    between atoms: C_4  and  C_5
REMARK    5  A    between atoms: C_5  and  C_6
REMARK    6  A    between atoms: C_6  and  C_7
REMARK    7  A    between atoms: C_7  and  C_8
REMARK    8  A    between atoms: C_7  and  C_9
REMARK    9  A    between atoms: C_7  and  C_10
REMARK   10  A    between atoms: C_12  and  O_13
REMARK   11  A    between atoms: C_18  and  C_19
REMARK   12  A    between atoms: C_18  and  C_20
REMARK   13  A    between atoms: C_24  and  O_25
REMARK   14  A    between atoms: O_25  and  C_26
REMARK                            x       y       z     vdW  Elec       q    Type
REMARK                         _______ _______ _______ _____ _____    ______ ____
ROOT
ATOM      1  C   UNL     1       2.750   3.970  19.479  0.00  0.00    +0.000 A 
ATOM      2  C   UNL     1       2.290   3.542  18.232  0.00  0.00    +0.000 A 
ATOM      3  C   UNL     1       3.094   3.611  17.083  0.00  0.00    +0.000 A 
ATOM      4  C   UNL     1       4.407   4.116  17.110  0.00  0.00    +0.000 A 
ATOM      5  C   UNL     1       4.859   4.549  18.366  0.00  0.00    +0.000 A 
ATOM      6  C   UNL     1       4.054   4.472  19.520  0.00  0.00    +0.000 A 
ATOM      7  O   UNL     1       6.100   5.064  18.605  0.00  0.00    +0.000 OA
ATOM      8  C   UNL     1       7.008   5.294  17.513  0.00  0.00    +0.000 C 
ATOM      9  C   UNL     1       7.201   6.820  17.452  0.00  0.00    +0.000 C 
ATOM     10  C   UNL     1       8.317   4.619  17.961  0.00  0.00    +0.000 C 
ATOM     11  C   UNL     1       6.594   4.781  16.138  0.00  0.00    +0.000 A 
ATOM     12  C   UNL     1       7.481   4.901  15.044  0.00  0.00    +0.000 A 
ATOM     13  C   UNL     1       7.130   4.469  13.768  0.00  0.00    +0.000 A 
ATOM     14  C   UNL     1       5.880   3.909  13.563  0.00  0.00    +0.000 A 
ATOM     15  C   UNL     1       5.002   3.788  14.645  0.00  0.00    +0.000 A 
ATOM     16  C   UNL     1       5.321   4.218  15.949  0.00  0.00    +0.000 A 
ENDROOT
BRANCH   1  17
ATOM     17  C   UNL     1       1.868   3.900  20.740  0.00  0.00    +0.000 C 
ATOM     18  C   UNL     1       2.406   2.911  21.807  0.00  0.00    +0.000 C 
ATOM     19  C   UNL     1       0.468   3.382  20.332  0.00  0.00    +0.000 C 
BRANCH  17  20
ATOM     20  C   UNL     1       1.705   5.306  21.397  0.00  0.00    +0.000 C 
BRANCH  20  21
ATOM     21  C   UNL     1       1.089   6.363  20.473  0.00  0.00    +0.000 C 
BRANCH  21  22
ATOM     22  C   UNL     1       2.059   7.505  20.169  0.00  0.00    +0.000 C 
BRANCH  22  23
ATOM     23  C   UNL     1       2.440   7.476  18.688  0.00  0.00    +0.000 C 
BRANCH  23  25
ATOM     24  C   UNL     1       1.356   9.736  18.750  0.00  0.00    +0.000 C 
ATOM     25  C   UNL     1       1.691   8.533  17.882  0.00  0.00    +0.000 C 
ENDBRANCH  23  25
ENDBRANCH  22  23
ENDBRANCH  21  22
ENDBRANCH  20  21
ENDBRANCH  17  20
ENDBRANCH   1  17
BRANCH   3  26
ATOM     26  O   UNL     1       2.521   3.159  15.922  0.00  0.00    +0.000 OA
ATOM     27  H   UNL     1       3.202   2.786  15.340  0.00  0.00    +0.000 HD
ENDBRANCH   3  26
BRANCH  14  28
ATOM     28  O   UNL     1       5.389   3.446  12.373  0.00  0.00    +0.000 OA
ATOM     29  C   UNL     1       6.241   2.598  11.618  0.00  0.00    +0.000 C 
ENDBRANCH  14  28
TORSDOF 8
ENDMDL
