MODEL 1
REMARK VINA RESULT:      -8.8      0.000      0.000
REMARK  Name = 
REMARK  9 active torsions:
REMARK  status: ('A' for Active; 'I' for Inactive)
REMARK    1  A    between atoms: C_1  and  C_2
REMARK    2  A    between atoms: C_2  and  C_3
REMARK    3  A    between atoms: C_2  and  C_4
REMARK    4  A    between atoms: C_4  and  N_5
REMARK    5  A    between atoms: C_4  and  C_27
REMARK    6  A    between atoms: N_5  and  S_6
REMARK    7  A    between atoms: S_6  and  C_9
REMARK    8  A    between atoms: C_19  and  N_20
REMARK    9  A    between atoms: C_27  and  O_29
REMARK                            x       y       z     vdW  Elec       q    Type
REMARK                         _______ _______ _______ _____ _____    ______ ____
ROOT
ATOM      1  C   UNL     1       3.536   5.063  18.864  0.00  0.00    +0.000 A 
ATOM      2  C   UNL     1       2.915   5.014  20.118  0.00  0.00    +0.000 A 
ATOM      3  C   UNL     1       2.192   6.114  20.600  0.00  0.00    +0.000 A 
ATOM      4  C   UNL     1       2.084   7.266  19.796  0.00  0.00    +0.000 A 
ATOM      5  C   UNL     1       2.718   7.270  18.556  0.00  0.00    +0.000 A 
ATOM      6  C   UNL     1       3.455   6.200  18.046  0.00  0.00    +0.000 A 
ATOM      7  O   UNL     1       2.497   8.454  17.917  0.00  0.00    +0.000 OA
ATOM      8  C   UNL     1       1.704   9.209  18.728  0.00  0.00    +0.000 A 
ATOM      9  C   UNL     1       1.224  10.483  18.433  0.00  0.00    +0.000 A 
ATOM     10  C   UNL     1       0.390  11.079  19.389  0.00  0.00    +0.000 A 
ATOM     11  C   UNL     1       0.066  10.425  20.590  0.00  0.00    +0.000 A 
ATOM     12  C   UNL     1       0.592   9.146  20.865  0.00  0.00    +0.000 A 
ATOM     13  C   UNL     1       1.420   8.524  19.904  0.00  0.00    +0.000 A 
ENDROOT
BRANCH  11  14
ATOM     14  N   UNL     1      -0.818  11.054  21.510  0.00  0.00    +0.000 N 
ATOM     15  C   UNL     1      -0.999  10.804  22.850  0.00  0.00    +0.000 A 
ATOM     16  N   UNL     1      -1.953  11.563  23.338  0.00  0.00    +0.000 NA
ATOM     17  C   UNL     1      -2.337  12.291  22.255  0.00  0.00    +0.000 A 
ATOM     18  N   UNL     1      -1.670  12.038  21.128  0.00  0.00    +0.000 NA
ENDBRANCH  11  14
BRANCH   1  19
ATOM     19  S   UNL     1       4.326   3.595  18.251  0.00  0.00    +0.000 S 
ATOM     20  O   UNL     1       3.861   3.332  16.912  0.00  0.00    +0.000 OA
ATOM     21  O   UNL     1       4.263   2.595  19.288  0.00  0.00    +0.000 OA
BRANCH  19  22
ATOM     22  N   UNL     1       5.950   3.998  18.131  0.00  0.00    +0.000 NA
ATOM     23  H   UNL     1       6.607   3.467  18.700  0.00  0.00    +0.000 HD
BRANCH  22  24
ATOM     24  C   UNL     1       6.378   5.085  17.227  0.00  0.00    +0.000 C 
BRANCH  24  26
ATOM     25  C   UNL     1       7.692   5.730  19.365  0.00  0.00    +0.000 C 
ATOM     26  C   UNL     1       7.504   5.944  17.857  0.00  0.00    +0.000 C 
ATOM     27  C   UNL     1       7.319   7.436  17.564  0.00  0.00    +0.000 C 
ENDBRANCH  24  26
BRANCH  24  28
ATOM     28  C   UNL     1       6.843   4.549  15.871  0.00  0.00    +0.000 C 
ATOM     29  O   UNL     1       7.611   5.144  15.131  0.00  0.00    +0.000 OA
BRANCH  28  30
ATOM     30  O   UNL     1       6.407   3.292  15.602  0.00  0.00    +0.000 OA
ATOM     31  H   UNL     1       7.147   2.656  15.653  0.00  0.00    +0.000 HD
ENDBRANCH  28  30
ENDBRANCH  24  28
ENDBRANCH  22  24
ENDBRANCH  19  22
ENDBRANCH   1  19
TORSDOF 7
ENDMDL
MODEL 2
REMARK VINA RESULT:      -8.5      2.643      4.089
REMARK  Name = 
REMARK  9 active torsions:
REMARK  status: ('A' for Active; 'I' for Inactive)
REMARK    1  A    between atoms: C_1  and  C_2
REMARK    2  A    between atoms: C_2  and  C_3
REMARK    3  A    between atoms: C_2  and  C_4
REMARK    4  A    between atoms: C_4  and  N_5
REMARK    5  A    between atoms: C_4  and  C_27
REMARK    6  A    between atoms: N_5  and  S_6
REMARK    7  A    between atoms: S_6  and  C_9
REMARK    8  A    between atoms: C_19  and  N_20
REMARK    9  A    between atoms: C_27  and  O_29
REMARK                            x       y       z     vdW  Elec       q    Type
REMARK                         _______ _______ _______ _____ _____    ______ ____
ROOT
ATOM      1  C   UNL     1       2.876   6.670  18.781  0.00  0.00    +0.000 A 
ATOM      2  C   UNL     1       2.617   7.703  17.873  0.00  0.00    +0.000 A 
ATOM      3  C   UNL     1       1.827   8.800  18.245  0.00  0.00    +0.000 A 
ATOM      4  C   UNL     1       1.309   8.855  19.554  0.00  0.00    +0.000 A 
ATOM      5  C   UNL     1       1.590   7.804  20.423  0.00  0.00    +0.000 A 
ATOM      6  C   UNL     1       2.364   6.692  20.087  0.00  0.00    +0.000 A 
ATOM      7  O   UNL     1       1.021   8.033  21.640  0.00  0.00    +0.000 OA
ATOM      8  C   UNL     1       0.388   9.238  21.571  0.00  0.00    +0.000 A 
ATOM      9  C   UNL     1      -0.298   9.854  22.615  0.00  0.00    +0.000 A 
ATOM     10  C   UNL     1      -0.851  11.114  22.348  0.00  0.00    +0.000 A 
ATOM     11  C   UNL     1      -0.726  11.718  21.085  0.00  0.00    +0.000 A 
ATOM     12  C   UNL     1      -0.046  11.052  20.045  0.00  0.00    +0.000 A 
ATOM     13  C   UNL     1       0.532   9.790  20.303  0.00  0.00    +0.000 A 
ENDROOT
BRANCH  11  14
ATOM     14  N   UNL     1      -1.269  13.016  20.877  0.00  0.00    +0.000 N 
ATOM     15  C   UNL     1      -0.642  14.160  20.444  0.00  0.00    +0.000 A 
ATOM     16  N   UNL     1      -1.478  15.173  20.437  0.00  0.00    +0.000 NA
ATOM     17  C   UNL     1      -2.637  14.605  20.868  0.00  0.00    +0.000 A 
ATOM     18  N   UNL     1      -2.572  13.298  21.130  0.00  0.00    +0.000 NA
ENDBRANCH  11  14
BRANCH   1  19
ATOM     19  S   UNL     1       3.990   5.374  18.297  0.00  0.00    +0.000 S 
ATOM     20  O   UNL     1       5.062   5.289  19.256  0.00  0.00    +0.000 OA
ATOM     21  O   UNL     1       4.243   5.516  16.885  0.00  0.00    +0.000 OA
BRANCH  19  22
ATOM     22  N   UNL     1       3.096   3.961  18.441  0.00  0.00    +0.000 NA
ATOM     23  H   UNL     1       2.508   3.698  17.653  0.00  0.00    +0.000 HD
BRANCH  22  24
ATOM     24  C   UNL     1       3.182   3.154  19.676  0.00  0.00    +0.000 C 
BRANCH  24  26
ATOM     25  C   UNL     1       0.725   2.723  18.978  0.00  0.00    +0.000 C 
ATOM     26  C   UNL     1       1.822   2.499  20.026  0.00  0.00    +0.000 C 
ATOM     27  C   UNL     1       1.317   2.929  21.407  0.00  0.00    +0.000 C 
ENDBRANCH  24  26
BRANCH  24  28
ATOM     28  C   UNL     1       4.260   2.073  19.575  0.00  0.00    +0.000 C 
ATOM     29  O   UNL     1       5.111   1.880  20.431  0.00  0.00    +0.000 OA
BRANCH  28  30
ATOM     30  O   UNL     1       4.127   1.266  18.492  0.00  0.00    +0.000 OA
ATOM     31  H   UNL     1       4.964   0.796  18.311  0.00  0.00    +0.000 HD
ENDBRANCH  28  30
ENDBRANCH  24  28
ENDBRANCH  22  24
ENDBRANCH  19  22
ENDBRANCH   1  19
TORSDOF 7
ENDMDL
MODEL 3
REMARK VINA RESULT:      -8.5      1.446      2.207
REMARK  Name = 
REMARK  9 active torsions:
REMARK  status: ('A' for Active; 'I' for Inactive)
REMARK    1  A    between atoms: C_1  and  C_2
REMARK    2  A    between atoms: C_2  and  C_3
REMARK    3  A    between atoms: C_2  and  C_4
REMARK    4  A    between atoms: C_4  and  N_5
REMARK    5  A    between atoms: C_4  and  C_27
REMARK    6  A    between atoms: N_5  and  S_6
REMARK    7  A    between atoms: S_6  and  C_9
REMARK    8  A    between atoms: C_19  and  N_20
REMARK    9  A    between atoms: C_27  and  O_29
REMARK                            x       y       z     vdW  Elec       q    Type
REMARK                         _______ _______ _______ _____ _____    ______ ____
ROOT
ATOM      1  C   UNL     1       3.557   5.019  18.685  0.00  0.00    +0.000 A 
ATOM      2  C   UNL     1       3.608   6.005  17.692  0.00  0.00    +0.000 A 
ATOM      3  C   UNL     1       2.965   7.237  17.876  0.00  0.00    +0.000 A 
ATOM      4  C   UNL     1       2.278   7.476  19.083  0.00  0.00    +0.000 A 
ATOM      5  C   UNL     1       2.251   6.466  20.041  0.00  0.00    +0.000 A 
ATOM      6  C   UNL     1       2.870   5.224  19.891  0.00  0.00    +0.000 A 
ATOM      7  O   UNL     1       1.557   6.876  21.139  0.00  0.00    +0.000 OA
ATOM      8  C   UNL     1       1.149   8.155  20.906  0.00  0.00    +0.000 A 
ATOM      9  C   UNL     1       0.430   8.951  21.795  0.00  0.00    +0.000 A 
ATOM     10  C   UNL     1       0.138  10.257  21.377  0.00  0.00    +0.000 A 
ATOM     11  C   UNL     1       0.545  10.733  20.118  0.00  0.00    +0.000 A 
ATOM     12  C   UNL     1       1.249   9.889  19.235  0.00  0.00    +0.000 A 
ATOM     13  C   UNL     1       1.566   8.576  19.648  0.00  0.00    +0.000 A 
ENDROOT
BRANCH  11  14
ATOM     14  N   UNL     1       0.261  12.079  19.758  0.00  0.00    +0.000 N 
ATOM     15  C   UNL     1      -0.498  13.014  20.422  0.00  0.00    +0.000 A 
ATOM     16  N   UNL     1      -0.567  14.129  19.732  0.00  0.00    +0.000 NA
ATOM     17  C   UNL     1       0.185  13.847  18.634  0.00  0.00    +0.000 A 
ATOM     18  N   UNL     1       0.725  12.628  18.607  0.00  0.00    +0.000 NA
ENDBRANCH  11  14
BRANCH   1  19
ATOM     19  S   UNL     1       4.499   3.532  18.452  0.00  0.00    +0.000 S 
ATOM     20  O   UNL     1       4.077   2.891  17.231  0.00  0.00    +0.000 OA
ATOM     21  O   UNL     1       4.526   2.827  19.709  0.00  0.00    +0.000 OA
BRANCH  19  22
ATOM     22  N   UNL     1       6.074   4.053  18.208  0.00  0.00    +0.000 NA
ATOM     23  H   UNL     1       6.805   3.608  18.761  0.00  0.00    +0.000 HD
BRANCH  22  24
ATOM     24  C   UNL     1       6.358   5.117  17.223  0.00  0.00    +0.000 C 
BRANCH  24  26
ATOM     25  C   UNL     1       7.805   5.916  19.217  0.00  0.00    +0.000 C 
ATOM     26  C   UNL     1       7.435   6.103  17.740  0.00  0.00    +0.000 C 
ATOM     27  C   UNL     1       7.048   7.562  17.482  0.00  0.00    +0.000 C 
ENDBRANCH  24  26
BRANCH  24  28
ATOM     28  C   UNL     1       6.796   4.542  15.874  0.00  0.00    +0.000 C 
ATOM     29  O   UNL     1       7.544   5.119  15.100  0.00  0.00    +0.000 OA
BRANCH  28  30
ATOM     30  O   UNL     1       6.363   3.275  15.653  0.00  0.00    +0.000 OA
ATOM     31  H   UNL     1       6.760   2.915  14.837  0.00  0.00    +0.000 HD
ENDBRANCH  28  30
ENDBRANCH  24  28
ENDBRANCH  22  24
ENDBRANCH  19  22
ENDBRANCH   1  19
TORSDOF 7
ENDMDL
MODEL 4
REMARK VINA RESULT:      -8.4      2.586      3.679
REMARK  Name = 
REMARK  9 active torsions:
REMARK  status: ('A' for Active; 'I' for Inactive)
REMARK    1  A    between atoms: C_1  and  C_2
REMARK    2  A    between atoms: C_2  and  C_3
REMARK    3  A    between atoms: C_2  and  C_4
REMARK    4  A    between atoms: C_4  and  N_5
REMARK    5  A    between atoms: C_4  and  C_27
REMARK    6  A    between atoms: N_5  and  S_6
REMARK    7  A    between atoms: S_6  and  C_9
REMARK    8  A    between atoms: C_19  and  N_20
REMARK    9  A    between atoms: C_27  and  O_29
REMARK                            x       y       z     vdW  Elec       q    Type
REMARK                         _______ _______ _______ _____ _____    ______ ____
ROOT
ATOM      1  C   UNL     1       2.865   6.814  19.064  0.00  0.00    +0.000 A 
ATOM      2  C   UNL     1       2.280   6.687  20.330  0.00  0.00    +0.000 A 
ATOM      3  C   UNL     1       1.418   7.678  20.821  0.00  0.00    +0.000 A 
ATOM      4  C   UNL     1       1.133   8.797  20.014  0.00  0.00    +0.000 A 
ATOM      5  C   UNL     1       1.738   8.882  18.763  0.00  0.00    +0.000 A 
ATOM      6  C   UNL     1       2.610   7.923  18.244  0.00  0.00    +0.000 A 
ATOM      7  O   UNL     1       1.341  10.018  18.123  0.00  0.00    +0.000 OA
ATOM      8  C   UNL     1       0.464  10.660  18.945  0.00  0.00    +0.000 A 
ATOM      9  C   UNL     1      -0.196  11.851  18.654  0.00  0.00    +0.000 A 
ATOM     10  C   UNL     1      -1.088  12.331  19.624  0.00  0.00    +0.000 A 
ATOM     11  C   UNL     1      -1.295  11.645  20.834  0.00  0.00    +0.000 A 
ATOM     12  C   UNL     1      -0.588  10.455  21.104  0.00  0.00    +0.000 A 
ATOM     13  C   UNL     1       0.301   9.950  20.130  0.00  0.00    +0.000 A 
ENDROOT
BRANCH  11  14
ATOM     14  N   UNL     1      -2.241  12.151  21.767  0.00  0.00    +0.000 N 
ATOM     15  C   UNL     1      -2.300  11.968  23.128  0.00  0.00    +0.000 A 
ATOM     16  N   UNL     1      -3.364  12.553  23.629  0.00  0.00    +0.000 NA
ATOM     17  C   UNL     1      -3.942  13.109  22.530  0.00  0.00    +0.000 A 
ATOM     18  N   UNL     1      -3.295  12.913  21.380  0.00  0.00    +0.000 NA
ENDBRANCH  11  14
BRANCH   1  19
ATOM     19  S   UNL     1       3.843   5.468  18.443  0.00  0.00    +0.000 S 
ATOM     20  O   UNL     1       4.951   5.237  19.336  0.00  0.00    +0.000 OA
ATOM     21  O   UNL     1       4.038   5.681  17.030  0.00  0.00    +0.000 OA
BRANCH  19  22
ATOM     22  N   UNL     1       2.844   4.125  18.549  0.00  0.00    +0.000 NA
ATOM     23  H   UNL     1       2.121   4.023  17.839  0.00  0.00    +0.000 HD
BRANCH  22  24
ATOM     24  C   UNL     1       3.032   3.147  19.641  0.00  0.00    +0.000 C 
BRANCH  24  26
ATOM     25  C   UNL     1       0.491   2.898  19.201  0.00  0.00    +0.000 C 
ATOM     26  C   UNL     1       1.685   2.524  20.088  0.00  0.00    +0.000 C 
ATOM     27  C   UNL     1       1.365   2.842  21.551  0.00  0.00    +0.000 C 
ENDBRANCH  24  26
BRANCH  24  28
ATOM     28  C   UNL     1       4.006   2.034  19.247  0.00  0.00    +0.000 C 
ATOM     29  O   UNL     1       3.735   1.141  18.460  0.00  0.00    +0.000 OA
BRANCH  28  30
ATOM     30  O   UNL     1       5.249   2.184  19.772  0.00  0.00    +0.000 OA
ATOM     31  H   UNL     1       5.320   3.036  20.244  0.00  0.00    +0.000 HD
ENDBRANCH  28  30
ENDBRANCH  24  28
ENDBRANCH  22  24
ENDBRANCH  19  22
ENDBRANCH   1  19
TORSDOF 7
ENDMDL
MODEL 5
REMARK VINA RESULT:      -8.3      2.694      4.189
REMARK  Name = 
REMARK  9 active torsions:
REMARK  status: ('A' for Active; 'I' for Inactive)
REMARK    1  A    between atoms: C_1  and  C_2
REMARK    2  A    between atoms: C_2  and  C_3
REMARK    3  A    between atoms: C_2  and  C_4
REMARK    4  A    between atoms: C_4  and  N_5
REMARK    5  A    between atoms: C_4  and  C_27
REMARK    6  A    between atoms: N_5  and  S_6
REMARK    7  A    between atoms: S_6  and  C_9
REMARK    8  A    between atoms: C_19  and  N_20
REMARK    9  A    between atoms: C_27  and  O_29
REMARK                            x       y       z     vdW  Elec       q    Type
REMARK                         _______ _______ _______ _____ _____    ______ ____
ROOT
ATOM      1  C   UNL     1       2.671   7.119  18.893  0.00  0.00    +0.000 A 
ATOM      2  C   UNL     1       2.311   8.165  18.035  0.00  0.00    +0.000 A 
ATOM      3  C   UNL     1       1.479   9.201  18.482  0.00  0.00    +0.000 A 
ATOM      4  C   UNL     1       1.024   9.185  19.816  0.00  0.00    +0.000 A 
ATOM      5  C   UNL     1       1.406   8.124  20.633  0.00  0.00    +0.000 A 
ATOM      6  C   UNL     1       2.224   7.070  20.222  0.00  0.00    +0.000 A 
ATOM      7  O   UNL     1       0.885   8.281  21.883  0.00  0.00    +0.000 OA
ATOM      8  C   UNL     1       0.183   9.448  21.886  0.00  0.00    +0.000 A 
ATOM      9  C   UNL     1      -0.484   9.989  22.981  0.00  0.00    +0.000 A 
ATOM     10  C   UNL     1      -1.120  11.224  22.786  0.00  0.00    +0.000 A 
ATOM     11  C   UNL     1      -1.091  11.874  21.540  0.00  0.00    +0.000 A 
ATOM     12  C   UNL     1      -0.426  11.283  20.446  0.00  0.00    +0.000 A 
ATOM     13  C   UNL     1       0.233  10.048  20.632  0.00  0.00    +0.000 A 
ENDROOT
BRANCH  11  14
ATOM     14  N   UNL     1      -1.716  13.145  21.404  0.00  0.00    +0.000 N 
ATOM     15  C   UNL     1      -1.499  14.122  20.462  0.00  0.00    +0.000 A 
ATOM     16  N   UNL     1      -2.236  15.179  20.711  0.00  0.00    +0.000 NA
ATOM     17  C   UNL     1      -2.919  14.808  21.828  0.00  0.00    +0.000 A 
ATOM     18  N   UNL     1      -2.657  13.580  22.278  0.00  0.00    +0.000 NA
ENDBRANCH  11  14
BRANCH   1  19
ATOM     19  S   UNL     1       3.831   5.906  18.312  0.00  0.00    +0.000 S 
ATOM     20  O   UNL     1       4.898   5.774  19.273  0.00  0.00    +0.000 OA
ATOM     21  O   UNL     1       4.090   6.177  16.920  0.00  0.00    +0.000 OA
BRANCH  19  22
ATOM     22  N   UNL     1       2.984   4.459  18.326  0.00  0.00    +0.000 NA
ATOM     23  H   UNL     1       2.432   4.232  17.500  0.00  0.00    +0.000 HD
BRANCH  22  24
ATOM     24  C   UNL     1       3.056   3.569  19.503  0.00  0.00    +0.000 C 
BRANCH  24  26
ATOM     25  C   UNL     1       1.665   2.534  21.428  0.00  0.00    +0.000 C 
ATOM     26  C   UNL     1       1.650   3.276  20.085  0.00  0.00    +0.000 C 
ATOM     27  C   UNL     1       0.762   2.525  19.088  0.00  0.00    +0.000 C 
ENDBRANCH  24  26
BRANCH  24  28
ATOM     28  C   UNL     1       3.761   2.251  19.179  0.00  0.00    +0.000 C 
ATOM     29  O   UNL     1       3.440   1.517  18.256  0.00  0.00    +0.000 OA
BRANCH  28  30
ATOM     30  O   UNL     1       4.856   2.013  19.945  0.00  0.00    +0.000 OA
ATOM     31  H   UNL     1       4.610   1.978  20.890  0.00  0.00    +0.000 HD
ENDBRANCH  28  30
ENDBRANCH  24  28
ENDBRANCH  22  24
ENDBRANCH  19  22
ENDBRANCH   1  19
TORSDOF 7
ENDMDL
MODEL 6
REMARK VINA RESULT:      -8.2      2.087      3.438
REMARK  Name = 
REMARK  9 active torsions:
REMARK  status: ('A' for Active; 'I' for Inactive)
REMARK    1  A    between atoms: C_1  and  C_2
REMARK    2  A    between atoms: C_2  and  C_3
REMARK    3  A    between atoms: C_2  and  C_4
REMARK    4  A    between atoms: C_4  and  N_5
REMARK    5  A    between atoms: C_4  and  C_27
REMARK    6  A    between atoms: N_5  and  S_6
REMARK    7  A    between atoms: S_6  and  C_9
REMARK    8  A    between atoms: C_19  and  N_20
REMARK    9  A    between atoms: C_27  and  O_29
REMARK                            x       y       z     vdW  Elec       q    Type
REMARK                         _______ _______ _______ _____ _____    ______ ____
ROOT
ATOM      1  C   UNL     1       3.567   6.054  18.411  0.00  0.00    +0.000 A 
ATOM      2  C   UNL     1       2.978   5.900  19.672  0.00  0.00    +0.000 A 
ATOM      3  C   UNL     1       2.165   6.909  20.208  0.00  0.00    +0.000 A 
ATOM      4  C   UNL     1       1.936   8.076  19.452  0.00  0.00    +0.000 A 
ATOM      5  C   UNL     1       2.543   8.186  18.204  0.00  0.00    +0.000 A 
ATOM      6  C   UNL     1       3.366   7.209  17.640  0.00  0.00    +0.000 A 
ATOM      7  O   UNL     1       2.201   9.367  17.616  0.00  0.00    +0.000 OA
ATOM      8  C   UNL     1       1.358  10.015  18.468  0.00  0.00    +0.000 A 
ATOM      9  C   UNL     1       0.756  11.248  18.231  0.00  0.00    +0.000 A 
ATOM     10  C   UNL     1      -0.110  11.728  19.223  0.00  0.00    +0.000 A 
ATOM     11  C   UNL     1      -0.349  11.001  20.402  0.00  0.00    +0.000 A 
ATOM     12  C   UNL     1       0.298   9.767  20.618  0.00  0.00    +0.000 A 
ATOM     13  C   UNL     1       1.161   9.262  19.620  0.00  0.00    +0.000 A 
ENDROOT
BRANCH  11  14
ATOM     14  N   UNL     1      -1.269  11.510  21.360  0.00  0.00    +0.000 N 
ATOM     15  C   UNL     1      -2.293  12.412  21.186  0.00  0.00    +0.000 A 
ATOM     16  N   UNL     1      -2.881  12.672  22.331  0.00  0.00    +0.000 NA
ATOM     17  C   UNL     1      -2.190  11.890  23.204  0.00  0.00    +0.000 A 
ATOM     18  N   UNL     1      -1.217  11.152  22.667  0.00  0.00    +0.000 NA
ENDBRANCH  11  14
BRANCH   1  19
ATOM     19  S   UNL     1       4.477   4.691  17.728  0.00  0.00    +0.000 S 
ATOM     20  O   UNL     1       5.697   4.515  18.477  0.00  0.00    +0.000 OA
ATOM     21  O   UNL     1       4.481   4.838  16.294  0.00  0.00    +0.000 OA
BRANCH  19  22
ATOM     22  N   UNL     1       3.524   3.343  18.028  0.00  0.00    +0.000 NA
ATOM     23  H   UNL     1       3.034   2.932  17.235  0.00  0.00    +0.000 HD
BRANCH  22  24
ATOM     24  C   UNL     1       3.422   2.798  19.397  0.00  0.00    +0.000 C 
BRANCH  24  26
ATOM     25  C   UNL     1       0.921   2.789  18.722  0.00  0.00    +0.000 C 
ATOM     26  C   UNL     1       1.989   2.298  19.708  0.00  0.00    +0.000 C 
ATOM     27  C   UNL     1       1.563   2.630  21.141  0.00  0.00    +0.000 C 
ENDBRANCH  24  26
BRANCH  24  28
ATOM     28  C   UNL     1       4.423   1.666  19.636  0.00  0.00    +0.000 C 
ATOM     29  O   UNL     1       5.148   1.595  20.616  0.00  0.00    +0.000 OA
BRANCH  28  30
ATOM     30  O   UNL     1       4.361   0.677  18.708  0.00  0.00    +0.000 OA
ATOM     31  H   UNL     1       3.491   0.234  18.738  0.00  0.00    +0.000 HD
ENDBRANCH  28  30
ENDBRANCH  24  28
ENDBRANCH  22  24
ENDBRANCH  19  22
ENDBRANCH   1  19
TORSDOF 7
ENDMDL
MODEL 7
REMARK VINA RESULT:      -8.2      2.804      4.173
REMARK  Name = 
REMARK  9 active torsions:
REMARK  status: ('A' for Active; 'I' for Inactive)
REMARK    1  A    between atoms: C_1  and  C_2
REMARK    2  A    between atoms: C_2  and  C_3
REMARK    3  A    between atoms: C_2  and  C_4
REMARK    4  A    between atoms: C_4  and  N_5
REMARK    5  A    between atoms: C_4  and  C_27
REMARK    6  A    between atoms: N_5  and  S_6
REMARK    7  A    between atoms: S_6  and  C_9
REMARK    8  A    between atoms: C_19  and  N_20
REMARK    9  A    between atoms: C_27  and  O_29
REMARK                            x       y       z     vdW  Elec       q    Type
REMARK                         _______ _______ _______ _____ _____    ______ ____
ROOT
ATOM      1  C   UNL     1       2.542   7.015  19.082  0.00  0.00    +0.000 A 
ATOM      2  C   UNL     1       2.302   8.110  18.244  0.00  0.00    +0.000 A 
ATOM      3  C   UNL     1       1.537   9.197  18.691  0.00  0.00    +0.000 A 
ATOM      4  C   UNL     1       1.025   9.178  20.004  0.00  0.00    +0.000 A 
ATOM      5  C   UNL     1       1.287   8.067  20.801  0.00  0.00    +0.000 A 
ATOM      6  C   UNL     1       2.036   6.963  20.390  0.00  0.00    +0.000 A 
ATOM      7  O   UNL     1       0.728   8.228  22.033  0.00  0.00    +0.000 OA
ATOM      8  C   UNL     1       0.120   9.447  22.046  0.00  0.00    +0.000 A 
ATOM      9  C   UNL     1      -0.549  10.008  23.131  0.00  0.00    +0.000 A 
ATOM     10  C   UNL     1      -1.076  11.295  22.950  0.00  0.00    +0.000 A 
ATOM     11  C   UNL     1      -0.943  11.977  21.728  0.00  0.00    +0.000 A 
ATOM     12  C   UNL     1      -0.281  11.366  20.643  0.00  0.00    +0.000 A 
ATOM     13  C   UNL     1       0.271  10.078  20.815  0.00  0.00    +0.000 A 
ENDROOT
BRANCH  11  14
ATOM     14  N   UNL     1      -1.459  13.296  21.608  0.00  0.00    +0.000 N 
ATOM     15  C   UNL     1      -1.544  14.286  22.559  0.00  0.00    +0.000 A 
ATOM     16  N   UNL     1      -2.139  15.349  22.070  0.00  0.00    +0.000 NA
ATOM     17  C   UNL     1      -2.402  14.980  20.787  0.00  0.00    +0.000 A 
ATOM     18  N   UNL     1      -1.994  13.756  20.448  0.00  0.00    +0.000 NA
ENDBRANCH  11  14
BRANCH   1  19
ATOM     19  S   UNL     1       3.627   5.730  18.509  0.00  0.00    +0.000 S 
ATOM     20  O   UNL     1       4.612   5.455  19.525  0.00  0.00    +0.000 OA
ATOM     21  O   UNL     1       4.001   6.042  17.152  0.00  0.00    +0.000 OA
BRANCH  19  22
ATOM     22  N   UNL     1       2.656   4.367  18.393  0.00  0.00    +0.000 NA
ATOM     23  H   UNL     1       1.859   4.413  17.760  0.00  0.00    +0.000 HD
BRANCH  22  24
ATOM     24  C   UNL     1       2.972   3.163  19.189  0.00  0.00    +0.000 C 
BRANCH  24  26
ATOM     25  C   UNL     1       0.514   3.448  19.956  0.00  0.00    +0.000 C 
ATOM     26  C   UNL     1       1.911   2.912  20.291  0.00  0.00    +0.000 C 
ATOM     27  C   UNL     1       2.361   3.450  21.652  0.00  0.00    +0.000 C 
ENDBRANCH  24  26
BRANCH  24  28
ATOM     28  C   UNL     1       3.102   1.917  18.310  0.00  0.00    +0.000 C 
ATOM     29  O   UNL     1       3.894   1.012  18.526  0.00  0.00    +0.000 OA
BRANCH  28  30
ATOM     30  O   UNL     1       2.179   1.849  17.317  0.00  0.00    +0.000 OA
ATOM     31  H   UNL     1       1.388   1.362  17.619  0.00  0.00    +0.000 HD
ENDBRANCH  28  30
ENDBRANCH  24  28
ENDBRANCH  22  24
ENDBRANCH  19  22
ENDBRANCH   1  19
TORSDOF 7
ENDMDL
MODEL 8
REMARK VINA RESULT:      -8.2      0.795      1.032
REMARK  Name = 
REMARK  9 active torsions:
REMARK  status: ('A' for Active; 'I' for Inactive)
REMARK    1  A    between atoms: C_1  and  C_2
REMARK    2  A    between atoms: C_2  and  C_3
REMARK    3  A    between atoms: C_2  and  C_4
REMARK    4  A    between atoms: C_4  and  N_5
REMARK    5  A    between atoms: C_4  and  C_27
REMARK    6  A    between atoms: N_5  and  S_6
REMARK    7  A    between atoms: S_6  and  C_9
REMARK    8  A    between atoms: C_19  and  N_20
REMARK    9  A    between atoms: C_27  and  O_29
REMARK                            x       y       z     vdW  Elec       q    Type
REMARK                         _______ _______ _______ _____ _____    ______ ____
ROOT
ATOM      1  C   UNL     1       3.186   5.314  18.800  0.00  0.00    +0.000 A 
ATOM      2  C   UNL     1       2.759   5.317  20.134  0.00  0.00    +0.000 A 
ATOM      3  C   UNL     1       2.149   6.453  20.685  0.00  0.00    +0.000 A 
ATOM      4  C   UNL     1       1.956   7.588  19.872  0.00  0.00    +0.000 A 
ATOM      5  C   UNL     1       2.398   7.540  18.553  0.00  0.00    +0.000 A 
ATOM      6  C   UNL     1       3.019   6.433  17.971  0.00  0.00    +0.000 A 
ATOM      7  O   UNL     1       2.119   8.714  17.919  0.00  0.00    +0.000 OA
ATOM      8  C   UNL     1       1.479   9.516  18.816  0.00  0.00    +0.000 A 
ATOM      9  C   UNL     1       0.999  10.797  18.559  0.00  0.00    +0.000 A 
ATOM     10  C   UNL     1       0.335  11.445  19.610  0.00  0.00    +0.000 A 
ATOM     11  C   UNL     1       0.175  10.831  20.865  0.00  0.00    +0.000 A 
ATOM     12  C   UNL     1       0.698   9.543  21.096  0.00  0.00    +0.000 A 
ATOM     13  C   UNL     1       1.354   8.870  20.041  0.00  0.00    +0.000 A 
ENDROOT
BRANCH  11  14
ATOM     14  N   UNL     1      -0.542  11.513  21.887  0.00  0.00    +0.000 N 
ATOM     15  C   UNL     1      -1.394  11.003  22.838  0.00  0.00    +0.000 A 
ATOM     16  N   UNL     1      -1.905  11.968  23.567  0.00  0.00    +0.000 NA
ATOM     17  C   UNL     1      -1.327  13.080  23.038  0.00  0.00    +0.000 A 
ATOM     18  N   UNL     1      -0.478  12.861  22.032  0.00  0.00    +0.000 NA
ENDBRANCH  11  14
BRANCH   1  19
ATOM     19  S   UNL     1       3.832   3.806  18.120  0.00  0.00    +0.000 S 
ATOM     20  O   UNL     1       3.453   3.713  16.732  0.00  0.00    +0.000 OA
ATOM     21  O   UNL     1       3.553   2.746  19.056  0.00  0.00    +0.000 OA
BRANCH  19  22
ATOM     22  N   UNL     1       5.498   3.995  18.157  0.00  0.00    +0.000 NA
ATOM     23  H   UNL     1       6.030   3.347  18.736  0.00  0.00    +0.000 HD
BRANCH  22  24
ATOM     24  C   UNL     1       6.139   5.069  17.370  0.00  0.00    +0.000 C 
BRANCH  24  26
ATOM     25  C   UNL     1       7.501   7.265  17.552  0.00  0.00    +0.000 C 
ATOM     26  C   UNL     1       6.640   6.222  18.275  0.00  0.00    +0.000 C 
ATOM     27  C   UNL     1       7.384   5.700  19.508  0.00  0.00    +0.000 C 
ENDBRANCH  24  26
BRANCH  24  28
ATOM     28  C   UNL     1       7.301   4.540  16.526  0.00  0.00    +0.000 C 
ATOM     29  O   UNL     1       7.402   4.717  15.321  0.00  0.00    +0.000 OA
BRANCH  28  30
ATOM     30  O   UNL     1       8.278   3.940  17.253  0.00  0.00    +0.000 OA
ATOM     31  H   UNL     1       9.156   4.140  16.876  0.00  0.00    +0.000 HD
ENDBRANCH  28  30
ENDBRANCH  24  28
ENDBRANCH  22  24
ENDBRANCH  19  22
ENDBRANCH   1  19
TORSDOF 7
ENDMDL
MODEL 9
REMARK VINA RESULT:      -8.1      2.726      3.786
REMARK  Name = 
REMARK  9 active torsions:
REMARK  status: ('A' for Active; 'I' for Inactive)
REMARK    1  A    between atoms: C_1  and  C_2
REMARK    2  A    between atoms: C_2  and  C_3
REMARK    3  A    between atoms: C_2  and  C_4
REMARK    4  A    between atoms: C_4  and  N_5
REMARK    5  A    between atoms: C_4  and  C_27
REMARK    6  A    between atoms: N_5  and  S_6
REMARK    7  A    between atoms: S_6  and  C_9
REMARK    8  A    between atoms: C_19  and  N_20
REMARK    9  A    between atoms: C_27  and  O_29
REMARK                            x       y       z     vdW  Elec       q    Type
REMARK                         _______ _______ _______ _____ _____    ______ ____
ROOT
ATOM      1  C   UNL     1       2.661   7.150  19.141  0.00  0.00    +0.000 A 
ATOM      2  C   UNL     1       2.192   7.092  20.459  0.00  0.00    +0.000 A 
ATOM      3  C   UNL     1       1.335   8.084  20.956  0.00  0.00    +0.000 A 
ATOM      4  C   UNL     1       0.938   9.133  20.103  0.00  0.00    +0.000 A 
ATOM      5  C   UNL     1       1.431   9.151  18.801  0.00  0.00    +0.000 A 
ATOM      6  C   UNL     1       2.293   8.188  18.273  0.00  0.00    +0.000 A 
ATOM      7  O   UNL     1       0.935  10.225  18.124  0.00  0.00    +0.000 OA
ATOM      8  C   UNL     1       0.106  10.893  18.974  0.00  0.00    +0.000 A 
ATOM      9  C   UNL     1      -0.624  12.037  18.663  0.00  0.00    +0.000 A 
ATOM     10  C   UNL     1      -1.449  12.552  19.672  0.00  0.00    +0.000 A 
ATOM     11  C   UNL     1      -1.525  11.947  20.939  0.00  0.00    +0.000 A 
ATOM     12  C   UNL     1      -0.750  10.804  21.226  0.00  0.00    +0.000 A 
ATOM     13  C   UNL     1       0.072  10.262  20.214  0.00  0.00    +0.000 A 
ENDROOT
BRANCH  11  14
ATOM     14  N   UNL     1      -2.408  12.484  21.915  0.00  0.00    +0.000 N 
ATOM     15  C   UNL     1      -3.198  13.607  21.847  0.00  0.00    +0.000 A 
ATOM     16  N   UNL     1      -3.830  13.800  22.982  0.00  0.00    +0.000 NA
ATOM     17  C   UNL     1      -3.408  12.750  23.739  0.00  0.00    +0.000 A 
ATOM     18  N   UNL     1      -2.563  11.912  23.136  0.00  0.00    +0.000 NA
ENDBRANCH  11  14
BRANCH   1  19
ATOM     19  S   UNL     1       3.637   5.798  18.528  0.00  0.00    +0.000 S 
ATOM     20  O   UNL     1       4.634   5.451  19.510  0.00  0.00    +0.000 OA
ATOM     21  O   UNL     1       3.987   6.092  17.161  0.00  0.00    +0.000 OA
BRANCH  19  22
ATOM     22  N   UNL     1       2.572   4.504  18.438  0.00  0.00    +0.000 NA
ATOM     23  H   UNL     1       1.713   4.642  17.910  0.00  0.00    +0.000 HD
BRANCH  22  24
ATOM     24  C   UNL     1       2.898   3.229  19.110  0.00  0.00    +0.000 C 
BRANCH  24  26
ATOM     25  C   UNL     1       0.660   3.832  20.267  0.00  0.00    +0.000 C 
ATOM     26  C   UNL     1       1.860   2.879  20.206  0.00  0.00    +0.000 C 
ATOM     27  C   UNL     1       2.504   2.767  21.591  0.00  0.00    +0.000 C 
ENDBRANCH  24  26
BRANCH  24  28
ATOM     28  C   UNL     1       3.003   2.072  18.115  0.00  0.00    +0.000 C 
ATOM     29  O   UNL     1       2.268   1.938  17.149  0.00  0.00    +0.000 OA
BRANCH  28  30
ATOM     30  O   UNL     1       4.062   1.252  18.338  0.00  0.00    +0.000 OA
ATOM     31  H   UNL     1       3.758   0.375  18.640  0.00  0.00    +0.000 HD
ENDBRANCH  28  30
ENDBRANCH  24  28
ENDBRANCH  22  24
ENDBRANCH  19  22
ENDBRANCH   1  19
TORSDOF 7
ENDMDL
