MODEL 1
REMARK VINA RESULT:      -5.7      0.000      0.000
REMARK  Name = 
REMARK  9 active torsions:
REMARK  status: ('A' for Active; 'I' for Inactive)
REMARK    1  A    between atoms: C_1  and  C_2
REMARK    2  A    between atoms: C_2  and  C_3
REMARK    3  A    between atoms: C_3  and  C_4
REMARK    4  A    between atoms: C_3  and  C_5
REMARK    5  A    between atoms: C_5  and  N_6
REMARK    6  A    between atoms: N_9  and  C_10
REMARK    7  A    between atoms: C_10  and  C_11
REMARK    8  A    between atoms: C_11  and  S_12
REMARK    9  A    between atoms: S_12  and  C_13
REMARK                            x       y       z     vdW  Elec       q    Type
REMARK                         _______ _______ _______ _____ _____    ______ ____
ROOT
ATOM      1  N   UNL     1       6.235   4.074  15.753  0.00  0.00    +0.000 NA
ATOM      2  C   UNL     1       7.150   4.516  16.825  0.00  0.00    +0.000 C 
ATOM      3  C   UNL     1       6.789   5.896  17.418  0.00  0.00    +0.000 C 
ATOM      4  N   UNL     1       5.417   5.976  17.969  0.00  0.00    +0.000 NA
ATOM      5  C   UNL     1       4.472   5.512  16.917  0.00  0.00    +0.000 C 
ATOM      6  C   UNL     1       4.845   4.154  16.259  0.00  0.00    +0.000 C 
ENDROOT
BRANCH   1   7
ATOM      7  C   UNL     1       6.387   4.852  14.509  0.00  0.00    +0.000 C 
BRANCH   7   8
ATOM      8  C   UNL     1       6.637   3.991  13.246  0.00  0.00    +0.000 C 
ATOM      9  C   UNL     1       7.497   4.781  12.255  0.00  0.00    +0.000 C 
BRANCH   8  11
ATOM     10  C   UNL     1       5.472   2.400  11.612  0.00  0.00    +0.000 C 
ATOM     11  C   UNL     1       5.306   3.520  12.628  0.00  0.00    +0.000 C 
ENDBRANCH   8  11
ENDBRANCH   7   8
ENDBRANCH   1   7
BRANCH   4  12
ATOM     12  C   UNL     1       5.244   5.172  19.201  0.00  0.00    +0.000 C 
BRANCH  12  13
ATOM     13  C   UNL     1       3.793   5.094  19.664  0.00  0.00    +0.000 C 
BRANCH  13  14
ATOM     14  S   UNL     1       3.292   3.397  19.872  0.00  0.00    +0.000 S 
ATOM     15  C   UNL     1       2.053   3.215  18.613  0.00  0.00    +0.000 C 
ATOM     16  O   UNL     1       4.409   2.541  19.527  0.00  0.00    +0.000 OA
ATOM     17  O   UNL     1       2.627   3.280  21.159  0.00  0.00    +0.000 OA
ENDBRANCH  13  14
ENDBRANCH  12  13
ENDBRANCH   4  12
TORSDOF 6
ENDMDL
MODEL 2
REMARK VINA RESULT:      -5.7      1.255      1.526
REMARK  Name = 
REMARK  9 active torsions:
REMARK  status: ('A' for Active; 'I' for Inactive)
REMARK    1  A    between atoms: C_1  and  C_2
REMARK    2  A    between atoms: C_2  and  C_3
REMARK    3  A    between atoms: C_3  and  C_4
REMARK    4  A    between atoms: C_3  and  C_5
REMARK    5  A    between atoms: C_5  and  N_6
REMARK    6  A    between atoms: N_9  and  C_10
REMARK    7  A    between atoms: C_10  and  C_11
REMARK    8  A    between atoms: C_11  and  S_12
REMARK    9  A    between atoms: S_12  and  C_13
REMARK                            x       y       z     vdW  Elec       q    Type
REMARK                         _______ _______ _______ _____ _____    ______ ____
ROOT
ATOM      1  N   UNL     1       6.053   5.253  16.647  0.00  0.00    +0.000 NA
ATOM      2  C   UNL     1       5.737   6.430  17.482  0.00  0.00    +0.000 C 
ATOM      3  C   UNL     1       4.224   6.715  17.605  0.00  0.00    +0.000 C 
ATOM      4  N   UNL     1       3.439   5.583  18.149  0.00  0.00    +0.000 NA
ATOM      5  C   UNL     1       3.756   4.375  17.342  0.00  0.00    +0.000 C 
ATOM      6  C   UNL     1       5.273   4.098  17.149  0.00  0.00    +0.000 C 
ENDROOT
BRANCH   1   7
ATOM      7  C   UNL     1       5.793   5.478  15.213  0.00  0.00    +0.000 C 
BRANCH   7   8
ATOM      8  C   UNL     1       6.426   4.418  14.277  0.00  0.00    +0.000 C 
ATOM      9  C   UNL     1       7.547   5.068  13.459  0.00  0.00    +0.000 C 
BRANCH   8  11
ATOM     10  C   UNL     1       5.908   3.188  12.093  0.00  0.00    +0.000 C 
ATOM     11  C   UNL     1       5.355   3.757  13.389  0.00  0.00    +0.000 C 
ENDBRANCH   8  11
ENDBRANCH   7   8
ENDBRANCH   1   7
BRANCH   4  12
ATOM     12  C   UNL     1       3.715   5.327  19.582  0.00  0.00    +0.000 C 
BRANCH  12  13
ATOM     13  C   UNL     1       2.470   4.934  20.369  0.00  0.00    +0.000 C 
BRANCH  13  14
ATOM     14  S   UNL     1       2.520   3.206  20.801  0.00  0.00    +0.000 S 
ATOM     15  C   UNL     1       1.276   2.518  19.737  0.00  0.00    +0.000 C 
ATOM     16  O   UNL     1       3.802   2.666  20.396  0.00  0.00    +0.000 OA
ATOM     17  O   UNL     1       2.048   3.071  22.168  0.00  0.00    +0.000 OA
ENDBRANCH  13  14
ENDBRANCH  12  13
ENDBRANCH   4  12
TORSDOF 6
ENDMDL
MODEL 3
REMARK VINA RESULT:      -5.7      0.914      1.102
REMARK  Name = 
REMARK  9 active torsions:
REMARK  status: ('A' for Active; 'I' for Inactive)
REMARK    1  A    between atoms: C_1  and  C_2
REMARK    2  A    between atoms: C_2  and  C_3
REMARK    3  A    between atoms: C_3  and  C_4
REMARK    4  A    between atoms: C_3  and  C_5
REMARK    5  A    between atoms: C_5  and  N_6
REMARK    6  A    between atoms: N_9  and  C_10
REMARK    7  A    between atoms: C_10  and  C_11
REMARK    8  A    between atoms: C_11  and  S_12
REMARK    9  A    between atoms: S_12  and  C_13
REMARK                            x       y       z     vdW  Elec       q    Type
REMARK                         _______ _______ _______ _____ _____    ______ ____
ROOT
ATOM      1  N   UNL     1       6.253   4.102  15.838  0.00  0.00    +0.000 NA
ATOM      2  C   UNL     1       7.120   4.511  16.962  0.00  0.00    +0.000 C 
ATOM      3  C   UNL     1       6.763   5.896  17.547  0.00  0.00    +0.000 C 
ATOM      4  N   UNL     1       5.366   6.006  18.025  0.00  0.00    +0.000 NA
ATOM      5  C   UNL     1       4.468   5.576  16.920  0.00  0.00    +0.000 C 
ATOM      6  C   UNL     1       4.840   4.215  16.270  0.00  0.00    +0.000 C 
ENDROOT
BRANCH   1   7
ATOM      7  C   UNL     1       6.491   4.885  14.611  0.00  0.00    +0.000 C 
BRANCH   7   8
ATOM      8  C   UNL     1       6.709   4.027  13.340  0.00  0.00    +0.000 C 
ATOM      9  C   UNL     1       7.564   4.810  12.340  0.00  0.00    +0.000 C 
BRANCH   8  11
ATOM     10  C   UNL     1       5.502   2.520  11.659  0.00  0.00    +0.000 C 
ATOM     11  C   UNL     1       5.362   3.579  12.741  0.00  0.00    +0.000 C 
ENDBRANCH   8  11
ENDBRANCH   7   8
ENDBRANCH   1   7
BRANCH   4  12
ATOM     12  C   UNL     1       5.105   5.198  19.238  0.00  0.00    +0.000 C 
BRANCH  12  13
ATOM     13  C   UNL     1       3.659   5.281  19.712  0.00  0.00    +0.000 C 
BRANCH  13  14
ATOM     14  S   UNL     1       2.972   3.651  19.919  0.00  0.00    +0.000 S 
ATOM     15  C   UNL     1       4.389   2.611  19.666  0.00  0.00    +0.000 C 
ATOM     16  O   UNL     1       2.547   3.500  21.296  0.00  0.00    +0.000 OA
ATOM     17  O   UNL     1       2.051   3.408  18.821  0.00  0.00    +0.000 OA
ENDBRANCH  13  14
ENDBRANCH  12  13
ENDBRANCH   4  12
TORSDOF 6
ENDMDL
MODEL 4
REMARK VINA RESULT:      -5.7      1.639      2.112
REMARK  Name = 
REMARK  9 active torsions:
REMARK  status: ('A' for Active; 'I' for Inactive)
REMARK    1  A    between atoms: C_1  and  C_2
REMARK    2  A    between atoms: C_2  and  C_3
REMARK    3  A    between atoms: C_3  and  C_4
REMARK    4  A    between atoms: C_3  and  C_5
REMARK    5  A    between atoms: C_5  and  N_6
REMARK    6  A    between atoms: N_9  and  C_10
REMARK    7  A    between atoms: C_10  and  C_11
REMARK    8  A    between atoms: C_11  and  S_12
REMARK    9  A    between atoms: S_12  and  C_13
REMARK                            x       y       z     vdW  Elec       q    Type
REMARK                         _______ _______ _______ _____ _____    ______ ____
ROOT
ATOM      1  N   UNL     1       5.212   4.172  16.880  0.00  0.00    +0.000 NA
ATOM      2  C   UNL     1       5.559   5.190  17.892  0.00  0.00    +0.000 C 
ATOM      3  C   UNL     1       4.435   6.217  18.150  0.00  0.00    +0.000 C 
ATOM      4  N   UNL     1       3.153   5.613  18.577  0.00  0.00    +0.000 NA
ATOM      5  C   UNL     1       2.787   4.564  17.587  0.00  0.00    +0.000 C 
ATOM      6  C   UNL     1       3.921   3.552  17.261  0.00  0.00    +0.000 C 
ENDROOT
BRANCH   1   7
ATOM      7  C   UNL     1       5.148   4.719  15.512  0.00  0.00    +0.000 C 
BRANCH   7   8
ATOM      8  C   UNL     1       6.128   4.054  14.514  0.00  0.00    +0.000 C 
ATOM      9  C   UNL     1       7.301   5.003  14.246  0.00  0.00    +0.000 C 
BRANCH   8  11
ATOM     10  C   UNL     1       6.342   3.299  12.077  0.00  0.00    +0.000 C 
ATOM     11  C   UNL     1       5.400   3.636  13.222  0.00  0.00    +0.000 C 
ENDBRANCH   8  11
ENDBRANCH   7   8
ENDBRANCH   1   7
BRANCH   4  12
ATOM     12  C   UNL     1       3.213   5.032  19.937  0.00  0.00    +0.000 C 
BRANCH  12  13
ATOM     13  C   UNL     1       1.868   4.503  20.422  0.00  0.00    +0.000 C 
BRANCH  13  14
ATOM     14  S   UNL     1       1.971   2.762  20.783  0.00  0.00    +0.000 S 
ATOM     15  C   UNL     1       3.721   2.467  20.715  0.00  0.00    +0.000 C 
ATOM     16  O   UNL     1       1.535   2.548  22.149  0.00  0.00    +0.000 OA
ATOM     17  O   UNL     1       1.363   2.037  19.681  0.00  0.00    +0.000 OA
ENDBRANCH  13  14
ENDBRANCH  12  13
ENDBRANCH   4  12
TORSDOF 6
ENDMDL
MODEL 5
REMARK VINA RESULT:      -5.7      3.306      6.221
REMARK  Name = 
REMARK  9 active torsions:
REMARK  status: ('A' for Active; 'I' for Inactive)
REMARK    1  A    between atoms: C_1  and  C_2
REMARK    2  A    between atoms: C_2  and  C_3
REMARK    3  A    between atoms: C_3  and  C_4
REMARK    4  A    between atoms: C_3  and  C_5
REMARK    5  A    between atoms: C_5  and  N_6
REMARK    6  A    between atoms: N_9  and  C_10
REMARK    7  A    between atoms: C_10  and  C_11
REMARK    8  A    between atoms: C_11  and  S_12
REMARK    9  A    between atoms: S_12  and  C_13
REMARK                            x       y       z     vdW  Elec       q    Type
REMARK                         _______ _______ _______ _____ _____    ______ ____
ROOT
ATOM      1  N   UNL     1       3.110   4.432  19.120  0.00  0.00    +0.000 NA
ATOM      2  C   UNL     1       2.561   5.262  18.029  0.00  0.00    +0.000 C 
ATOM      3  C   UNL     1       3.069   6.721  18.044  0.00  0.00    +0.000 C 
ATOM      4  N   UNL     1       4.542   6.847  17.975  0.00  0.00    +0.000 NA
ATOM      5  C   UNL     1       5.126   6.000  19.049  0.00  0.00    +0.000 C 
ATOM      6  C   UNL     1       4.588   4.543  19.097  0.00  0.00    +0.000 C 
ENDROOT
BRANCH   1   7
ATOM      7  C   UNL     1       2.576   4.797  20.446  0.00  0.00    +0.000 C 
BRANCH   7   8
ATOM      8  C   UNL     1       1.678   3.712  21.091  0.00  0.00    +0.000 C 
ATOM      9  C   UNL     1       2.545   2.524  21.519  0.00  0.00    +0.000 C 
BRANCH   8  11
ATOM     10  C   UNL     1       0.894   2.120  19.246  0.00  0.00    +0.000 C 
ATOM     11  C   UNL     1       0.541   3.300  20.137  0.00  0.00    +0.000 C 
ENDBRANCH   8  11
ENDBRANCH   7   8
ENDBRANCH   1   7
BRANCH   4  12
ATOM     12  C   UNL     1       5.093   6.452  16.658  0.00  0.00    +0.000 C 
BRANCH  12  13
ATOM     13  C   UNL     1       6.617   6.430  16.631  0.00  0.00    +0.000 C 
BRANCH  13  14
ATOM     14  S   UNL     1       7.210   4.917  15.900  0.00  0.00    +0.000 S 
ATOM     15  C   UNL     1       5.706   4.005  15.653  0.00  0.00    +0.000 C 
ATOM     16  O   UNL     1       7.767   5.222  14.597  0.00  0.00    +0.000 OA
ATOM     17  O   UNL     1       7.990   4.210  16.901  0.00  0.00    +0.000 OA
ENDBRANCH  13  14
ENDBRANCH  12  13
ENDBRANCH   4  12
TORSDOF 6
ENDMDL
MODEL 6
REMARK VINA RESULT:      -5.5      1.353      1.686
REMARK  Name = 
REMARK  9 active torsions:
REMARK  status: ('A' for Active; 'I' for Inactive)
REMARK    1  A    between atoms: C_1  and  C_2
REMARK    2  A    between atoms: C_2  and  C_3
REMARK    3  A    between atoms: C_3  and  C_4
REMARK    4  A    between atoms: C_3  and  C_5
REMARK    5  A    between atoms: C_5  and  N_6
REMARK    6  A    between atoms: N_9  and  C_10
REMARK    7  A    between atoms: C_10  and  C_11
REMARK    8  A    between atoms: C_11  and  S_12
REMARK    9  A    between atoms: S_12  and  C_13
REMARK                            x       y       z     vdW  Elec       q    Type
REMARK                         _______ _______ _______ _____ _____    ______ ____
ROOT
ATOM      1  N   UNL     1       6.247   5.042  16.205  0.00  0.00    +0.000 NA
ATOM      2  C   UNL     1       5.804   6.122  17.110  0.00  0.00    +0.000 C 
ATOM      3  C   UNL     1       4.275   6.156  17.331  0.00  0.00    +0.000 C 
ATOM      4  N   UNL     1       3.716   4.895  17.868  0.00  0.00    +0.000 NA
ATOM      5  C   UNL     1       4.167   3.782  16.989  0.00  0.00    +0.000 C 
ATOM      6  C   UNL     1       5.693   3.759  16.698  0.00  0.00    +0.000 C 
ENDROOT
BRANCH   1   7
ATOM      7  C   UNL     1       5.865   5.273  14.800  0.00  0.00    +0.000 C 
BRANCH   7   8
ATOM      8  C   UNL     1       6.498   4.278  13.795  0.00  0.00    +0.000 C 
ATOM      9  C   UNL     1       7.593   4.991  12.997  0.00  0.00    +0.000 C 
BRANCH   8  11
ATOM     10  C   UNL     1       5.991   2.745  11.809  0.00  0.00    +0.000 C 
ATOM     11  C   UNL     1       5.421   3.650  12.890  0.00  0.00    +0.000 C 
ENDBRANCH   8  11
ENDBRANCH   7   8
ENDBRANCH   1   7
BRANCH   4  12
ATOM     12  C   UNL     1       4.119   4.635  19.269  0.00  0.00    +0.000 C 
BRANCH  12  13
ATOM     13  C   UNL     1       3.829   3.208  19.719  0.00  0.00    +0.000 C 
BRANCH  13  14
ATOM     14  S   UNL     1       2.350   3.150  20.710  0.00  0.00    +0.000 S 
ATOM     15  C   UNL     1       1.983   4.873  20.937  0.00  0.00    +0.000 C 
ATOM     16  O   UNL     1       1.285   2.568  19.918  0.00  0.00    +0.000 OA
ATOM     17  O   UNL     1       2.701   2.604  22.010  0.00  0.00    +0.000 OA
ENDBRANCH  13  14
ENDBRANCH  12  13
ENDBRANCH   4  12
TORSDOF 6
ENDMDL
MODEL 7
REMARK VINA RESULT:      -5.5      1.463      1.706
REMARK  Name = 
REMARK  9 active torsions:
REMARK  status: ('A' for Active; 'I' for Inactive)
REMARK    1  A    between atoms: C_1  and  C_2
REMARK    2  A    between atoms: C_2  and  C_3
REMARK    3  A    between atoms: C_3  and  C_4
REMARK    4  A    between atoms: C_3  and  C_5
REMARK    5  A    between atoms: C_5  and  N_6
REMARK    6  A    between atoms: N_9  and  C_10
REMARK    7  A    between atoms: C_10  and  C_11
REMARK    8  A    between atoms: C_11  and  S_12
REMARK    9  A    between atoms: S_12  and  C_13
REMARK                            x       y       z     vdW  Elec       q    Type
REMARK                         _______ _______ _______ _____ _____    ______ ____
ROOT
ATOM      1  N   UNL     1       5.434   4.987  15.442  0.00  0.00    +0.000 NA
ATOM      2  C   UNL     1       5.082   4.013  16.495  0.00  0.00    +0.000 C 
ATOM      3  C   UNL     1       5.746   4.309  17.859  0.00  0.00    +0.000 C 
ATOM      4  N   UNL     1       5.439   5.652  18.400  0.00  0.00    +0.000 NA
ATOM      5  C   UNL     1       5.760   6.655  17.350  0.00  0.00    +0.000 C 
ATOM      6  C   UNL     1       5.156   6.351  15.951  0.00  0.00    +0.000 C 
ENDROOT
BRANCH   1   7
ATOM      7  C   UNL     1       6.833   4.869  14.992  0.00  0.00    +0.000 C 
BRANCH   7   8
ATOM      8  C   UNL     1       7.000   4.235  13.588  0.00  0.00    +0.000 C 
ATOM      9  C   UNL     1       7.708   5.228  12.663  0.00  0.00    +0.000 C 
BRANCH   8  11
ATOM     10  C   UNL     1       5.763   2.815  11.854  0.00  0.00    +0.000 C 
ATOM     11  C   UNL     1       5.641   3.773  13.028  0.00  0.00    +0.000 C 
ENDBRANCH   8  11
ENDBRANCH   7   8
ENDBRANCH   1   7
BRANCH   4  12
ATOM     12  C   UNL     1       4.027   5.793  18.826  0.00  0.00    +0.000 C 
BRANCH  12  13
ATOM     13  C   UNL     1       3.557   4.654  19.723  0.00  0.00    +0.000 C 
BRANCH  13  14
ATOM     14  S   UNL     1       2.155   3.825  19.002  0.00  0.00    +0.000 S 
ATOM     15  C   UNL     1       0.920   4.008  20.265  0.00  0.00    +0.000 C 
ATOM     16  O   UNL     1       1.721   4.576  17.841  0.00  0.00    +0.000 OA
ATOM     17  O   UNL     1       2.471   2.410  18.903  0.00  0.00    +0.000 OA
ENDBRANCH  13  14
ENDBRANCH  12  13
ENDBRANCH   4  12
TORSDOF 6
ENDMDL
MODEL 8
REMARK VINA RESULT:      -5.4      1.511      1.760
REMARK  Name = 
REMARK  9 active torsions:
REMARK  status: ('A' for Active; 'I' for Inactive)
REMARK    1  A    between atoms: C_1  and  C_2
REMARK    2  A    between atoms: C_2  and  C_3
REMARK    3  A    between atoms: C_3  and  C_4
REMARK    4  A    between atoms: C_3  and  C_5
REMARK    5  A    between atoms: C_5  and  N_6
REMARK    6  A    between atoms: N_9  and  C_10
REMARK    7  A    between atoms: C_10  and  C_11
REMARK    8  A    between atoms: C_11  and  S_12
REMARK    9  A    between atoms: S_12  and  C_13
REMARK                            x       y       z     vdW  Elec       q    Type
REMARK                         _______ _______ _______ _____ _____    ______ ____
ROOT
ATOM      1  N   UNL     1       5.625   4.110  16.684  0.00  0.00    +0.000 NA
ATOM      2  C   UNL     1       6.229   4.473  17.982  0.00  0.00    +0.000 C 
ATOM      3  C   UNL     1       5.666   5.780  18.584  0.00  0.00    +0.000 C 
ATOM      4  N   UNL     1       4.200   5.768  18.785  0.00  0.00    +0.000 NA
ATOM      5  C   UNL     1       3.562   5.380  17.498  0.00  0.00    +0.000 C 
ATOM      6  C   UNL     1       4.151   4.103  16.838  0.00  0.00    +0.000 C 
ENDROOT
BRANCH   1   7
ATOM      7  C   UNL     1       6.034   5.007  15.587  0.00  0.00    +0.000 C 
BRANCH   7   8
ATOM      8  C   UNL     1       6.592   4.275  14.341  0.00  0.00    +0.000 C 
ATOM      9  C   UNL     1       7.556   5.204  13.596  0.00  0.00    +0.000 C 
BRANCH   8  11
ATOM     10  C   UNL     1       5.928   3.184  12.122  0.00  0.00    +0.000 C 
ATOM     11  C   UNL     1       5.449   3.767  13.442  0.00  0.00    +0.000 C 
ENDBRANCH   8  11
ENDBRANCH   7   8
ENDBRANCH   1   7
BRANCH   4  12
ATOM     12  C   UNL     1       3.773   4.846  19.864  0.00  0.00    +0.000 C 
BRANCH  12  13
ATOM     13  C   UNL     1       2.262   4.652  19.921  0.00  0.00    +0.000 C 
BRANCH  13  14
ATOM     14  S   UNL     1       1.852   2.918  19.935  0.00  0.00    +0.000 S 
ATOM     15  C   UNL     1       1.542   2.620  21.658  0.00  0.00    +0.000 C 
ATOM     16  O   UNL     1       0.606   2.734  19.218  0.00  0.00    +0.000 OA
ATOM     17  O   UNL     1       3.043   2.172  19.570  0.00  0.00    +0.000 OA
ENDBRANCH  13  14
ENDBRANCH  12  13
ENDBRANCH   4  12
TORSDOF 6
ENDMDL
MODEL 9
REMARK VINA RESULT:      -5.4      1.130      1.353
REMARK  Name = 
REMARK  9 active torsions:
REMARK  status: ('A' for Active; 'I' for Inactive)
REMARK    1  A    between atoms: C_1  and  C_2
REMARK    2  A    between atoms: C_2  and  C_3
REMARK    3  A    between atoms: C_3  and  C_4
REMARK    4  A    between atoms: C_3  and  C_5
REMARK    5  A    between atoms: C_5  and  N_6
REMARK    6  A    between atoms: N_9  and  C_10
REMARK    7  A    between atoms: C_10  and  C_11
REMARK    8  A    between atoms: C_11  and  S_12
REMARK    9  A    between atoms: S_12  and  C_13
REMARK                            x       y       z     vdW  Elec       q    Type
REMARK                         _______ _______ _______ _____ _____    ______ ____
ROOT
ATOM      1  N   UNL     1       6.544   4.485  15.803  0.00  0.00    +0.000 NA
ATOM      2  C   UNL     1       6.869   5.562  16.760  0.00  0.00    +0.000 C 
ATOM      3  C   UNL     1       5.669   6.473  17.101  0.00  0.00    +0.000 C 
ATOM      4  N   UNL     1       4.502   5.750  17.654  0.00  0.00    +0.000 NA
ATOM      5  C   UNL     1       4.165   4.640  16.722  0.00  0.00    +0.000 C 
ATOM      6  C   UNL     1       5.366   3.744  16.313  0.00  0.00    +0.000 C 
ENDROOT
BRANCH   1   7
ATOM      7  C   UNL     1       6.300   4.983  14.437  0.00  0.00    +0.000 C 
BRANCH   7   8
ATOM      8  C   UNL     1       7.268   4.413  13.369  0.00  0.00    +0.000 C 
ATOM      9  C   UNL     1       8.131   5.548  12.809  0.00  0.00    +0.000 C 
BRANCH   8  11
ATOM     10  C   UNL     1       4.997   3.586  12.525  0.00  0.00    +0.000 C 
ATOM     11  C   UNL     1       6.493   3.663  12.269  0.00  0.00    +0.000 C 
ENDBRANCH   8  11
ENDBRANCH   7   8
ENDBRANCH   1   7
BRANCH   4  12
ATOM     12  C   UNL     1       4.746   5.217  19.014  0.00  0.00    +0.000 C 
BRANCH  12  13
ATOM     13  C   UNL     1       3.474   4.735  19.704  0.00  0.00    +0.000 C 
BRANCH  13  14
ATOM     14  S   UNL     1       3.483   2.962  19.870  0.00  0.00    +0.000 S 
ATOM     15  C   UNL     1       2.665   2.726  21.429  0.00  0.00    +0.000 C 
ATOM     16  O   UNL     1       2.642   2.397  18.834  0.00  0.00    +0.000 OA
ATOM     17  O   UNL     1       4.862   2.532  20.032  0.00  0.00    +0.000 OA
ENDBRANCH  13  14
ENDBRANCH  12  13
ENDBRANCH   4  12
TORSDOF 6
ENDMDL
