MODEL 1
REMARK VINA RESULT:      -7.8      0.000      0.000
REMARK  Name = 
REMARK  8 active torsions:
REMARK  status: ('A' for Active; 'I' for Inactive)
REMARK    1  A    between atoms: C_2  and  C_3
REMARK    2  A    between atoms: C_3  and  C_4
REMARK    3  A    between atoms: C_6  and  N_7
REMARK    4  A    between atoms: N_17  and  C_18
REMARK    5  A    between atoms: C_23  and  O_24
REMARK    6  A    between atoms: O_24  and  C_25
REMARK    7  A    between atoms: C_25  and  C_26
REMARK    8  A    between atoms: C_26  and  N_27
REMARK                            x       y       z     vdW  Elec       q    Type
REMARK                         _______ _______ _______ _____ _____    ______ ____
ROOT
ATOM      1  O   UNL     1       3.947   7.248  18.577  0.00  0.00    +0.000 OA
ATOM      2  C   UNL     1       2.792   7.242  18.147  0.00  0.00    +0.000 C 
ATOM      3  N   UNL     1       1.832   6.277  18.456  0.00  0.00    +0.000 N 
ATOM      4  H   UNL     1       0.849   6.517  18.404  0.00  0.00    +0.000 HD
ENDROOT
BRANCH   3   5
ATOM      5  C   UNL     1       2.178   5.132  19.225  0.00  0.00    +0.000 A 
ATOM      6  C   UNL     1       1.888   5.176  20.604  0.00  0.00    +0.000 A 
ATOM      7  C   UNL     1       2.103   4.078  21.428  0.00  0.00    +0.000 A 
ATOM      8  C   UNL     1       2.596   2.907  20.879  0.00  0.00    +0.000 A 
ATOM      9  C   UNL     1       2.931   2.860  19.523  0.00  0.00    +0.000 A 
ATOM     10  C   UNL     1       2.777   3.975  18.675  0.00  0.00    +0.000 A 
BRANCH  10  11
ATOM     11  O   UNL     1       3.137   3.939  17.332  0.00  0.00    +0.000 OA
BRANCH  11  12
ATOM     12  C   UNL     1       4.455   3.376  17.078  0.00  0.00    +0.000 C 
BRANCH  12  13
ATOM     13  C   UNL     1       5.300   4.178  16.062  0.00  0.00    +0.000 C 
BRANCH  13  14
ATOM     14  N   UNL     1       6.497   4.876  16.632  0.00  0.00    +0.000 NA
ATOM     15  C   UNL     1       6.344   6.334  16.449  0.00  0.00    +0.000 C 
ATOM     16  C   UNL     1       7.502   7.149  17.035  0.00  0.00    +0.000 C 
ATOM     17  C   UNL     1       7.704   6.839  18.509  0.00  0.00    +0.000 C 
ATOM     18  C   UNL     1       7.871   5.338  18.699  0.00  0.00    +0.000 C 
ATOM     19  C   UNL     1       6.725   4.545  18.051  0.00  0.00    +0.000 C 
ENDBRANCH  13  14
ENDBRANCH  12  13
ENDBRANCH  11  12
ENDBRANCH  10  11
ENDBRANCH   3   5
BRANCH   2  20
ATOM     20  C   UNL     1       2.330   8.388  17.281  0.00  0.00    +0.000 C 
BRANCH  20  21
ATOM     21  C   UNL     1       1.884   9.596  18.081  0.00  0.00    +0.000 A 
ATOM     22  N   UNL     1       1.097   9.452  19.099  0.00  0.00    +0.000 NA
ATOM     23  C   UNL     1       0.771  10.563  19.858  0.00  0.00    +0.000 A 
ATOM     24  C   UNL     1       1.234  11.779  19.532  0.00  0.00    +0.000 A 
ATOM     25  C   UNL     1       2.091  11.946  18.355  0.00  0.00    +0.000 A 
ATOM     26  O   UNL     1       2.472  13.054  18.013  0.00  0.00    +0.000 OA
ATOM     27  N   UNL     1       2.402  10.803  17.707  0.00  0.00    +0.000 N 
ATOM     28  H   UNL     1       2.917  10.905  16.839  0.00  0.00    +0.000 HD
BRANCH  23  29
ATOM     29  N   UNL     1      -0.080  10.414  20.953  0.00  0.00    +0.000 N 
ATOM     30  C   UNL     1      -1.105  11.413  21.308  0.00  0.00    +0.000 C 
ATOM     31  C   UNL     1      -1.045  11.689  22.824  0.00  0.00    +0.000 C 
ATOM     32  O   UNL     1      -1.130  10.487  23.612  0.00  0.00    +0.000 OA
ATOM     33  C   UNL     1      -0.087   9.567  23.244  0.00  0.00    +0.000 C 
ATOM     34  C   UNL     1      -0.202   9.191  21.763  0.00  0.00    +0.000 C 
ENDBRANCH  23  29
ENDBRANCH  20  21
ENDBRANCH   2  20
TORSDOF 8
ENDMDL
MODEL 2
REMARK VINA RESULT:      -7.8      1.863      4.721
REMARK  Name = 
REMARK  8 active torsions:
REMARK  status: ('A' for Active; 'I' for Inactive)
REMARK    1  A    between atoms: C_2  and  C_3
REMARK    2  A    between atoms: C_3  and  C_4
REMARK    3  A    between atoms: C_6  and  N_7
REMARK    4  A    between atoms: N_17  and  C_18
REMARK    5  A    between atoms: C_23  and  O_24
REMARK    6  A    between atoms: O_24  and  C_25
REMARK    7  A    between atoms: C_25  and  C_26
REMARK    8  A    between atoms: C_26  and  N_27
REMARK                            x       y       z     vdW  Elec       q    Type
REMARK                         _______ _______ _______ _____ _____    ______ ____
ROOT
ATOM      1  O   UNL     1       2.937   7.384  18.113  0.00  0.00    +0.000 OA
ATOM      2  C   UNL     1       3.076   6.531  18.993  0.00  0.00    +0.000 C 
ATOM      3  N   UNL     1       4.112   5.597  19.041  0.00  0.00    +0.000 N 
ATOM      4  H   UNL     1       4.391   5.207  19.933  0.00  0.00    +0.000 HD
ENDROOT
BRANCH   3   5
ATOM      5  C   UNL     1       5.045   5.495  17.972  0.00  0.00    +0.000 A 
ATOM      6  C   UNL     1       6.185   6.322  18.036  0.00  0.00    +0.000 A 
ATOM      7  C   UNL     1       7.200   6.237  17.090  0.00  0.00    +0.000 A 
ATOM      8  C   UNL     1       7.099   5.304  16.072  0.00  0.00    +0.000 A 
ATOM      9  C   UNL     1       5.955   4.507  15.968  0.00  0.00    +0.000 A 
ATOM     10  C   UNL     1       4.885   4.612  16.879  0.00  0.00    +0.000 A 
BRANCH  10  11
ATOM     11  O   UNL     1       3.733   3.840  16.761  0.00  0.00    +0.000 OA
BRANCH  11  12
ATOM     12  C   UNL     1       3.969   2.403  16.784  0.00  0.00    +0.000 C 
BRANCH  12  13
ATOM     13  C   UNL     1       3.655   1.734  18.143  0.00  0.00    +0.000 C 
BRANCH  13  14
ATOM     14  N   UNL     1       2.938   2.599  19.134  0.00  0.00    +0.000 NA
ATOM     15  C   UNL     1       1.488   2.330  19.054  0.00  0.00    +0.000 C 
ATOM     16  C   UNL     1       0.660   3.138  20.059  0.00  0.00    +0.000 C 
ATOM     17  C   UNL     1       1.143   2.911  21.483  0.00  0.00    +0.000 C 
ATOM     18  C   UNL     1       2.636   3.196  21.568  0.00  0.00    +0.000 C 
ATOM     19  C   UNL     1       3.433   2.415  20.511  0.00  0.00    +0.000 C 
ENDBRANCH  13  14
ENDBRANCH  12  13
ENDBRANCH  11  12
ENDBRANCH  10  11
ENDBRANCH   3   5
BRANCH   2  20
ATOM     20  C   UNL     1       2.113   6.518  20.154  0.00  0.00    +0.000 C 
BRANCH  20  21
ATOM     21  C   UNL     1       1.656   7.905  20.563  0.00  0.00    +0.000 A 
ATOM     22  N   UNL     1       1.315   8.772  19.665  0.00  0.00    +0.000 NA
ATOM     23  C   UNL     1       0.826  10.002  20.071  0.00  0.00    +0.000 A 
ATOM     24  C   UNL     1       0.733  10.310  21.374  0.00  0.00    +0.000 A 
ATOM     25  C   UNL     1       1.159   9.341  22.388  0.00  0.00    +0.000 A 
ATOM     26  O   UNL     1       1.135   9.629  23.573  0.00  0.00    +0.000 OA
ATOM     27  N   UNL     1       1.570   8.149  21.904  0.00  0.00    +0.000 N 
ATOM     28  H   UNL     1       1.955   7.500  22.580  0.00  0.00    +0.000 HD
BRANCH  23  29
ATOM     29  N   UNL     1       0.461  10.942  19.108  0.00  0.00    +0.000 N 
ATOM     30  C   UNL     1       1.333  12.065  18.719  0.00  0.00    +0.000 C 
ATOM     31  C   UNL     1       0.502  13.365  18.674  0.00  0.00    +0.000 C 
ATOM     32  O   UNL     1      -0.670  13.246  17.846  0.00  0.00    +0.000 OA
ATOM     33  C   UNL     1      -1.495  12.157  18.294  0.00  0.00    +0.000 C 
ATOM     34  C   UNL     1      -0.720  10.837  18.235  0.00  0.00    +0.000 C 
ENDBRANCH  23  29
ENDBRANCH  20  21
ENDBRANCH   2  20
TORSDOF 8
ENDMDL
MODEL 3
REMARK VINA RESULT:      -7.7      0.781      1.195
REMARK  Name = 
REMARK  8 active torsions:
REMARK  status: ('A' for Active; 'I' for Inactive)
REMARK    1  A    between atoms: C_2  and  C_3
REMARK    2  A    between atoms: C_3  and  C_4
REMARK    3  A    between atoms: C_6  and  N_7
REMARK    4  A    between atoms: N_17  and  C_18
REMARK    5  A    between atoms: C_23  and  O_24
REMARK    6  A    between atoms: O_24  and  C_25
REMARK    7  A    between atoms: C_25  and  C_26
REMARK    8  A    between atoms: C_26  and  N_27
REMARK                            x       y       z     vdW  Elec       q    Type
REMARK                         _______ _______ _______ _____ _____    ______ ____
ROOT
ATOM      1  O   UNL     1       3.133   7.069  19.438  0.00  0.00    +0.000 OA
ATOM      2  C   UNL     1       2.464   6.964  18.408  0.00  0.00    +0.000 C 
ATOM      3  N   UNL     1       1.722   5.836  18.051  0.00  0.00    +0.000 N 
ATOM      4  H   UNL     1       0.923   5.939  17.437  0.00  0.00    +0.000 HD
ENDROOT
BRANCH   3   5
ATOM      5  C   UNL     1       1.789   4.649  18.831  0.00  0.00    +0.000 A 
ATOM      6  C   UNL     1       1.143   4.668  20.083  0.00  0.00    +0.000 A 
ATOM      7  C   UNL     1       1.072   3.534  20.883  0.00  0.00    +0.000 A 
ATOM      8  C   UNL     1       1.633   2.352  20.432  0.00  0.00    +0.000 A 
ATOM      9  C   UNL     1       2.317   2.326  19.213  0.00  0.00    +0.000 A 
ATOM     10  C   UNL     1       2.454   3.474  18.407  0.00  0.00    +0.000 A 
BRANCH  10  11
ATOM     11  O   UNL     1       3.159   3.458  17.208  0.00  0.00    +0.000 OA
BRANCH  11  12
ATOM     12  C   UNL     1       4.599   3.303  17.360  0.00  0.00    +0.000 C 
BRANCH  12  13
ATOM     13  C   UNL     1       5.166   3.921  18.660  0.00  0.00    +0.000 C 
BRANCH  13  14
ATOM     14  N   UNL     1       5.729   5.302  18.521  0.00  0.00    +0.000 NA
ATOM     15  C   UNL     1       7.165   5.279  18.865  0.00  0.00    +0.000 C 
ATOM     16  C   UNL     1       7.852   6.641  18.718  0.00  0.00    +0.000 C 
ATOM     17  C   UNL     1       7.673   7.200  17.315  0.00  0.00    +0.000 C 
ATOM     18  C   UNL     1       6.193   7.233  16.962  0.00  0.00    +0.000 C 
ATOM     19  C   UNL     1       5.520   5.868  17.175  0.00  0.00    +0.000 C 
ENDBRANCH  13  14
ENDBRANCH  12  13
ENDBRANCH  11  12
ENDBRANCH  10  11
ENDBRANCH   3   5
BRANCH   2  20
ATOM     20  C   UNL     1       2.360   8.150  17.482  0.00  0.00    +0.000 C 
BRANCH  20  21
ATOM     21  C   UNL     1       1.878   9.408  18.178  0.00  0.00    +0.000 A 
ATOM     22  N   UNL     1       1.092   9.327  19.203  0.00  0.00    +0.000 NA
ATOM     23  C   UNL     1       0.732  10.487  19.866  0.00  0.00    +0.000 A 
ATOM     24  C   UNL     1       1.162  11.685  19.441  0.00  0.00    +0.000 A 
ATOM     25  C   UNL     1       2.018  11.777  18.254  0.00  0.00    +0.000 A 
ATOM     26  O   UNL     1       2.368  12.863  17.821  0.00  0.00    +0.000 OA
ATOM     27  N   UNL     1       2.363  10.593  17.704  0.00  0.00    +0.000 N 
ATOM     28  H   UNL     1       2.877  10.637  16.831  0.00  0.00    +0.000 HD
BRANCH  23  29
ATOM     29  N   UNL     1      -0.117  10.407  20.969  0.00  0.00    +0.000 N 
ATOM     30  C   UNL     1      -1.097  11.458  21.299  0.00  0.00    +0.000 C 
ATOM     31  C   UNL     1      -1.017  11.776  22.807  0.00  0.00    +0.000 C 
ATOM     32  O   UNL     1      -1.148  10.601  23.630  0.00  0.00    +0.000 OA
ATOM     33  C   UNL     1      -0.147   9.629  23.284  0.00  0.00    +0.000 C 
ATOM     34  C   UNL     1      -0.286   9.214  21.816  0.00  0.00    +0.000 C 
ENDBRANCH  23  29
ENDBRANCH  20  21
ENDBRANCH   2  20
TORSDOF 8
ENDMDL
MODEL 4
REMARK VINA RESULT:      -7.7      1.264      3.775
REMARK  Name = 
REMARK  8 active torsions:
REMARK  status: ('A' for Active; 'I' for Inactive)
REMARK    1  A    between atoms: C_2  and  C_3
REMARK    2  A    between atoms: C_3  and  C_4
REMARK    3  A    between atoms: C_6  and  N_7
REMARK    4  A    between atoms: N_17  and  C_18
REMARK    5  A    between atoms: C_23  and  O_24
REMARK    6  A    between atoms: O_24  and  C_25
REMARK    7  A    between atoms: C_25  and  C_26
REMARK    8  A    between atoms: C_26  and  N_27
REMARK                            x       y       z     vdW  Elec       q    Type
REMARK                         _______ _______ _______ _____ _____    ______ ____
ROOT
ATOM      1  O   UNL     1       3.086   7.333  18.987  0.00  0.00    +0.000 OA
ATOM      2  C   UNL     1       3.097   7.696  17.809  0.00  0.00    +0.000 C 
ATOM      3  N   UNL     1       4.085   7.362  16.881  0.00  0.00    +0.000 N 
ATOM      4  H   UNL     1       3.860   7.350  15.894  0.00  0.00    +0.000 HD
ENDROOT
BRANCH   3   5
ATOM      5  C   UNL     1       5.247   6.649  17.287  0.00  0.00    +0.000 A 
ATOM      6  C   UNL     1       6.413   7.406  17.522  0.00  0.00    +0.000 A 
ATOM      7  C   UNL     1       7.576   6.819  18.007  0.00  0.00    +0.000 A 
ATOM      8  C   UNL     1       7.585   5.463  18.284  0.00  0.00    +0.000 A 
ATOM      9  C   UNL     1       6.452   4.689  18.014  0.00  0.00    +0.000 A 
ATOM     10  C   UNL     1       5.278   5.247  17.469  0.00  0.00    +0.000 A 
BRANCH  10  11
ATOM     11  O   UNL     1       4.159   4.474  17.173  0.00  0.00    +0.000 OA
BRANCH  11  12
ATOM     12  C   UNL     1       4.440   3.056  16.995  0.00  0.00    +0.000 C 
BRANCH  12  13
ATOM     13  C   UNL     1       3.722   2.138  18.011  0.00  0.00    +0.000 C 
BRANCH  13  14
ATOM     14  N   UNL     1       2.973   2.846  19.098  0.00  0.00    +0.000 NA
ATOM     15  C   UNL     1       1.531   2.555  18.966  0.00  0.00    +0.000 C 
ATOM     16  C   UNL     1       0.673   3.203  20.058  0.00  0.00    +0.000 C 
ATOM     17  C   UNL     1       1.150   2.801  21.445  0.00  0.00    +0.000 C 
ATOM     18  C   UNL     1       2.633   3.108  21.586  0.00  0.00    +0.000 C 
ATOM     19  C   UNL     1       3.460   2.494  20.445  0.00  0.00    +0.000 C 
ENDBRANCH  13  14
ENDBRANCH  12  13
ENDBRANCH  11  12
ENDBRANCH  10  11
ENDBRANCH   3   5
BRANCH   2  20
ATOM     20  C   UNL     1       1.933   8.498  17.282  0.00  0.00    +0.000 C 
BRANCH  20  21
ATOM     21  C   UNL     1       1.648   9.741  18.102  0.00  0.00    +0.000 A 
ATOM     22  N   UNL     1       0.831   9.689  19.106  0.00  0.00    +0.000 NA
ATOM     23  C   UNL     1       0.651  10.819  19.884  0.00  0.00    +0.000 A 
ATOM     24  C   UNL     1       1.286  11.965  19.592  0.00  0.00    +0.000 A 
ATOM     25  C   UNL     1       2.178  12.032  18.431  0.00  0.00    +0.000 A 
ATOM     26  O   UNL     1       2.717  13.082  18.119  0.00  0.00    +0.000 OA
ATOM     27  N   UNL     1       2.337  10.870  17.762  0.00  0.00    +0.000 N 
ATOM     28  H   UNL     1       2.875  10.916  16.904  0.00  0.00    +0.000 HD
BRANCH  23  29
ATOM     29  N   UNL     1      -0.230  10.770  20.964  0.00  0.00    +0.000 N 
ATOM     30  C   UNL     1      -1.145  11.877  21.297  0.00  0.00    +0.000 C 
ATOM     31  C   UNL     1      -1.083  12.152  22.814  0.00  0.00    +0.000 C 
ATOM     32  O   UNL     1      -1.314  10.970  23.603  0.00  0.00    +0.000 OA
ATOM     33  C   UNL     1      -0.372   9.940  23.256  0.00  0.00    +0.000 C 
ATOM     34  C   UNL     1      -0.500   9.572  21.775  0.00  0.00    +0.000 C 
ENDBRANCH  23  29
ENDBRANCH  20  21
ENDBRANCH   2  20
TORSDOF 8
ENDMDL
MODEL 5
REMARK VINA RESULT:      -7.6      2.011      4.395
REMARK  Name = 
REMARK  8 active torsions:
REMARK  status: ('A' for Active; 'I' for Inactive)
REMARK    1  A    between atoms: C_2  and  C_3
REMARK    2  A    between atoms: C_3  and  C_4
REMARK    3  A    between atoms: C_6  and  N_7
REMARK    4  A    between atoms: N_17  and  C_18
REMARK    5  A    between atoms: C_23  and  O_24
REMARK    6  A    between atoms: O_24  and  C_25
REMARK    7  A    between atoms: C_25  and  C_26
REMARK    8  A    between atoms: C_26  and  N_27
REMARK                            x       y       z     vdW  Elec       q    Type
REMARK                         _______ _______ _______ _____ _____    ______ ____
ROOT
ATOM      1  O   UNL     1       2.987   6.992  19.102  0.00  0.00    +0.000 OA
ATOM      2  C   UNL     1       3.033   7.564  18.012  0.00  0.00    +0.000 C 
ATOM      3  N   UNL     1       4.030   7.373  17.052  0.00  0.00    +0.000 N 
ATOM      4  H   UNL     1       3.823   7.550  16.077  0.00  0.00    +0.000 HD
ENDROOT
BRANCH   3   5
ATOM      5  C   UNL     1       5.160   6.558  17.336  0.00  0.00    +0.000 A 
ATOM      6  C   UNL     1       6.376   7.220  17.602  0.00  0.00    +0.000 A 
ATOM      7  C   UNL     1       7.518   6.523  17.977  0.00  0.00    +0.000 A 
ATOM      8  C   UNL     1       7.456   5.146  18.112  0.00  0.00    +0.000 A 
ATOM      9  C   UNL     1       6.271   4.469  17.810  0.00  0.00    +0.000 A 
ATOM     10  C   UNL     1       5.114   5.145  17.372  0.00  0.00    +0.000 A 
BRANCH  10  11
ATOM     11  O   UNL     1       3.942   4.471  17.043  0.00  0.00    +0.000 OA
BRANCH  11  12
ATOM     12  C   UNL     1       4.016   3.025  17.206  0.00  0.00    +0.000 C 
BRANCH  12  13
ATOM     13  C   UNL     1       2.653   2.352  17.489  0.00  0.00    +0.000 C 
BRANCH  13  14
ATOM     14  N   UNL     1       2.117   2.548  18.874  0.00  0.00    +0.000 NA
ATOM     15  C   UNL     1       3.228   2.467  19.843  0.00  0.00    +0.000 C 
ATOM     16  C   UNL     1       2.793   2.694  21.295  0.00  0.00    +0.000 C 
ATOM     17  C   UNL     1       2.074   4.024  21.454  0.00  0.00    +0.000 C 
ATOM     18  C   UNL     1       0.923   4.105  20.462  0.00  0.00    +0.000 C 
ATOM     19  C   UNL     1       1.379   3.817  19.024  0.00  0.00    +0.000 C 
ENDBRANCH  13  14
ENDBRANCH  12  13
ENDBRANCH  11  12
ENDBRANCH  10  11
ENDBRANCH   3   5
BRANCH   2  20
ATOM     20  C   UNL     1       1.906   8.489  17.625  0.00  0.00    +0.000 C 
BRANCH  20  21
ATOM     21  C   UNL     1       1.216   9.117  18.820  0.00  0.00    +0.000 A 
ATOM     22  N   UNL     1       0.279   9.994  18.648  0.00  0.00    +0.000 NA
ATOM     23  C   UNL     1      -0.387  10.491  19.755  0.00  0.00    +0.000 A 
ATOM     24  C   UNL     1      -0.053  10.098  20.993  0.00  0.00    +0.000 A 
ATOM     25  C   UNL     1       1.035   9.136  21.188  0.00  0.00    +0.000 A 
ATOM     26  O   UNL     1       1.389   8.813  22.311  0.00  0.00    +0.000 OA
ATOM     27  N   UNL     1       1.592   8.663  20.052  0.00  0.00    +0.000 N 
ATOM     28  H   UNL     1       2.405   8.069  20.165  0.00  0.00    +0.000 HD
BRANCH  23  29
ATOM     29  N   UNL     1      -1.394  11.439  19.576  0.00  0.00    +0.000 N 
ATOM     30  C   UNL     1      -1.676  12.498  20.561  0.00  0.00    +0.000 C 
ATOM     31  C   UNL     1      -3.198  12.582  20.799  0.00  0.00    +0.000 C 
ATOM     32  O   UNL     1      -3.944  12.734  19.576  0.00  0.00    +0.000 OA
ATOM     33  C   UNL     1      -3.651  11.656  18.670  0.00  0.00    +0.000 C 
ATOM     34  C   UNL     1      -2.158  11.630  18.331  0.00  0.00    +0.000 C 
ENDBRANCH  23  29
ENDBRANCH  20  21
ENDBRANCH   2  20
TORSDOF 8
ENDMDL
MODEL 6
REMARK VINA RESULT:      -7.6      2.888      3.924
REMARK  Name = 
REMARK  8 active torsions:
REMARK  status: ('A' for Active; 'I' for Inactive)
REMARK    1  A    between atoms: C_2  and  C_3
REMARK    2  A    between atoms: C_3  and  C_4
REMARK    3  A    between atoms: C_6  and  N_7
REMARK    4  A    between atoms: N_17  and  C_18
REMARK    5  A    between atoms: C_23  and  O_24
REMARK    6  A    between atoms: O_24  and  C_25
REMARK    7  A    between atoms: C_25  and  C_26
REMARK    8  A    between atoms: C_26  and  N_27
REMARK                            x       y       z     vdW  Elec       q    Type
REMARK                         _______ _______ _______ _____ _____    ______ ____
ROOT
ATOM      1  O   UNL     1       2.087   7.443  19.802  0.00  0.00    +0.000 OA
ATOM      2  C   UNL     1       2.306   7.704  18.617  0.00  0.00    +0.000 C 
ATOM      3  N   UNL     1       2.639   6.761  17.642  0.00  0.00    +0.000 N 
ATOM      4  H   UNL     1       2.430   6.953  16.670  0.00  0.00    +0.000 HD
ENDROOT
BRANCH   3   5
ATOM      5  C   UNL     1       2.867   5.403  17.997  0.00  0.00    +0.000 A 
ATOM      6  C   UNL     1       1.730   4.586  18.169  0.00  0.00    +0.000 A 
ATOM      7  C   UNL     1       1.844   3.226  18.428  0.00  0.00    +0.000 A 
ATOM      8  C   UNL     1       3.103   2.654  18.501  0.00  0.00    +0.000 A 
ATOM      9  C   UNL     1       4.241   3.456  18.377  0.00  0.00    +0.000 A 
ATOM     10  C   UNL     1       4.156   4.847  18.171  0.00  0.00    +0.000 A 
BRANCH  10  11
ATOM     11  O   UNL     1       5.287   5.653  18.077  0.00  0.00    +0.000 OA
BRANCH  11  12
ATOM     12  C   UNL     1       5.530   6.193  16.747  0.00  0.00    +0.000 C 
BRANCH  12  13
ATOM     13  C   UNL     1       6.663   5.480  15.972  0.00  0.00    +0.000 C 
BRANCH  13  14
ATOM     14  N   UNL     1       6.390   5.234  14.520  0.00  0.00    +0.000 NA
ATOM     15  C   UNL     1       7.673   5.083  13.803  0.00  0.00    +0.000 C 
ATOM     16  C   UNL     1       7.507   4.788  12.308  0.00  0.00    +0.000 C 
ATOM     17  C   UNL     1       6.647   3.554  12.081  0.00  0.00    +0.000 C 
ATOM     18  C   UNL     1       5.322   3.712  12.813  0.00  0.00    +0.000 C 
ATOM     19  C   UNL     1       5.520   4.064  14.295  0.00  0.00    +0.000 C 
ENDBRANCH  13  14
ENDBRANCH  12  13
ENDBRANCH  11  12
ENDBRANCH  10  11
ENDBRANCH   3   5
BRANCH   2  20
ATOM     20  C   UNL     1       2.139   9.124  18.139  0.00  0.00    +0.000 C 
BRANCH  20  21
ATOM     21  C   UNL     1       1.004   9.855  18.830  0.00  0.00    +0.000 A 
ATOM     22  N   UNL     1      -0.050  10.204  18.163  0.00  0.00    +0.000 NA
ATOM     23  C   UNL     1      -1.103  10.798  18.836  0.00  0.00    +0.000 A 
ATOM     24  C   UNL     1      -1.030  11.039  20.155  0.00  0.00    +0.000 A 
ATOM     25  C   UNL     1       0.180  10.679  20.899  0.00  0.00    +0.000 A 
ATOM     26  O   UNL     1       0.285  10.945  22.085  0.00  0.00    +0.000 OA
ATOM     27  N   UNL     1       1.135  10.056  20.174  0.00  0.00    +0.000 N 
ATOM     28  H   UNL     1       2.014   9.882  20.646  0.00  0.00    +0.000 HD
BRANCH  23  29
ATOM     29  N   UNL     1      -2.239  11.181  18.124  0.00  0.00    +0.000 N 
ATOM     30  C   UNL     1      -3.407  11.811  18.764  0.00  0.00    +0.000 C 
ATOM     31  C   UNL     1      -4.697  11.135  18.253  0.00  0.00    +0.000 C 
ATOM     32  O   UNL     1      -4.781  11.115  16.815  0.00  0.00    +0.000 OA
ATOM     33  C   UNL     1      -3.631  10.460  16.251  0.00  0.00    +0.000 C 
ATOM     34  C   UNL     1      -2.346  11.190  16.655  0.00  0.00    +0.000 C 
ENDBRANCH  23  29
ENDBRANCH  20  21
ENDBRANCH   2  20
TORSDOF 8
ENDMDL
MODEL 7
REMARK VINA RESULT:      -7.5      1.714      4.659
REMARK  Name = 
REMARK  8 active torsions:
REMARK  status: ('A' for Active; 'I' for Inactive)
REMARK    1  A    between atoms: C_2  and  C_3
REMARK    2  A    between atoms: C_3  and  C_4
REMARK    3  A    between atoms: C_6  and  N_7
REMARK    4  A    between atoms: N_17  and  C_18
REMARK    5  A    between atoms: C_23  and  O_24
REMARK    6  A    between atoms: O_24  and  C_25
REMARK    7  A    between atoms: C_25  and  C_26
REMARK    8  A    between atoms: C_26  and  N_27
REMARK                            x       y       z     vdW  Elec       q    Type
REMARK                         _______ _______ _______ _____ _____    ______ ____
ROOT
ATOM      1  O   UNL     1       3.247   6.726  19.061  0.00  0.00    +0.000 OA
ATOM      2  C   UNL     1       3.243   7.305  17.973  0.00  0.00    +0.000 C 
ATOM      3  N   UNL     1       4.237   7.181  17.000  0.00  0.00    +0.000 N 
ATOM      4  H   UNL     1       4.008   7.349  16.028  0.00  0.00    +0.000 HD
ENDROOT
BRANCH   3   5
ATOM      5  C   UNL     1       5.420   6.437  17.265  0.00  0.00    +0.000 A 
ATOM      6  C   UNL     1       6.456   7.104  17.951  0.00  0.00    +0.000 A 
ATOM      7  C   UNL     1       7.616   6.444  18.338  0.00  0.00    +0.000 A 
ATOM      8  C   UNL     1       7.750   5.095  18.060  0.00  0.00    +0.000 A 
ATOM      9  C   UNL     1       6.754   4.428  17.342  0.00  0.00    +0.000 A 
ATOM     10  C   UNL     1       5.593   5.085  16.887  0.00  0.00    +0.000 A 
BRANCH  10  11
ATOM     11  O   UNL     1       4.612   4.431  16.147  0.00  0.00    +0.000 OA
BRANCH  11  12
ATOM     12  C   UNL     1       3.970   3.327  16.846  0.00  0.00    +0.000 C 
BRANCH  12  13
ATOM     13  C   UNL     1       2.597   3.683  17.462  0.00  0.00    +0.000 C 
BRANCH  13  14
ATOM     14  N   UNL     1       2.300   3.041  18.782  0.00  0.00    +0.000 NA
ATOM     15  C   UNL     1       3.516   3.065  19.620  0.00  0.00    +0.000 C 
ATOM     16  C   UNL     1       3.310   2.465  21.015  0.00  0.00    +0.000 C 
ATOM     17  C   UNL     1       2.171   3.154  21.750  0.00  0.00    +0.000 C 
ATOM     18  C   UNL     1       0.915   3.122  20.892  0.00  0.00    +0.000 C 
ATOM     19  C   UNL     1       1.167   3.677  19.481  0.00  0.00    +0.000 C 
ENDBRANCH  13  14
ENDBRANCH  12  13
ENDBRANCH  11  12
ENDBRANCH  10  11
ENDBRANCH   3   5
BRANCH   2  20
ATOM     20  C   UNL     1       2.056   8.160  17.606  0.00  0.00    +0.000 C 
BRANCH  20  21
ATOM     21  C   UNL     1       1.664   9.136  18.698  0.00  0.00    +0.000 A 
ATOM     22  N   UNL     1       1.615  10.406  18.453  0.00  0.00    +0.000 NA
ATOM     23  C   UNL     1       1.178  11.265  19.447  0.00  0.00    +0.000 A 
ATOM     24  C   UNL     1       0.838  10.799  20.659  0.00  0.00    +0.000 A 
ATOM     25  C   UNL     1       0.934   9.365  20.946  0.00  0.00    +0.000 A 
ATOM     26  O   UNL     1       0.684   8.934  22.060  0.00  0.00    +0.000 OA
ATOM     27  N   UNL     1       1.316   8.596  19.904  0.00  0.00    +0.000 N 
ATOM     28  H   UNL     1       1.478   7.616  20.105  0.00  0.00    +0.000 HD
BRANCH  23  29
ATOM     29  N   UNL     1       1.127  12.634  19.191  0.00  0.00    +0.000 N 
ATOM     30  C   UNL     1       1.962  13.285  18.165  0.00  0.00    +0.000 C 
ATOM     31  C   UNL     1       2.590  14.565  18.755  0.00  0.00    +0.000 C 
ATOM     32  O   UNL     1       1.612  15.449  19.333  0.00  0.00    +0.000 OA
ATOM     33  C   UNL     1       0.852  14.768  20.347  0.00  0.00    +0.000 C 
ATOM     34  C   UNL     1       0.126  13.558  19.751  0.00  0.00    +0.000 C 
ENDBRANCH  23  29
ENDBRANCH  20  21
ENDBRANCH   2  20
TORSDOF 8
ENDMDL
MODEL 8
REMARK VINA RESULT:      -7.5      1.728      4.650
REMARK  Name = 
REMARK  8 active torsions:
REMARK  status: ('A' for Active; 'I' for Inactive)
REMARK    1  A    between atoms: C_2  and  C_3
REMARK    2  A    between atoms: C_3  and  C_4
REMARK    3  A    between atoms: C_6  and  N_7
REMARK    4  A    between atoms: N_17  and  C_18
REMARK    5  A    between atoms: C_23  and  O_24
REMARK    6  A    between atoms: O_24  and  C_25
REMARK    7  A    between atoms: C_25  and  C_26
REMARK    8  A    between atoms: C_26  and  N_27
REMARK                            x       y       z     vdW  Elec       q    Type
REMARK                         _______ _______ _______ _____ _____    ______ ____
ROOT
ATOM      1  O   UNL     1       3.125   6.686  19.007  0.00  0.00    +0.000 OA
ATOM      2  C   UNL     1       3.136   7.417  18.014  0.00  0.00    +0.000 C 
ATOM      3  N   UNL     1       4.146   7.437  17.050  0.00  0.00    +0.000 N 
ATOM      4  H   UNL     1       3.932   7.744  16.110  0.00  0.00    +0.000 HD
ENDROOT
BRANCH   3   5
ATOM      5  C   UNL     1       5.327   6.665  17.224  0.00  0.00    +0.000 A 
ATOM      6  C   UNL     1       6.448   7.322  17.771  0.00  0.00    +0.000 A 
ATOM      7  C   UNL     1       7.622   6.638  18.064  0.00  0.00    +0.000 A 
ATOM      8  C   UNL     1       7.686   5.275  17.832  0.00  0.00    +0.000 A 
ATOM      9  C   UNL     1       6.601   4.616  17.249  0.00  0.00    +0.000 A 
ATOM     10  C   UNL     1       5.419   5.293  16.889  0.00  0.00    +0.000 A 
BRANCH  10  11
ATOM     11  O   UNL     1       4.348   4.645  16.281  0.00  0.00    +0.000 OA
BRANCH  11  12
ATOM     12  C   UNL     1       4.103   3.298  16.779  0.00  0.00    +0.000 C 
BRANCH  12  13
ATOM     13  C   UNL     1       2.700   3.101  17.399  0.00  0.00    +0.000 C 
BRANCH  13  14
ATOM     14  N   UNL     1       2.593   3.422  18.859  0.00  0.00    +0.000 NA
ATOM     15  C   UNL     1       1.182   3.699  19.194  0.00  0.00    +0.000 C 
ATOM     16  C   UNL     1       0.954   4.002  20.679  0.00  0.00    +0.000 C 
ATOM     17  C   UNL     1       1.475   2.877  21.558  0.00  0.00    +0.000 C 
ATOM     18  C   UNL     1       2.932   2.596  21.220  0.00  0.00    +0.000 C 
ATOM     19  C   UNL     1       3.138   2.353  19.717  0.00  0.00    +0.000 C 
ENDBRANCH  13  14
ENDBRANCH  12  13
ENDBRANCH  11  12
ENDBRANCH  10  11
ENDBRANCH   3   5
BRANCH   2  20
ATOM     20  C   UNL     1       1.951   8.314  17.756  0.00  0.00    +0.000 C 
BRANCH  20  21
ATOM     21  C   UNL     1       1.579   9.167  18.952  0.00  0.00    +0.000 A 
ATOM     22  N   UNL     1       1.474  10.452  18.832  0.00  0.00    +0.000 NA
ATOM     23  C   UNL     1       1.055  11.197  19.921  0.00  0.00    +0.000 A 
ATOM     24  C   UNL     1       0.789  10.607  21.097  0.00  0.00    +0.000 A 
ATOM     25  C   UNL     1       0.948   9.157  21.242  0.00  0.00    +0.000 A 
ATOM     26  O   UNL     1       0.766   8.614  22.320  0.00  0.00    +0.000 OA
ATOM     27  N   UNL     1       1.307   8.505  20.115  0.00  0.00    +0.000 N 
ATOM     28  H   UNL     1       1.512   7.517  20.215  0.00  0.00    +0.000 HD
BRANCH  23  29
ATOM     29  N   UNL     1       0.945  12.581  19.799  0.00  0.00    +0.000 N 
ATOM     30  C   UNL     1      -0.345  13.262  19.588  0.00  0.00    +0.000 C 
ATOM     31  C   UNL     1      -0.193  14.309  18.464  0.00  0.00    +0.000 C 
ATOM     32  O   UNL     1       0.897  15.221  18.698  0.00  0.00    +0.000 OA
ATOM     33  C   UNL     1       2.131  14.500  18.864  0.00  0.00    +0.000 C 
ATOM     34  C   UNL     1       2.035  13.537  20.051  0.00  0.00    +0.000 C 
ENDBRANCH  23  29
ENDBRANCH  20  21
ENDBRANCH   2  20
TORSDOF 8
ENDMDL
MODEL 9
REMARK VINA RESULT:      -7.5      3.036      4.081
REMARK  Name = 
REMARK  8 active torsions:
REMARK  status: ('A' for Active; 'I' for Inactive)
REMARK    1  A    between atoms: C_2  and  C_3
REMARK    2  A    between atoms: C_3  and  C_4
REMARK    3  A    between atoms: C_6  and  N_7
REMARK    4  A    between atoms: N_17  and  C_18
REMARK    5  A    between atoms: C_23  and  O_24
REMARK    6  A    between atoms: O_24  and  C_25
REMARK    7  A    between atoms: C_25  and  C_26
REMARK    8  A    between atoms: C_26  and  N_27
REMARK                            x       y       z     vdW  Elec       q    Type
REMARK                         _______ _______ _______ _____ _____    ______ ____
ROOT
ATOM      1  O   UNL     1       2.453   7.377  19.818  0.00  0.00    +0.000 OA
ATOM      2  C   UNL     1       2.370   7.610  18.610  0.00  0.00    +0.000 C 
ATOM      3  N   UNL     1       2.357   6.635  17.610  0.00  0.00    +0.000 N 
ATOM      4  H   UNL     1       1.914   6.837  16.722  0.00  0.00    +0.000 HD
ENDROOT
BRANCH   3   5
ATOM      5  C   UNL     1       2.563   5.265  17.932  0.00  0.00    +0.000 A 
ATOM      6  C   UNL     1       1.556   4.625  18.682  0.00  0.00    +0.000 A 
ATOM      7  C   UNL     1       1.617   3.268  18.973  0.00  0.00    +0.000 A 
ATOM      8  C   UNL     1       2.682   2.521  18.499  0.00  0.00    +0.000 A 
ATOM      9  C   UNL     1       3.712   3.148  17.792  0.00  0.00    +0.000 A 
ATOM     10  C   UNL     1       3.705   4.533  17.531  0.00  0.00    +0.000 A 
BRANCH  10  11
ATOM     11  O   UNL     1       4.743   5.164  16.853  0.00  0.00    +0.000 OA
BRANCH  11  12
ATOM     12  C   UNL     1       6.034   4.502  16.982  0.00  0.00    +0.000 C 
BRANCH  12  13
ATOM     13  C   UNL     1       7.104   5.006  15.986  0.00  0.00    +0.000 C 
BRANCH  13  14
ATOM     14  N   UNL     1       6.711   4.955  14.541  0.00  0.00    +0.000 NA
ATOM     15  C   UNL     1       7.888   5.265  13.705  0.00  0.00    +0.000 C 
ATOM     16  C   UNL     1       7.603   5.201  12.200  0.00  0.00    +0.000 C 
ATOM     17  C   UNL     1       7.039   3.846  11.802  0.00  0.00    +0.000 C 
ATOM     18  C   UNL     1       5.821   3.529  12.658  0.00  0.00    +0.000 C 
ATOM     19  C   UNL     1       6.121   3.657  14.159  0.00  0.00    +0.000 C 
ENDBRANCH  13  14
ENDBRANCH  12  13
ENDBRANCH  11  12
ENDBRANCH  10  11
ENDBRANCH   3   5
BRANCH   2  20
ATOM     20  C   UNL     1       2.194   9.036  18.152  0.00  0.00    +0.000 C 
BRANCH  20  21
ATOM     21  C   UNL     1       0.912   9.669  18.656  0.00  0.00    +0.000 A 
ATOM     22  N   UNL     1      -0.136   9.714  17.899  0.00  0.00    +0.000 NA
ATOM     23  C   UNL     1      -1.315  10.226  18.413  0.00  0.00    +0.000 A 
ATOM     24  C   UNL     1      -1.370  10.699  19.668  0.00  0.00    +0.000 A 
ATOM     25  C   UNL     1      -0.170  10.685  20.510  0.00  0.00    +0.000 A 
ATOM     26  O   UNL     1      -0.190  11.165  21.632  0.00  0.00    +0.000 OA
ATOM     27  N   UNL     1       0.918  10.119  19.946  0.00  0.00    +0.000 N 
ATOM     28  H   UNL     1       1.781  10.181  20.475  0.00  0.00    +0.000 HD
BRANCH  23  29
ATOM     29  N   UNL     1      -2.447  10.281  17.601  0.00  0.00    +0.000 N 
ATOM     30  C   UNL     1      -2.452   9.803  16.207  0.00  0.00    +0.000 C 
ATOM     31  C   UNL     1      -3.143  10.851  15.310  0.00  0.00    +0.000 C 
ATOM     32  O   UNL     1      -4.452  11.214  15.788  0.00  0.00    +0.000 OA
ATOM     33  C   UNL     1      -4.379  11.702  17.139  0.00  0.00    +0.000 C 
ATOM     34  C   UNL     1      -3.800  10.629  18.066  0.00  0.00    +0.000 C 
ENDBRANCH  23  29
ENDBRANCH  20  21
ENDBRANCH   2  20
TORSDOF 8
ENDMDL
