MODEL 1
REMARK VINA RESULT:      -7.6      0.000      0.000
REMARK  Name = 
REMARK  13 active torsions:
REMARK  status: ('A' for Active; 'I' for Inactive)
REMARK    1  A    between atoms: C_1  and  C_2
REMARK    2  A    between atoms: C_2  and  C_3
REMARK    3  A    between atoms: C_3  and  C_4
REMARK    4  A    between atoms: C_4  and  C_5
REMARK    5  A    between atoms: C_5  and  C_6
REMARK    6  A    between atoms: C_6  and  C_7
REMARK    7  A    between atoms: C_7  and  N_8
REMARK    8  A    between atoms: C_9  and  O_11
REMARK    9  A    between atoms: O_11  and  C_12
REMARK   10  A    between atoms: N_19  and  C_20
REMARK   11  A    between atoms: C_21  and  C_22
REMARK   12  A    between atoms: C_25  and  C_26
REMARK   13  A    between atoms: N_29  and  C_30
REMARK                            x       y       z     vdW  Elec       q    Type
REMARK                         _______ _______ _______ _____ _____    ______ ____
ROOT
ATOM      1  C   UNL     1       2.582   7.407  18.607  0.00  0.00    +0.000 A 
ATOM      2  C   UNL     1       2.392   8.428  17.685  0.00  0.00    +0.000 A 
ATOM      3  C   UNL     1       1.667   9.564  18.044  0.00  0.00    +0.000 A 
ATOM      4  C   UNL     1       1.086   9.708  19.314  0.00  0.00    +0.000 A 
ATOM      5  C   UNL     1       1.291   8.657  20.247  0.00  0.00    +0.000 A 
ATOM      6  C   UNL     1       2.021   7.502  19.879  0.00  0.00    +0.000 A 
ATOM      7  C   UNL     1       0.674   8.735  21.621  0.00  0.00    +0.000 C 
ATOM      8  N   UNL     1       0.361  10.099  22.059  0.00  0.00    +0.000 NA
ATOM      9  C   UNL     1      -0.383  10.053  23.319  0.00  0.00    +0.000 C 
ATOM     10  C   UNL     1      -0.374  10.756  20.954  0.00  0.00    +0.000 C 
ATOM     11  N   UNL     1       0.308  10.827  19.647  0.00  0.00    +0.000 N 
ATOM     12  C   UNL     1       0.505  12.063  18.909  0.00  0.00    +0.000 C 
ENDROOT
BRANCH  10  13
ATOM     13  C   UNL     1      -0.946  12.108  21.418  0.00  0.00    +0.000 A 
ATOM     14  C   UNL     1      -0.141  13.038  22.097  0.00  0.00    +0.000 A 
ATOM     15  C   UNL     1      -0.716  14.129  22.749  0.00  0.00    +0.000 A 
ATOM     16  C   UNL     1      -2.102  14.318  22.725  0.00  0.00    +0.000 A 
ATOM     17  C   UNL     1      -2.744  15.387  23.557  0.00  0.00    +0.000 C 
ATOM     18  C   UNL     1      -2.897  13.456  21.962  0.00  0.00    +0.000 A 
ATOM     19  C   UNL     1      -2.327  12.360  21.312  0.00  0.00    +0.000 A 
ENDBRANCH  10  13
BRANCH   1  20
ATOM     20  O   UNL     1       3.238   6.222  18.220  0.00  0.00    +0.000 OA
BRANCH  20  22
ATOM     21  N   UNL     1       5.448   5.752  18.444  0.00  0.00    +0.000 N 
ATOM     22  C   UNL     1       4.508   6.368  17.660  0.00  0.00    +0.000 C 
ATOM     23  O   UNL     1       4.766   6.944  16.611  0.00  0.00    +0.000 OA
ATOM     24  H   UNL     1       5.119   5.292  19.281  0.00  0.00    +0.000 HD
BRANCH  21  25
ATOM     25  C   UNL     1       6.869   5.888  18.199  0.00  0.00    +0.000 C 
BRANCH  25  26
ATOM     26  C   UNL     1       7.435   4.663  17.481  0.00  0.00    +0.000 C 
BRANCH  26  27
ATOM     27  C   UNL     1       7.265   4.759  15.963  0.00  0.00    +0.000 C 
BRANCH  27  28
ATOM     28  C   UNL     1       6.207   3.785  15.452  0.00  0.00    +0.000 C 
BRANCH  28  29
ATOM     29  C   UNL     1       5.584   4.294  14.152  0.00  0.00    +0.000 C 
BRANCH  29  31
ATOM     30  C   UNL     1       4.967   3.345  11.907  0.00  0.00    +0.000 C 
ATOM     31  C   UNL     1       6.064   3.484  12.949  0.00  0.00    +0.000 C 
ENDBRANCH  29  31
ENDBRANCH  28  29
ENDBRANCH  27  28
ENDBRANCH  26  27
ENDBRANCH  25  26
ENDBRANCH  21  25
ENDBRANCH  20  22
ENDBRANCH   1  20
TORSDOF 9
ENDMDL
MODEL 2
REMARK VINA RESULT:      -7.6      1.844      2.246
REMARK  Name = 
REMARK  13 active torsions:
REMARK  status: ('A' for Active; 'I' for Inactive)
REMARK    1  A    between atoms: C_1  and  C_2
REMARK    2  A    between atoms: C_2  and  C_3
REMARK    3  A    between atoms: C_3  and  C_4
REMARK    4  A    between atoms: C_4  and  C_5
REMARK    5  A    between atoms: C_5  and  C_6
REMARK    6  A    between atoms: C_6  and  C_7
REMARK    7  A    between atoms: C_7  and  N_8
REMARK    8  A    between atoms: C_9  and  O_11
REMARK    9  A    between atoms: O_11  and  C_12
REMARK   10  A    between atoms: N_19  and  C_20
REMARK   11  A    between atoms: C_21  and  C_22
REMARK   12  A    between atoms: C_25  and  C_26
REMARK   13  A    between atoms: N_29  and  C_30
REMARK                            x       y       z     vdW  Elec       q    Type
REMARK                         _______ _______ _______ _____ _____    ______ ____
ROOT
ATOM      1  C   UNL     1       2.839   5.884  19.344  0.00  0.00    +0.000 A 
ATOM      2  C   UNL     1       2.927   6.662  18.195  0.00  0.00    +0.000 A 
ATOM      3  C   UNL     1       2.362   7.937  18.172  0.00  0.00    +0.000 A 
ATOM      4  C   UNL     1       1.670   8.466  19.273  0.00  0.00    +0.000 A 
ATOM      5  C   UNL     1       1.589   7.661  20.440  0.00  0.00    +0.000 A 
ATOM      6  C   UNL     1       2.157   6.365  20.460  0.00  0.00    +0.000 A 
ATOM      7  C   UNL     1       0.839   8.156  21.650  0.00  0.00    +0.000 C 
ATOM      8  N   UNL     1       0.706   9.616  21.715  0.00  0.00    +0.000 NA
ATOM      9  C   UNL     1      -0.177   9.981  22.824  0.00  0.00    +0.000 C 
ATOM     10  C   UNL     1       0.222  10.070  20.391  0.00  0.00    +0.000 C 
ATOM     11  N   UNL     1       1.053   9.725  19.221  0.00  0.00    +0.000 N 
ATOM     12  C   UNL     1       1.535  10.703  18.261  0.00  0.00    +0.000 C 
ENDROOT
BRANCH  10  13
ATOM     13  C   UNL     1      -0.170  11.558  20.443  0.00  0.00    +0.000 A 
ATOM     14  C   UNL     1      -1.385  12.004  19.895  0.00  0.00    +0.000 A 
ATOM     15  C   UNL     1      -1.614  13.366  19.698  0.00  0.00    +0.000 A 
ATOM     16  C   UNL     1      -0.641  14.307  20.055  0.00  0.00    +0.000 A 
ATOM     17  C   UNL     1      -0.807  15.753  19.696  0.00  0.00    +0.000 C 
ATOM     18  C   UNL     1       0.524  13.876  20.699  0.00  0.00    +0.000 A 
ATOM     19  C   UNL     1       0.760  12.514  20.892  0.00  0.00    +0.000 A 
ENDBRANCH  10  13
BRANCH   1  20
ATOM     20  O   UNL     1       3.331   4.565  19.339  0.00  0.00    +0.000 OA
BRANCH  20  22
ATOM     21  N   UNL     1       4.332   4.186  17.336  0.00  0.00    +0.000 N 
ATOM     22  C   UNL     1       4.543   4.354  18.680  0.00  0.00    +0.000 C 
ATOM     23  O   UNL     1       5.648   4.335  19.205  0.00  0.00    +0.000 OA
ATOM     24  H   UNL     1       3.377   4.237  17.011  0.00  0.00    +0.000 HD
BRANCH  21  25
ATOM     25  C   UNL     1       5.389   3.780  16.432  0.00  0.00    +0.000 C 
BRANCH  25  26
ATOM     26  C   UNL     1       6.147   4.986  15.878  0.00  0.00    +0.000 C 
BRANCH  26  27
ATOM     27  C   UNL     1       6.605   4.761  14.435  0.00  0.00    +0.000 C 
BRANCH  27  28
ATOM     28  C   UNL     1       5.697   3.776  13.703  0.00  0.00    +0.000 C 
BRANCH  28  29
ATOM     29  C   UNL     1       6.198   3.531  12.281  0.00  0.00    +0.000 C 
BRANCH  29  31
ATOM     30  C   UNL     1       4.016   3.209  11.074  0.00  0.00    +0.000 C 
ATOM     31  C   UNL     1       5.301   2.543  11.535  0.00  0.00    +0.000 C 
ENDBRANCH  29  31
ENDBRANCH  28  29
ENDBRANCH  27  28
ENDBRANCH  26  27
ENDBRANCH  25  26
ENDBRANCH  21  25
ENDBRANCH  20  22
ENDBRANCH   1  20
TORSDOF 9
ENDMDL
MODEL 3
REMARK VINA RESULT:      -7.5      1.694      2.043
REMARK  Name = 
REMARK  13 active torsions:
REMARK  status: ('A' for Active; 'I' for Inactive)
REMARK    1  A    between atoms: C_1  and  C_2
REMARK    2  A    between atoms: C_2  and  C_3
REMARK    3  A    between atoms: C_3  and  C_4
REMARK    4  A    between atoms: C_4  and  C_5
REMARK    5  A    between atoms: C_5  and  C_6
REMARK    6  A    between atoms: C_6  and  C_7
REMARK    7  A    between atoms: C_7  and  N_8
REMARK    8  A    between atoms: C_9  and  O_11
REMARK    9  A    between atoms: O_11  and  C_12
REMARK   10  A    between atoms: N_19  and  C_20
REMARK   11  A    between atoms: C_21  and  C_22
REMARK   12  A    between atoms: C_25  and  C_26
REMARK   13  A    between atoms: N_29  and  C_30
REMARK                            x       y       z     vdW  Elec       q    Type
REMARK                         _______ _______ _______ _____ _____    ______ ____
ROOT
ATOM      1  C   UNL     1       3.067   5.581  19.231  0.00  0.00    +0.000 A 
ATOM      2  C   UNL     1       3.247   6.315  18.065  0.00  0.00    +0.000 A 
ATOM      3  C   UNL     1       2.728   7.607  17.967  0.00  0.00    +0.000 A 
ATOM      4  C   UNL     1       1.992   8.195  19.008  0.00  0.00    +0.000 A 
ATOM      5  C   UNL     1       1.818   7.434  20.195  0.00  0.00    +0.000 A 
ATOM      6  C   UNL     1       2.339   6.121  20.289  0.00  0.00    +0.000 A 
ATOM      7  C   UNL     1       1.018   7.995  21.343  0.00  0.00    +0.000 C 
ATOM      8  N   UNL     1       0.931   9.459  21.352  0.00  0.00    +0.000 NA
ATOM      9  C   UNL     1       0.000   9.891  22.396  0.00  0.00    +0.000 C 
ATOM     10  C   UNL     1       0.539   9.883  19.988  0.00  0.00    +0.000 C 
ATOM     11  N   UNL     1       1.423   9.471  18.880  0.00  0.00    +0.000 N 
ATOM     12  C   UNL     1       1.992  10.399  17.918  0.00  0.00    +0.000 C 
ENDROOT
BRANCH  10  13
ATOM     13  C   UNL     1       0.196  11.384  19.969  0.00  0.00    +0.000 A 
ATOM     14  C   UNL     1       1.053  12.327  20.561  0.00  0.00    +0.000 A 
ATOM     15  C   UNL     1       0.620  13.635  20.783  0.00  0.00    +0.000 A 
ATOM     16  C   UNL     1      -0.670  14.027  20.408  0.00  0.00    +0.000 A 
ATOM     17  C   UNL     1      -1.203  15.375  20.791  0.00  0.00    +0.000 C 
ATOM     18  C   UNL     1      -1.488  13.122  19.722  0.00  0.00    +0.000 A 
ATOM     19  C   UNL     1      -1.060  11.811  19.503  0.00  0.00    +0.000 A 
ENDBRANCH  10  13
BRANCH   1  20
ATOM     20  O   UNL     1       3.513   4.247  19.298  0.00  0.00    +0.000 OA
BRANCH  20  22
ATOM     21  N   UNL     1       5.554   4.435  18.320  0.00  0.00    +0.000 N 
ATOM     22  C   UNL     1       4.334   3.812  18.257  0.00  0.00    +0.000 C 
ATOM     23  O   UNL     1       4.035   2.982  17.408  0.00  0.00    +0.000 OA
ATOM     24  H   UNL     1       5.696   5.092  19.074  0.00  0.00    +0.000 HD
BRANCH  21  25
ATOM     25  C   UNL     1       6.543   4.307  17.270  0.00  0.00    +0.000 C 
BRANCH  25  26
ATOM     26  C   UNL     1       6.620   5.570  16.413  0.00  0.00    +0.000 C 
BRANCH  26  27
ATOM     27  C   UNL     1       5.504   5.623  15.369  0.00  0.00    +0.000 C 
BRANCH  27  28
ATOM     28  C   UNL     1       5.480   4.363  14.506  0.00  0.00    +0.000 C 
BRANCH  28  29
ATOM     29  C   UNL     1       6.592   4.403  13.458  0.00  0.00    +0.000 C 
BRANCH  29  31
ATOM     30  C   UNL     1       4.905   3.420  11.875  0.00  0.00    +0.000 C 
ATOM     31  C   UNL     1       6.349   3.384  12.346  0.00  0.00    +0.000 C 
ENDBRANCH  29  31
ENDBRANCH  28  29
ENDBRANCH  27  28
ENDBRANCH  26  27
ENDBRANCH  25  26
ENDBRANCH  21  25
ENDBRANCH  20  22
ENDBRANCH   1  20
TORSDOF 9
ENDMDL
MODEL 4
REMARK VINA RESULT:      -7.5      2.255      3.662
REMARK  Name = 
REMARK  13 active torsions:
REMARK  status: ('A' for Active; 'I' for Inactive)
REMARK    1  A    between atoms: C_1  and  C_2
REMARK    2  A    between atoms: C_2  and  C_3
REMARK    3  A    between atoms: C_3  and  C_4
REMARK    4  A    between atoms: C_4  and  C_5
REMARK    5  A    between atoms: C_5  and  C_6
REMARK    6  A    between atoms: C_6  and  C_7
REMARK    7  A    between atoms: C_7  and  N_8
REMARK    8  A    between atoms: C_9  and  O_11
REMARK    9  A    between atoms: O_11  and  C_12
REMARK   10  A    between atoms: N_19  and  C_20
REMARK   11  A    between atoms: C_21  and  C_22
REMARK   12  A    between atoms: C_25  and  C_26
REMARK   13  A    between atoms: N_29  and  C_30
REMARK                            x       y       z     vdW  Elec       q    Type
REMARK                         _______ _______ _______ _____ _____    ______ ____
ROOT
ATOM      1  C   UNL     1       3.210   5.934  18.937  0.00  0.00    +0.000 A 
ATOM      2  C   UNL     1       3.320   6.790  17.848  0.00  0.00    +0.000 A 
ATOM      3  C   UNL     1       2.710   8.044  17.883  0.00  0.00    +0.000 A 
ATOM      4  C   UNL     1       1.951   8.474  18.983  0.00  0.00    +0.000 A 
ATOM      5  C   UNL     1       1.849   7.590  20.090  0.00  0.00    +0.000 A 
ATOM      6  C   UNL     1       2.463   6.315  20.050  0.00  0.00    +0.000 A 
ATOM      7  C   UNL     1       1.029   7.977  21.294  0.00  0.00    +0.000 C 
ATOM      8  N   UNL     1       0.840   9.424  21.448  0.00  0.00    +0.000 NA
ATOM      9  C   UNL     1      -0.104   9.683  22.537  0.00  0.00    +0.000 C 
ATOM     10  C   UNL     1       0.398   9.949  20.136  0.00  0.00    +0.000 C 
ATOM     11  N   UNL     1       1.292   9.712  18.985  0.00  0.00    +0.000 N 
ATOM     12  C   UNL     1       1.780  10.768  18.115  0.00  0.00    +0.000 C 
ENDROOT
BRANCH  10  13
ATOM     13  C   UNL     1      -0.050  11.417  20.268  0.00  0.00    +0.000 A 
ATOM     14  C   UNL     1       0.747  12.356  20.944  0.00  0.00    +0.000 A 
ATOM     15  C   UNL     1       0.226  13.601  21.298  0.00  0.00    +0.000 A 
ATOM     16  C   UNL     1      -1.094  13.935  20.973  0.00  0.00    +0.000 A 
ATOM     17  C   UNL     1      -1.714  15.197  21.491  0.00  0.00    +0.000 C 
ATOM     18  C   UNL     1      -1.855  13.046  20.207  0.00  0.00    +0.000 A 
ATOM     19  C   UNL     1      -1.340  11.797  19.856  0.00  0.00    +0.000 A 
ENDBRANCH  10  13
BRANCH   1  20
ATOM     20  O   UNL     1       3.750   4.635  18.868  0.00  0.00    +0.000 OA
BRANCH  20  22
ATOM     21  N   UNL     1       5.980   5.059  18.820  0.00  0.00    +0.000 N 
ATOM     22  C   UNL     1       4.933   4.490  18.143  0.00  0.00    +0.000 C 
ATOM     23  O   UNL     1       5.045   3.925  17.063  0.00  0.00    +0.000 OA
ATOM     24  H   UNL     1       5.774   5.484  19.713  0.00  0.00    +0.000 HD
BRANCH  21  25
ATOM     25  C   UNL     1       7.294   5.209  18.229  0.00  0.00    +0.000 C 
BRANCH  25  26
ATOM     26  C   UNL     1       7.901   6.575  18.549  0.00  0.00    +0.000 C 
BRANCH  26  27
ATOM     27  C   UNL     1       7.272   7.691  17.713  0.00  0.00    +0.000 C 
BRANCH  27  28
ATOM     28  C   UNL     1       8.216   8.882  17.564  0.00  0.00    +0.000 C 
BRANCH  28  29
ATOM     29  C   UNL     1       8.865   9.231  18.903  0.00  0.00    +0.000 C 
BRANCH  29  31
ATOM     30  C   UNL     1       9.990  11.263  17.940  0.00  0.00    +0.000 C 
ATOM     31  C   UNL     1       9.085  10.737  19.041  0.00  0.00    +0.000 C 
ENDBRANCH  29  31
ENDBRANCH  28  29
ENDBRANCH  27  28
ENDBRANCH  26  27
ENDBRANCH  25  26
ENDBRANCH  21  25
ENDBRANCH  20  22
ENDBRANCH   1  20
TORSDOF 9
ENDMDL
MODEL 5
REMARK VINA RESULT:      -7.5      1.911      2.525
REMARK  Name = 
REMARK  13 active torsions:
REMARK  status: ('A' for Active; 'I' for Inactive)
REMARK    1  A    between atoms: C_1  and  C_2
REMARK    2  A    between atoms: C_2  and  C_3
REMARK    3  A    between atoms: C_3  and  C_4
REMARK    4  A    between atoms: C_4  and  C_5
REMARK    5  A    between atoms: C_5  and  C_6
REMARK    6  A    between atoms: C_6  and  C_7
REMARK    7  A    between atoms: C_7  and  N_8
REMARK    8  A    between atoms: C_9  and  O_11
REMARK    9  A    between atoms: O_11  and  C_12
REMARK   10  A    between atoms: N_19  and  C_20
REMARK   11  A    between atoms: C_21  and  C_22
REMARK   12  A    between atoms: C_25  and  C_26
REMARK   13  A    between atoms: N_29  and  C_30
REMARK                            x       y       z     vdW  Elec       q    Type
REMARK                         _______ _______ _______ _____ _____    ______ ____
ROOT
ATOM      1  C   UNL     1       3.539   5.612  18.856  0.00  0.00    +0.000 A 
ATOM      2  C   UNL     1       3.668   6.471  17.772  0.00  0.00    +0.000 A 
ATOM      3  C   UNL     1       3.030   7.712  17.787  0.00  0.00    +0.000 A 
ATOM      4  C   UNL     1       2.226   8.124  18.861  0.00  0.00    +0.000 A 
ATOM      5  C   UNL     1       2.105   7.236  19.963  0.00  0.00    +0.000 A 
ATOM      6  C   UNL     1       2.747   5.975  19.943  0.00  0.00    +0.000 A 
ATOM      7  C   UNL     1       1.237   7.604  21.139  0.00  0.00    +0.000 C 
ATOM      8  N   UNL     1       1.012   9.046  21.288  0.00  0.00    +0.000 NA
ATOM      9  C   UNL     1       0.027   9.284  22.345  0.00  0.00    +0.000 C 
ATOM     10  C   UNL     1       0.603   9.565  19.963  0.00  0.00    +0.000 C 
ATOM     11  N   UNL     1       1.540   9.348  18.842  0.00  0.00    +0.000 N 
ATOM     12  C   UNL     1       2.034  10.416  17.990  0.00  0.00    +0.000 C 
ENDROOT
BRANCH  10  13
ATOM     13  C   UNL     1       0.120  11.022  20.080  0.00  0.00    +0.000 A 
ATOM     14  C   UNL     1      -1.059  11.445  19.443  0.00  0.00    +0.000 A 
ATOM     15  C   UNL     1      -1.349  12.804  19.321  0.00  0.00    +0.000 A 
ATOM     16  C   UNL     1      -0.474  13.764  19.843  0.00  0.00    +0.000 A 
ATOM     17  C   UNL     1      -0.689  15.223  19.574  0.00  0.00    +0.000 C 
ATOM     18  C   UNL     1       0.645  13.346  20.571  0.00  0.00    +0.000 A 
ATOM     19  C   UNL     1       0.942  11.987  20.690  0.00  0.00    +0.000 A 
ENDBRANCH  10  13
BRANCH   1  20
ATOM     20  O   UNL     1       4.108   4.325  18.804  0.00  0.00    +0.000 OA
BRANCH  20  22
ATOM     21  N   UNL     1       6.065   4.435  17.658  0.00  0.00    +0.000 N 
ATOM     22  C   UNL     1       4.772   3.984  17.624  0.00  0.00    +0.000 C 
ATOM     23  O   UNL     1       4.291   3.358  16.689  0.00  0.00    +0.000 OA
ATOM     24  H   UNL     1       6.359   4.927  18.489  0.00  0.00    +0.000 HD
BRANCH  21  25
ATOM     25  C   UNL     1       6.936   4.375  16.502  0.00  0.00    +0.000 C 
BRANCH  25  26
ATOM     26  C   UNL     1       6.396   5.221  15.348  0.00  0.00    +0.000 C 
BRANCH  26  27
ATOM     27  C   UNL     1       6.774   4.638  13.985  0.00  0.00    +0.000 C 
BRANCH  27  28
ATOM     28  C   UNL     1       5.878   3.460  13.609  0.00  0.00    +0.000 C 
BRANCH  28  29
ATOM     29  C   UNL     1       5.531   3.496  12.121  0.00  0.00    +0.000 C 
BRANCH  29  31
ATOM     30  C   UNL     1       7.172   1.856  11.150  0.00  0.00    +0.000 C 
ATOM     31  C   UNL     1       5.711   2.124  11.472  0.00  0.00    +0.000 C 
ENDBRANCH  29  31
ENDBRANCH  28  29
ENDBRANCH  27  28
ENDBRANCH  26  27
ENDBRANCH  25  26
ENDBRANCH  21  25
ENDBRANCH  20  22
ENDBRANCH   1  20
TORSDOF 9
ENDMDL
MODEL 6
REMARK VINA RESULT:      -7.5      1.327      2.059
REMARK  Name = 
REMARK  13 active torsions:
REMARK  status: ('A' for Active; 'I' for Inactive)
REMARK    1  A    between atoms: C_1  and  C_2
REMARK    2  A    between atoms: C_2  and  C_3
REMARK    3  A    between atoms: C_3  and  C_4
REMARK    4  A    between atoms: C_4  and  C_5
REMARK    5  A    between atoms: C_5  and  C_6
REMARK    6  A    between atoms: C_6  and  C_7
REMARK    7  A    between atoms: C_7  and  N_8
REMARK    8  A    between atoms: C_9  and  O_11
REMARK    9  A    between atoms: O_11  and  C_12
REMARK   10  A    between atoms: N_19  and  C_20
REMARK   11  A    between atoms: C_21  and  C_22
REMARK   12  A    between atoms: C_25  and  C_26
REMARK   13  A    between atoms: N_29  and  C_30
REMARK                            x       y       z     vdW  Elec       q    Type
REMARK                         _______ _______ _______ _____ _____    ______ ____
ROOT
ATOM      1  C   UNL     1       3.307   6.294  18.545  0.00  0.00    +0.000 A 
ATOM      2  C   UNL     1       3.311   7.270  17.555  0.00  0.00    +0.000 A 
ATOM      3  C   UNL     1       2.611   8.461  17.749  0.00  0.00    +0.000 A 
ATOM      4  C   UNL     1       1.865   8.707  18.913  0.00  0.00    +0.000 A 
ATOM      5  C   UNL     1       1.873   7.702  19.917  0.00  0.00    +0.000 A 
ATOM      6  C   UNL     1       2.578   6.491  19.716  0.00  0.00    +0.000 A 
ATOM      7  C   UNL     1       1.074   7.889  21.181  0.00  0.00    +0.000 C 
ATOM      8  N   UNL     1       0.784   9.292  21.502  0.00  0.00    +0.000 NA
ATOM      9  C   UNL     1      -0.133   9.356  22.642  0.00  0.00    +0.000 C 
ATOM     10  C   UNL     1       0.253   9.921  20.272  0.00  0.00    +0.000 C 
ATOM     11  N   UNL     1       1.116   9.882  19.075  0.00  0.00    +0.000 N 
ATOM     12  C   UNL     1       1.490  11.062  18.314  0.00  0.00    +0.000 C 
ENDROOT
BRANCH  10  13
ATOM     13  C   UNL     1      -0.297  11.326  20.580  0.00  0.00    +0.000 A 
ATOM     14  C   UNL     1       0.349  12.168  21.500  0.00  0.00    +0.000 A 
ATOM     15  C   UNL     1      -0.287  13.313  21.980  0.00  0.00    +0.000 A 
ATOM     16  C   UNL     1      -1.574  13.644  21.542  0.00  0.00    +0.000 A 
ATOM     17  C   UNL     1      -2.331  14.774  22.172  0.00  0.00    +0.000 C 
ATOM     18  C   UNL     1      -2.178  12.868  20.547  0.00  0.00    +0.000 A 
ATOM     19  C   UNL     1      -1.547  11.719  20.068  0.00  0.00    +0.000 A 
ENDBRANCH  10  13
BRANCH   1  20
ATOM     20  O   UNL     1       3.939   5.057  18.314  0.00  0.00    +0.000 OA
BRANCH  20  22
ATOM     21  N   UNL     1       5.014   4.352  16.442  0.00  0.00    +0.000 N 
ATOM     22  C   UNL     1       5.132   5.091  17.590  0.00  0.00    +0.000 C 
ATOM     23  O   UNL     1       6.144   5.702  17.908  0.00  0.00    +0.000 OA
ATOM     24  H   UNL     1       4.125   3.903  16.274  0.00  0.00    +0.000 HD
BRANCH  21  25
ATOM     25  C   UNL     1       6.146   4.069  15.584  0.00  0.00    +0.000 C 
BRANCH  25  26
ATOM     26  C   UNL     1       5.812   4.317  14.113  0.00  0.00    +0.000 C 
BRANCH  26  27
ATOM     27  C   UNL     1       6.315   3.186  13.214  0.00  0.00    +0.000 C 
BRANCH  27  28
ATOM     28  C   UNL     1       5.783   3.321  11.789  0.00  0.00    +0.000 C 
BRANCH  28  29
ATOM     29  C   UNL     1       4.327   3.787  11.796  0.00  0.00    +0.000 C 
BRANCH  29  31
ATOM     30  C   UNL     1       3.014   4.040   9.667  0.00  0.00    +0.000 C 
ATOM     31  C   UNL     1       3.505   3.069  10.727  0.00  0.00    +0.000 C 
ENDBRANCH  29  31
ENDBRANCH  28  29
ENDBRANCH  27  28
ENDBRANCH  26  27
ENDBRANCH  25  26
ENDBRANCH  21  25
ENDBRANCH  20  22
ENDBRANCH   1  20
TORSDOF 9
ENDMDL
MODEL 7
REMARK VINA RESULT:      -7.5      0.813      1.299
REMARK  Name = 
REMARK  13 active torsions:
REMARK  status: ('A' for Active; 'I' for Inactive)
REMARK    1  A    between atoms: C_1  and  C_2
REMARK    2  A    between atoms: C_2  and  C_3
REMARK    3  A    between atoms: C_3  and  C_4
REMARK    4  A    between atoms: C_4  and  C_5
REMARK    5  A    between atoms: C_5  and  C_6
REMARK    6  A    between atoms: C_6  and  C_7
REMARK    7  A    between atoms: C_7  and  N_8
REMARK    8  A    between atoms: C_9  and  O_11
REMARK    9  A    between atoms: O_11  and  C_12
REMARK   10  A    between atoms: N_19  and  C_20
REMARK   11  A    between atoms: C_21  and  C_22
REMARK   12  A    between atoms: C_25  and  C_26
REMARK   13  A    between atoms: N_29  and  C_30
REMARK                            x       y       z     vdW  Elec       q    Type
REMARK                         _______ _______ _______ _____ _____    ______ ____
ROOT
ATOM      1  C   UNL     1       2.714   7.152  18.626  0.00  0.00    +0.000 A 
ATOM      2  C   UNL     1       2.584   8.165  17.684  0.00  0.00    +0.000 A 
ATOM      3  C   UNL     1       1.862   9.318  17.995  0.00  0.00    +0.000 A 
ATOM      4  C   UNL     1       1.227   9.488  19.235  0.00  0.00    +0.000 A 
ATOM      5  C   UNL     1       1.370   8.446  20.190  0.00  0.00    +0.000 A 
ATOM      6  C   UNL     1       2.097   7.274  19.870  0.00  0.00    +0.000 A 
ATOM      7  C   UNL     1       0.693   8.551  21.532  0.00  0.00    +0.000 C 
ATOM      8  N   UNL     1       0.384   9.926  21.940  0.00  0.00    +0.000 NA
ATOM      9  C   UNL     1      -0.418   9.908  23.164  0.00  0.00    +0.000 C 
ATOM     10  C   UNL     1      -0.288  10.581  20.794  0.00  0.00    +0.000 C 
ATOM     11  N   UNL     1       0.454  10.624  19.519  0.00  0.00    +0.000 N 
ATOM     12  C   UNL     1       0.706  11.847  18.776  0.00  0.00    +0.000 C 
ENDROOT
BRANCH  10  13
ATOM     13  C   UNL     1      -0.858  11.948  21.215  0.00  0.00    +0.000 A 
ATOM     14  C   UNL     1      -2.180  12.306  20.903  0.00  0.00    +0.000 A 
ATOM     15  C   UNL     1      -2.606  13.628  21.038  0.00  0.00    +0.000 A 
ATOM     16  C   UNL     1      -1.724  14.613  21.497  0.00  0.00    +0.000 A 
ATOM     17  C   UNL     1      -2.119  16.058  21.487  0.00  0.00    +0.000 C 
ATOM     18  C   UNL     1      -0.440  14.242  21.910  0.00  0.00    +0.000 A 
ATOM     19  C   UNL     1      -0.008  12.922  21.771  0.00  0.00    +0.000 A 
ENDBRANCH  10  13
BRANCH   1  20
ATOM     20  O   UNL     1       3.366   5.952  18.283  0.00  0.00    +0.000 OA
BRANCH  20  22
ATOM     21  N   UNL     1       5.572   6.306  17.877  0.00  0.00    +0.000 N 
ATOM     22  C   UNL     1       4.665   5.789  18.766  0.00  0.00    +0.000 C 
ATOM     23  O   UNL     1       4.973   5.277  19.834  0.00  0.00    +0.000 OA
ATOM     24  H   UNL     1       5.203   6.719  17.033  0.00  0.00    +0.000 HD
BRANCH  21  25
ATOM     25  C   UNL     1       7.000   6.123  18.034  0.00  0.00    +0.000 C 
BRANCH  25  26
ATOM     26  C   UNL     1       7.458   4.773  17.484  0.00  0.00    +0.000 C 
BRANCH  26  27
ATOM     27  C   UNL     1       7.225   4.660  15.976  0.00  0.00    +0.000 C 
BRANCH  27  28
ATOM     28  C   UNL     1       5.984   3.829  15.658  0.00  0.00    +0.000 C 
BRANCH  28  29
ATOM     29  C   UNL     1       5.400   4.222  14.301  0.00  0.00    +0.000 C 
BRANCH  29  31
ATOM     30  C   UNL     1       5.937   3.093  12.120  0.00  0.00    +0.000 C 
ATOM     31  C   UNL     1       6.429   4.060  13.184  0.00  0.00    +0.000 C 
ENDBRANCH  29  31
ENDBRANCH  28  29
ENDBRANCH  27  28
ENDBRANCH  26  27
ENDBRANCH  25  26
ENDBRANCH  21  25
ENDBRANCH  20  22
ENDBRANCH   1  20
TORSDOF 9
ENDMDL
MODEL 8
REMARK VINA RESULT:      -7.4      1.991      2.464
REMARK  Name = 
REMARK  13 active torsions:
REMARK  status: ('A' for Active; 'I' for Inactive)
REMARK    1  A    between atoms: C_1  and  C_2
REMARK    2  A    between atoms: C_2  and  C_3
REMARK    3  A    between atoms: C_3  and  C_4
REMARK    4  A    between atoms: C_4  and  C_5
REMARK    5  A    between atoms: C_5  and  C_6
REMARK    6  A    between atoms: C_6  and  C_7
REMARK    7  A    between atoms: C_7  and  N_8
REMARK    8  A    between atoms: C_9  and  O_11
REMARK    9  A    between atoms: O_11  and  C_12
REMARK   10  A    between atoms: N_19  and  C_20
REMARK   11  A    between atoms: C_21  and  C_22
REMARK   12  A    between atoms: C_25  and  C_26
REMARK   13  A    between atoms: N_29  and  C_30
REMARK                            x       y       z     vdW  Elec       q    Type
REMARK                         _______ _______ _______ _____ _____    ______ ____
ROOT
ATOM      1  C   UNL     1       2.901   5.772  19.232  0.00  0.00    +0.000 A 
ATOM      2  C   UNL     1       3.123   6.504  18.072  0.00  0.00    +0.000 A 
ATOM      3  C   UNL     1       2.653   7.814  17.975  0.00  0.00    +0.000 A 
ATOM      4  C   UNL     1       1.925   8.424  19.008  0.00  0.00    +0.000 A 
ATOM      5  C   UNL     1       1.708   7.665  20.189  0.00  0.00    +0.000 A 
ATOM      6  C   UNL     1       2.179   6.333  20.284  0.00  0.00    +0.000 A 
ATOM      7  C   UNL     1       0.913   8.249  21.328  0.00  0.00    +0.000 C 
ATOM      8  N   UNL     1       0.879   9.716  21.344  0.00  0.00    +0.000 NA
ATOM      9  C   UNL     1      -0.050  10.176  22.377  0.00  0.00    +0.000 C 
ATOM     10  C   UNL     1       0.521  10.159  19.977  0.00  0.00    +0.000 C 
ATOM     11  N   UNL     1       1.405   9.720  18.879  0.00  0.00    +0.000 N 
ATOM     12  C   UNL     1       2.020  10.632  17.929  0.00  0.00    +0.000 C 
ENDROOT
BRANCH  10  13
ATOM     13  C   UNL     1       0.233  11.672  19.961  0.00  0.00    +0.000 A 
ATOM     14  C   UNL     1      -0.946  12.176  19.387  0.00  0.00    +0.000 A 
ATOM     15  C   UNL     1      -1.081  13.540  19.128  0.00  0.00    +0.000 A 
ATOM     16  C   UNL     1      -0.046  14.426  19.448  0.00  0.00    +0.000 A 
ATOM     17  C   UNL     1      -0.110  15.863  19.025  0.00  0.00    +0.000 C 
ATOM     18  C   UNL     1       1.085  13.945  20.117  0.00  0.00    +0.000 A 
ATOM     19  C   UNL     1       1.226  12.580  20.372  0.00  0.00    +0.000 A 
ENDBRANCH  10  13
BRANCH   1  20
ATOM     20  O   UNL     1       3.297   4.422  19.298  0.00  0.00    +0.000 OA
BRANCH  20  22
ATOM     21  N   UNL     1       5.358   5.361  19.467  0.00  0.00    +0.000 N 
ATOM     22  C   UNL     1       4.669   4.179  19.386  0.00  0.00    +0.000 C 
ATOM     23  O   UNL     1       5.200   3.077  19.406  0.00  0.00    +0.000 OA
ATOM     24  H   UNL     1       4.814   6.212  19.458  0.00  0.00    +0.000 HD
BRANCH  21  25
ATOM     25  C   UNL     1       6.803   5.421  19.395  0.00  0.00    +0.000 C 
BRANCH  25  26
ATOM     26  C   UNL     1       7.281   5.783  17.989  0.00  0.00    +0.000 C 
BRANCH  26  27
ATOM     27  C   UNL     1       7.513   4.542  17.125  0.00  0.00    +0.000 C 
BRANCH  27  28
ATOM     28  C   UNL     1       7.047   4.762  15.688  0.00  0.00    +0.000 C 
BRANCH  28  29
ATOM     29  C   UNL     1       5.762   3.983  15.409  0.00  0.00    +0.000 C 
BRANCH  29  31
ATOM     30  C   UNL     1       6.656   4.077  13.061  0.00  0.00    +0.000 C 
ATOM     31  C   UNL     1       5.407   4.005  13.923  0.00  0.00    +0.000 C 
ENDBRANCH  29  31
ENDBRANCH  28  29
ENDBRANCH  27  28
ENDBRANCH  26  27
ENDBRANCH  25  26
ENDBRANCH  21  25
ENDBRANCH  20  22
ENDBRANCH   1  20
TORSDOF 9
ENDMDL
MODEL 9
REMARK VINA RESULT:      -7.4      1.655      2.787
REMARK  Name = 
REMARK  13 active torsions:
REMARK  status: ('A' for Active; 'I' for Inactive)
REMARK    1  A    between atoms: C_1  and  C_2
REMARK    2  A    between atoms: C_2  and  C_3
REMARK    3  A    between atoms: C_3  and  C_4
REMARK    4  A    between atoms: C_4  and  C_5
REMARK    5  A    between atoms: C_5  and  C_6
REMARK    6  A    between atoms: C_6  and  C_7
REMARK    7  A    between atoms: C_7  and  N_8
REMARK    8  A    between atoms: C_9  and  O_11
REMARK    9  A    between atoms: O_11  and  C_12
REMARK   10  A    between atoms: N_19  and  C_20
REMARK   11  A    between atoms: C_21  and  C_22
REMARK   12  A    between atoms: C_25  and  C_26
REMARK   13  A    between atoms: N_29  and  C_30
REMARK                            x       y       z     vdW  Elec       q    Type
REMARK                         _______ _______ _______ _____ _____    ______ ____
ROOT
ATOM      1  C   UNL     1       2.261   6.598  19.629  0.00  0.00    +0.000 A 
ATOM      2  C   UNL     1       2.500   7.450  18.558  0.00  0.00    +0.000 A 
ATOM      3  C   UNL     1       1.983   8.746  18.569  0.00  0.00    +0.000 A 
ATOM      4  C   UNL     1       1.192   9.224  19.626  0.00  0.00    +0.000 A 
ATOM      5  C   UNL     1       0.958   8.343  20.715  0.00  0.00    +0.000 A 
ATOM      6  C   UNL     1       1.477   7.026  20.699  0.00  0.00    +0.000 A 
ATOM      7  C   UNL     1       0.097   8.782  21.872  0.00  0.00    +0.000 C 
ATOM      8  N   UNL     1       0.005  10.238  22.030  0.00  0.00    +0.000 NA
ATOM      9  C   UNL     1      -0.981  10.560  23.063  0.00  0.00    +0.000 C 
ATOM     10  C   UNL     1      -0.316  10.803  20.699  0.00  0.00    +0.000 C 
ATOM     11  N   UNL     1       0.627  10.508  19.602  0.00  0.00    +0.000 N 
ATOM     12  C   UNL     1       1.243  11.530  18.774  0.00  0.00    +0.000 C 
ENDROOT
BRANCH  10  13
ATOM     13  C   UNL     1      -0.662  12.299  20.820  0.00  0.00    +0.000 A 
ATOM     14  C   UNL     1       0.175  13.178  21.528  0.00  0.00    +0.000 A 
ATOM     15  C   UNL     1      -0.268  14.457  21.867  0.00  0.00    +0.000 A 
ATOM     16  C   UNL     1      -1.547  14.885  21.494  0.00  0.00    +0.000 A 
ATOM     17  C   UNL     1      -2.094  16.188  21.993  0.00  0.00    +0.000 C 
ATOM     18  C   UNL     1      -2.342  14.054  20.697  0.00  0.00    +0.000 A 
ATOM     19  C   UNL     1      -1.905  12.771  20.361  0.00  0.00    +0.000 A 
ENDBRANCH  10  13
BRANCH   1  20
ATOM     20  O   UNL     1       2.707   5.263  19.579  0.00  0.00    +0.000 OA
BRANCH  20  22
ATOM     21  N   UNL     1       3.831   4.590  17.724  0.00  0.00    +0.000 N 
ATOM     22  C   UNL     1       3.963   5.047  19.010  0.00  0.00    +0.000 C 
ATOM     23  O   UNL     1       5.039   5.246  19.556  0.00  0.00    +0.000 OA
ATOM     24  H   UNL     1       2.892   4.478  17.370  0.00  0.00    +0.000 HD
BRANCH  21  25
ATOM     25  C   UNL     1       4.962   4.118  16.952  0.00  0.00    +0.000 C 
BRANCH  25  26
ATOM     26  C   UNL     1       5.342   5.109  15.852  0.00  0.00    +0.000 C 
BRANCH  26  27
ATOM     27  C   UNL     1       6.187   6.266  16.390  0.00  0.00    +0.000 C 
BRANCH  27  28
ATOM     28  C   UNL     1       7.321   5.767  17.283  0.00  0.00    +0.000 C 
BRANCH  28  29
ATOM     29  C   UNL     1       7.811   6.880  18.210  0.00  0.00    +0.000 C 
BRANCH  29  31
ATOM     30  C   UNL     1       8.501   9.297  18.194  0.00  0.00    +0.000 C 
ATOM     31  C   UNL     1       7.560   8.260  17.606  0.00  0.00    +0.000 C 
ENDBRANCH  29  31
ENDBRANCH  28  29
ENDBRANCH  27  28
ENDBRANCH  26  27
ENDBRANCH  25  26
ENDBRANCH  21  25
ENDBRANCH  20  22
ENDBRANCH   1  20
TORSDOF 9
ENDMDL
