MODEL 1
REMARK VINA RESULT:      -7.5      0.000      0.000
REMARK  Name = 
REMARK  8 active torsions:
REMARK  status: ('A' for Active; 'I' for Inactive)
REMARK    1  A    between atoms: C_2  and  C_3
REMARK    2  A    between atoms: C_3  and  O_4
REMARK    3  A    between atoms: O_4  and  C_5
REMARK    4  A    between atoms: N_12  and  C_13
REMARK    5  A    between atoms: C_13  and  C_14
REMARK    6  A    between atoms: C_14  and  N_15
REMARK    7  A    between atoms: N_15  and  C_16
REMARK    8  A    between atoms: C_19  and  N_20
REMARK                            x       y       z     vdW  Elec       q    Type
REMARK                         _______ _______ _______ _____ _____    ______ ____
ROOT
ATOM      1  O   UNL     1       7.817   6.471  18.789  0.00  0.00    +0.000 OA
ATOM      2  C   UNL     1       7.737   7.196  17.802  0.00  0.00    +0.000 C 
ATOM      3  N   UNL     1       7.310   6.749  16.567  0.00  0.00    +0.000 N 
ATOM      4  H   UNL     1       7.555   7.312  15.761  0.00  0.00    +0.000 HD
ENDROOT
BRANCH   2   5
ATOM      5  C   UNL     1       8.055   8.692  17.857  0.00  0.00    +0.000 C 
BRANCH   5   6
ATOM      6  O   UNL     1       8.846   8.999  18.995  0.00  0.00    +0.000 OA
BRANCH   6   7
ATOM      7  C   UNL     1       9.315  10.286  19.059  0.00  0.00    +0.000 A 
ATOM      8  C   UNL     1       9.587  11.111  17.964  0.00  0.00    +0.000 A 
ATOM      9  C   UNL     1      10.078  12.406  18.151  0.00  0.00    +0.000 A 
ATOM     10  C   UNL     1      10.295  12.882  19.443  0.00  0.00    +0.000 A 
ATOM     11 CL   UNL     1      10.924  14.467  19.672  0.00  0.00    +0.000 Cl
ATOM     12  C   UNL     1      10.006  12.081  20.542  0.00  0.00    +0.000 A 
ATOM     13  C   UNL     1       9.506  10.788  20.352  0.00  0.00    +0.000 A 
ENDBRANCH   6   7
ENDBRANCH   5   6
ENDBRANCH   2   5
BRANCH   3  14
ATOM     14  C   UNL     1       6.958   5.350  16.355  0.00  0.00    +0.000 C 
BRANCH  14  15
ATOM     15  C   UNL     1       5.497   5.196  15.912  0.00  0.00    +0.000 C 
BRANCH  15  16
ATOM     16  N   UNL     1       4.591   5.958  16.771  0.00  0.00    +0.000 N 
ATOM     17  H   UNL     1       4.990   6.839  17.088  0.00  0.00    +0.000 HD
BRANCH  16  18
ATOM     18  C   UNL     1       3.925   5.284  17.804  0.00  0.00    +0.000 A 
ATOM     19  C   UNL     1       3.586   3.934  17.620  0.00  0.00    +0.000 A 
ATOM     20  C   UNL     1       2.991   3.182  18.640  0.00  0.00    +0.000 A 
ATOM     21  C   UNL     1       2.760   3.775  19.884  0.00  0.00    +0.000 A 
ATOM     22  C   UNL     1       3.113   5.109  20.104  0.00  0.00    +0.000 A 
ATOM     23  C   UNL     1       3.701   5.848  19.069  0.00  0.00    +0.000 A 
BRANCH  21  24
ATOM     24  N   UNL     1       2.167   2.988  20.972  0.00  0.00    +0.000 N 
ATOM     25  O   UNL     1       2.926   2.557  21.852  0.00  0.00    +0.000 OA
ATOM     26  O   UNL     1       0.942   2.799  20.947  0.00  0.00    +0.000 OA
ENDBRANCH  21  24
ENDBRANCH  16  18
ENDBRANCH  15  16
ENDBRANCH  14  15
ENDBRANCH   3  14
TORSDOF 8
ENDMDL
MODEL 2
REMARK VINA RESULT:      -7.2      1.338      1.866
REMARK  Name = 
REMARK  8 active torsions:
REMARK  status: ('A' for Active; 'I' for Inactive)
REMARK    1  A    between atoms: C_2  and  C_3
REMARK    2  A    between atoms: C_3  and  O_4
REMARK    3  A    between atoms: O_4  and  C_5
REMARK    4  A    between atoms: N_12  and  C_13
REMARK    5  A    between atoms: C_13  and  C_14
REMARK    6  A    between atoms: C_14  and  N_15
REMARK    7  A    between atoms: N_15  and  C_16
REMARK    8  A    between atoms: C_19  and  N_20
REMARK                            x       y       z     vdW  Elec       q    Type
REMARK                         _______ _______ _______ _____ _____    ______ ____
ROOT
ATOM      1  O   UNL     1       6.347   7.707  17.020  0.00  0.00    +0.000 OA
ATOM      2  C   UNL     1       7.370   7.715  17.697  0.00  0.00    +0.000 C 
ATOM      3  N   UNL     1       7.780   6.640  18.461  0.00  0.00    +0.000 N 
ATOM      4  H   UNL     1       8.445   6.826  19.203  0.00  0.00    +0.000 HD
ENDROOT
BRANCH   2   5
ATOM      5  C   UNL     1       8.328   8.908  17.720  0.00  0.00    +0.000 C 
BRANCH   5   6
ATOM      6  O   UNL     1       8.694   9.236  19.052  0.00  0.00    +0.000 OA
BRANCH   6   7
ATOM      7  C   UNL     1       9.378  10.415  19.204  0.00  0.00    +0.000 A 
ATOM      8  C   UNL     1       9.742  10.996  20.423  0.00  0.00    +0.000 A 
ATOM      9  C   UNL     1      10.428  12.213  20.456  0.00  0.00    +0.000 A 
ATOM     10  C   UNL     1      10.758  12.853  19.262  0.00  0.00    +0.000 A 
ATOM     11 CL   UNL     1      11.579  14.364  19.305  0.00  0.00    +0.000 Cl
ATOM     12  C   UNL     1      10.423  12.275  18.042  0.00  0.00    +0.000 A 
ATOM     13  C   UNL     1       9.744  11.052  18.012  0.00  0.00    +0.000 A 
ENDBRANCH   6   7
ENDBRANCH   5   6
ENDBRANCH   2   5
BRANCH   3  14
ATOM     14  C   UNL     1       6.981   5.423  18.536  0.00  0.00    +0.000 C 
BRANCH  14  15
ATOM     15  C   UNL     1       6.921   4.703  17.182  0.00  0.00    +0.000 C 
BRANCH  15  16
ATOM     16  N   UNL     1       5.660   4.968  16.487  0.00  0.00    +0.000 N 
ATOM     17  H   UNL     1       5.581   5.929  16.160  0.00  0.00    +0.000 HD
BRANCH  16  18
ATOM     18  C   UNL     1       4.468   4.514  17.069  0.00  0.00    +0.000 A 
ATOM     19  C   UNL     1       4.323   3.140  17.321  0.00  0.00    +0.000 A 
ATOM     20  C   UNL     1       3.192   2.631  17.971  0.00  0.00    +0.000 A 
ATOM     21  C   UNL     1       2.199   3.510  18.412  0.00  0.00    +0.000 A 
ATOM     22  C   UNL     1       2.332   4.885  18.199  0.00  0.00    +0.000 A 
ATOM     23  C   UNL     1       3.467   5.376  17.541  0.00  0.00    +0.000 A 
BRANCH  21  24
ATOM     24  N   UNL     1       1.025   2.992  19.123  0.00  0.00    +0.000 N 
ATOM     25  O   UNL     1       0.228   2.288  18.486  0.00  0.00    +0.000 OA
ATOM     26  O   UNL     1       0.898   3.288  20.321  0.00  0.00    +0.000 OA
ENDBRANCH  21  24
ENDBRANCH  16  18
ENDBRANCH  15  16
ENDBRANCH  14  15
ENDBRANCH   3  14
TORSDOF 8
ENDMDL
MODEL 3
REMARK VINA RESULT:      -7.1      4.763      7.086
REMARK  Name = 
REMARK  8 active torsions:
REMARK  status: ('A' for Active; 'I' for Inactive)
REMARK    1  A    between atoms: C_2  and  C_3
REMARK    2  A    between atoms: C_3  and  O_4
REMARK    3  A    between atoms: O_4  and  C_5
REMARK    4  A    between atoms: N_12  and  C_13
REMARK    5  A    between atoms: C_13  and  C_14
REMARK    6  A    between atoms: C_14  and  N_15
REMARK    7  A    between atoms: N_15  and  C_16
REMARK    8  A    between atoms: C_19  and  N_20
REMARK                            x       y       z     vdW  Elec       q    Type
REMARK                         _______ _______ _______ _____ _____    ______ ____
ROOT
ATOM      1  O   UNL     1       0.938   4.197  19.704  0.00  0.00    +0.000 OA
ATOM      2  C   UNL     1       1.531   4.761  20.618  0.00  0.00    +0.000 C 
ATOM      3  N   UNL     1       2.338   4.095  21.521  0.00  0.00    +0.000 N 
ATOM      4  H   UNL     1       2.539   4.565  22.396  0.00  0.00    +0.000 HD
ENDROOT
BRANCH   2   5
ATOM      5  C   UNL     1       1.477   6.277  20.818  0.00  0.00    +0.000 C 
BRANCH   5   6
ATOM      6  O   UNL     1       2.289   6.942  19.862  0.00  0.00    +0.000 OA
BRANCH   6   7
ATOM      7  C   UNL     1       1.855   8.186  19.480  0.00  0.00    +0.000 A 
ATOM      8  C   UNL     1       2.062   8.774  18.229  0.00  0.00    +0.000 A 
ATOM      9  C   UNL     1       1.585  10.059  17.957  0.00  0.00    +0.000 A 
ATOM     10  C   UNL     1       0.891  10.760  18.941  0.00  0.00    +0.000 A 
ATOM     11 CL   UNL     1       0.326  12.352  18.615  0.00  0.00    +0.000 Cl
ATOM     12  C   UNL     1       0.656  10.178  20.183  0.00  0.00    +0.000 A 
ATOM     13  C   UNL     1       1.128   8.888  20.449  0.00  0.00    +0.000 A 
ENDBRANCH   6   7
ENDBRANCH   5   6
ENDBRANCH   2   5
BRANCH   3  14
ATOM     14  C   UNL     1       2.502   2.648  21.457  0.00  0.00    +0.000 C 
BRANCH  14  15
ATOM     15  C   UNL     1       3.690   2.253  20.570  0.00  0.00    +0.000 C 
BRANCH  15  16
ATOM     16  N   UNL     1       3.460   2.616  19.170  0.00  0.00    +0.000 N 
ATOM     17  H   UNL     1       3.179   1.825  18.596  0.00  0.00    +0.000 HD
BRANCH  16  18
ATOM     18  C   UNL     1       4.409   3.421  18.524  0.00  0.00    +0.000 A 
ATOM     19  C   UNL     1       4.411   3.464  17.120  0.00  0.00    +0.000 A 
ATOM     20  C   UNL     1       5.279   4.307  16.415  0.00  0.00    +0.000 A 
ATOM     21  C   UNL     1       6.139   5.152  17.121  0.00  0.00    +0.000 A 
ATOM     22  C   UNL     1       6.138   5.149  18.519  0.00  0.00    +0.000 A 
ATOM     23  C   UNL     1       5.268   4.294  19.207  0.00  0.00    +0.000 A 
BRANCH  21  24
ATOM     24  N   UNL     1       7.030   6.064  16.394  0.00  0.00    +0.000 N 
ATOM     25  O   UNL     1       7.229   7.186  16.880  0.00  0.00    +0.000 OA
ATOM     26  O   UNL     1       7.532   5.658  15.335  0.00  0.00    +0.000 OA
ENDBRANCH  21  24
ENDBRANCH  16  18
ENDBRANCH  15  16
ENDBRANCH  14  15
ENDBRANCH   3  14
TORSDOF 8
ENDMDL
MODEL 4
REMARK VINA RESULT:      -7.1      1.682      1.977
REMARK  Name = 
REMARK  8 active torsions:
REMARK  status: ('A' for Active; 'I' for Inactive)
REMARK    1  A    between atoms: C_2  and  C_3
REMARK    2  A    between atoms: C_3  and  O_4
REMARK    3  A    between atoms: O_4  and  C_5
REMARK    4  A    between atoms: N_12  and  C_13
REMARK    5  A    between atoms: C_13  and  C_14
REMARK    6  A    between atoms: C_14  and  N_15
REMARK    7  A    between atoms: N_15  and  C_16
REMARK    8  A    between atoms: C_19  and  N_20
REMARK                            x       y       z     vdW  Elec       q    Type
REMARK                         _______ _______ _______ _____ _____    ______ ____
ROOT
ATOM      1  O   UNL     1       7.603   7.442  16.772  0.00  0.00    +0.000 OA
ATOM      2  C   UNL     1       8.015   7.935  17.817  0.00  0.00    +0.000 C 
ATOM      3  N   UNL     1       8.309   7.188  18.941  0.00  0.00    +0.000 N 
ATOM      4  H   UNL     1       8.349   7.680  19.827  0.00  0.00    +0.000 HD
ENDROOT
BRANCH   2   5
ATOM      5  C   UNL     1       8.297   9.432  17.962  0.00  0.00    +0.000 C 
BRANCH   5   6
ATOM      6  O   UNL     1       9.127   9.683  19.086  0.00  0.00    +0.000 OA
BRANCH   6   7
ATOM      7  C   UNL     1       9.646  10.950  19.167  0.00  0.00    +0.000 A 
ATOM      8  C   UNL     1       9.064  12.105  18.636  0.00  0.00    +0.000 A 
ATOM      9  C   UNL     1       9.694  13.346  18.768  0.00  0.00    +0.000 A 
ATOM     10  C   UNL     1      10.912  13.434  19.440  0.00  0.00    +0.000 A 
ATOM     11 CL   UNL     1      11.699  14.957  19.579  0.00  0.00    +0.000 Cl
ATOM     12  C   UNL     1      11.490  12.297  19.994  0.00  0.00    +0.000 A 
ATOM     13  C   UNL     1      10.853  11.058  19.868  0.00  0.00    +0.000 A 
ENDBRANCH   6   7
ENDBRANCH   5   6
ENDBRANCH   2   5
BRANCH   3  14
ATOM     14  C   UNL     1       8.105   5.745  18.959  0.00  0.00    +0.000 C 
BRANCH  14  15
ATOM     15  C   UNL     1       6.661   5.382  19.331  0.00  0.00    +0.000 C 
BRANCH  15  16
ATOM     16  N   UNL     1       5.868   5.050  18.147  0.00  0.00    +0.000 N 
ATOM     17  H   UNL     1       5.820   5.811  17.473  0.00  0.00    +0.000 HD
BRANCH  16  18
ATOM     18  C   UNL     1       4.623   4.432  18.328  0.00  0.00    +0.000 A 
ATOM     19  C   UNL     1       4.451   3.570  19.423  0.00  0.00    +0.000 A 
ATOM     20  C   UNL     1       3.212   2.984  19.706  0.00  0.00    +0.000 A 
ATOM     21  C   UNL     1       2.109   3.288  18.904  0.00  0.00    +0.000 A 
ATOM     22  C   UNL     1       2.245   4.165  17.825  0.00  0.00    +0.000 A 
ATOM     23  C   UNL     1       3.494   4.737  17.552  0.00  0.00    +0.000 A 
BRANCH  21  24
ATOM     24  N   UNL     1       0.797   2.706  19.210  0.00  0.00    +0.000 N 
ATOM     25  O   UNL     1       0.252   2.019  18.335  0.00  0.00    +0.000 OA
ATOM     26  O   UNL     1       0.310   2.934  20.328  0.00  0.00    +0.000 OA
ENDBRANCH  21  24
ENDBRANCH  16  18
ENDBRANCH  15  16
ENDBRANCH  14  15
ENDBRANCH   3  14
TORSDOF 8
ENDMDL
MODEL 5
REMARK VINA RESULT:      -7.1      1.186      1.838
REMARK  Name = 
REMARK  8 active torsions:
REMARK  status: ('A' for Active; 'I' for Inactive)
REMARK    1  A    between atoms: C_2  and  C_3
REMARK    2  A    between atoms: C_3  and  O_4
REMARK    3  A    between atoms: O_4  and  C_5
REMARK    4  A    between atoms: N_12  and  C_13
REMARK    5  A    between atoms: C_13  and  C_14
REMARK    6  A    between atoms: C_14  and  N_15
REMARK    7  A    between atoms: N_15  and  C_16
REMARK    8  A    between atoms: C_19  and  N_20
REMARK                            x       y       z     vdW  Elec       q    Type
REMARK                         _______ _______ _______ _____ _____    ______ ____
ROOT
ATOM      1  O   UNL     1       5.822   7.267  16.622  0.00  0.00    +0.000 OA
ATOM      2  C   UNL     1       6.999   6.982  16.820  0.00  0.00    +0.000 C 
ATOM      3  N   UNL     1       7.635   5.922  16.204  0.00  0.00    +0.000 N 
ATOM      4  H   UNL     1       8.486   5.579  16.635  0.00  0.00    +0.000 HD
ENDROOT
BRANCH   2   5
ATOM      5  C   UNL     1       7.899   7.811  17.738  0.00  0.00    +0.000 C 
BRANCH   5   6
ATOM      6  O   UNL     1       7.516   9.178  17.720  0.00  0.00    +0.000 OA
BRANCH   6   7
ATOM      7  C   UNL     1       8.422  10.054  18.263  0.00  0.00    +0.000 A 
ATOM      8  C   UNL     1       9.210   9.816  19.394  0.00  0.00    +0.000 A 
ATOM      9  C   UNL     1      10.091  10.792  19.866  0.00  0.00    +0.000 A 
ATOM     10  C   UNL     1      10.191  12.013  19.202  0.00  0.00    +0.000 A 
ATOM     11 CL   UNL     1      11.258  13.223  19.799  0.00  0.00    +0.000 Cl
ATOM     12  C   UNL     1       9.432  12.253  18.061  0.00  0.00    +0.000 A 
ATOM     13  C   UNL     1       8.556  11.272  17.586  0.00  0.00    +0.000 A 
ENDBRANCH   6   7
ENDBRANCH   5   6
ENDBRANCH   2   5
BRANCH   3  14
ATOM     14  C   UNL     1       6.917   5.042  15.291  0.00  0.00    +0.000 C 
BRANCH  14  15
ATOM     15  C   UNL     1       6.194   3.916  16.042  0.00  0.00    +0.000 C 
BRANCH  15  16
ATOM     16  N   UNL     1       4.785   4.240  16.270  0.00  0.00    +0.000 N 
ATOM     17  H   UNL     1       4.554   5.202  16.030  0.00  0.00    +0.000 HD
BRANCH  16  18
ATOM     18  C   UNL     1       4.197   3.847  17.481  0.00  0.00    +0.000 A 
ATOM     19  C   UNL     1       3.917   4.830  18.444  0.00  0.00    +0.000 A 
ATOM     20  C   UNL     1       3.259   4.517  19.640  0.00  0.00    +0.000 A 
ATOM     21  C   UNL     1       2.838   3.204  19.868  0.00  0.00    +0.000 A 
ATOM     22  C   UNL     1       3.078   2.212  18.914  0.00  0.00    +0.000 A 
ATOM     23  C   UNL     1       3.744   2.542  17.726  0.00  0.00    +0.000 A 
BRANCH  21  24
ATOM     24  N   UNL     1       2.118   2.870  21.103  0.00  0.00    +0.000 N 
ATOM     25  O   UNL     1       2.783   2.460  22.065  0.00  0.00    +0.000 OA
ATOM     26  O   UNL     1       0.887   3.017  21.111  0.00  0.00    +0.000 OA
ENDBRANCH  21  24
ENDBRANCH  16  18
ENDBRANCH  15  16
ENDBRANCH  14  15
ENDBRANCH   3  14
TORSDOF 8
ENDMDL
MODEL 6
REMARK VINA RESULT:      -7.1      1.278      1.469
REMARK  Name = 
REMARK  8 active torsions:
REMARK  status: ('A' for Active; 'I' for Inactive)
REMARK    1  A    between atoms: C_2  and  C_3
REMARK    2  A    between atoms: C_3  and  O_4
REMARK    3  A    between atoms: O_4  and  C_5
REMARK    4  A    between atoms: N_12  and  C_13
REMARK    5  A    between atoms: C_13  and  C_14
REMARK    6  A    between atoms: C_14  and  N_15
REMARK    7  A    between atoms: N_15  and  C_16
REMARK    8  A    between atoms: C_19  and  N_20
REMARK                            x       y       z     vdW  Elec       q    Type
REMARK                         _______ _______ _______ _____ _____    ______ ____
ROOT
ATOM      1  O   UNL     1       7.161   6.225  18.558  0.00  0.00    +0.000 OA
ATOM      2  C   UNL     1       7.454   6.886  17.567  0.00  0.00    +0.000 C 
ATOM      3  N   UNL     1       7.541   6.348  16.298  0.00  0.00    +0.000 N 
ATOM      4  H   UNL     1       8.067   6.872  15.608  0.00  0.00    +0.000 HD
ENDROOT
BRANCH   2   5
ATOM      5  C   UNL     1       7.702   8.394  17.632  0.00  0.00    +0.000 C 
BRANCH   5   6
ATOM      6  O   UNL     1       8.685   8.702  18.608  0.00  0.00    +0.000 OA
BRANCH   6   7
ATOM      7  C   UNL     1       8.957  10.037  18.774  0.00  0.00    +0.000 A 
ATOM      8  C   UNL     1       8.793  11.029  17.803  0.00  0.00    +0.000 A 
ATOM      9  C   UNL     1       9.118  12.359  18.081  0.00  0.00    +0.000 A 
ATOM     10  C   UNL     1       9.606  12.702  19.341  0.00  0.00    +0.000 A 
ATOM     11 CL   UNL     1      10.031  14.336  19.674  0.00  0.00    +0.000 Cl
ATOM     12  C   UNL     1       9.752  11.729  20.324  0.00  0.00    +0.000 A 
ATOM     13  C   UNL     1       9.417  10.400  20.046  0.00  0.00    +0.000 A 
ENDBRANCH   6   7
ENDBRANCH   5   6
ENDBRANCH   2   5
BRANCH   3  14
ATOM     14  C   UNL     1       7.320   4.926  16.067  0.00  0.00    +0.000 C 
BRANCH  14  15
ATOM     15  C   UNL     1       5.861   4.634  15.689  0.00  0.00    +0.000 C 
BRANCH  15  16
ATOM     16  N   UNL     1       5.391   3.383  16.284  0.00  0.00    +0.000 N 
ATOM     17  H   UNL     1       5.380   2.608  15.625  0.00  0.00    +0.000 HD
BRANCH  16  18
ATOM     18  C   UNL     1       4.234   3.413  17.075  0.00  0.00    +0.000 A 
ATOM     19  C   UNL     1       3.864   2.252  17.773  0.00  0.00    +0.000 A 
ATOM     20  C   UNL     1       2.766   2.238  18.642  0.00  0.00    +0.000 A 
ATOM     21  C   UNL     1       2.039   3.414  18.849  0.00  0.00    +0.000 A 
ATOM     22  C   UNL     1       2.402   4.591  18.188  0.00  0.00    +0.000 A 
ATOM     23  C   UNL     1       3.500   4.584  17.318  0.00  0.00    +0.000 A 
BRANCH  21  24
ATOM     24  N   UNL     1       0.906   3.420  19.781  0.00  0.00    +0.000 N 
ATOM     25  O   UNL     1      -0.038   2.651  19.548  0.00  0.00    +0.000 OA
ATOM     26  O   UNL     1       0.959   4.193  20.749  0.00  0.00    +0.000 OA
ENDBRANCH  21  24
ENDBRANCH  16  18
ENDBRANCH  15  16
ENDBRANCH  14  15
ENDBRANCH   3  14
TORSDOF 8
ENDMDL
MODEL 7
REMARK VINA RESULT:      -7.1      4.335     10.054
REMARK  Name = 
REMARK  8 active torsions:
REMARK  status: ('A' for Active; 'I' for Inactive)
REMARK    1  A    between atoms: C_2  and  C_3
REMARK    2  A    between atoms: C_3  and  O_4
REMARK    3  A    between atoms: O_4  and  C_5
REMARK    4  A    between atoms: N_12  and  C_13
REMARK    5  A    between atoms: C_13  and  C_14
REMARK    6  A    between atoms: C_14  and  N_15
REMARK    7  A    between atoms: N_15  and  C_16
REMARK    8  A    between atoms: C_19  and  N_20
REMARK                            x       y       z     vdW  Elec       q    Type
REMARK                         _______ _______ _______ _____ _____    ______ ____
ROOT
ATOM      1  O   UNL     1       7.825   4.719  17.417  0.00  0.00    +0.000 OA
ATOM      2  C   UNL     1       6.923   5.481  17.084  0.00  0.00    +0.000 C 
ATOM      3  N   UNL     1       6.910   6.824  17.404  0.00  0.00    +0.000 N 
ATOM      4  H   UNL     1       6.017   7.302  17.359  0.00  0.00    +0.000 HD
ENDROOT
BRANCH   2   5
ATOM      5  C   UNL     1       5.741   5.024  16.227  0.00  0.00    +0.000 C 
BRANCH   5   6
ATOM      6  O   UNL     1       5.307   3.729  16.614  0.00  0.00    +0.000 OA
BRANCH   6   7
ATOM      7  C   UNL     1       4.218   3.694  17.448  0.00  0.00    +0.000 A 
ATOM      8  C   UNL     1       2.880   3.728  17.045  0.00  0.00    +0.000 A 
ATOM      9  C   UNL     1       1.850   3.702  17.989  0.00  0.00    +0.000 A 
ATOM     10  C   UNL     1       2.159   3.635  19.346  0.00  0.00    +0.000 A 
ATOM     11 CL   UNL     1       0.891   3.628  20.509  0.00  0.00    +0.000 Cl
ATOM     12  C   UNL     1       3.486   3.576  19.760  0.00  0.00    +0.000 A 
ATOM     13  C   UNL     1       4.514   3.594  18.813  0.00  0.00    +0.000 A 
ENDBRANCH   6   7
ENDBRANCH   5   6
ENDBRANCH   2   5
BRANCH   3  14
ATOM     14  C   UNL     1       7.973   7.416  18.207  0.00  0.00    +0.000 C 
BRANCH  14  15
ATOM     15  C   UNL     1       8.182   8.897  17.864  0.00  0.00    +0.000 C 
BRANCH  15  16
ATOM     16  N   UNL     1       8.834   9.615  18.959  0.00  0.00    +0.000 N 
ATOM     17  H   UNL     1       8.245   9.703  19.784  0.00  0.00    +0.000 HD
BRANCH  16  18
ATOM     18  C   UNL     1       9.508  10.810  18.668  0.00  0.00    +0.000 A 
ATOM     19  C   UNL     1       8.861  11.772  17.876  0.00  0.00    +0.000 A 
ATOM     20  C   UNL     1       9.445  13.018  17.614  0.00  0.00    +0.000 A 
ATOM     21  C   UNL     1      10.684  13.328  18.180  0.00  0.00    +0.000 A 
ATOM     22  C   UNL     1      11.337  12.399  18.995  0.00  0.00    +0.000 A 
ATOM     23  C   UNL     1      10.741  11.155  19.241  0.00  0.00    +0.000 A 
BRANCH  21  24
ATOM     24  N   UNL     1      11.291  14.642  17.939  0.00  0.00    +0.000 N 
ATOM     25  O   UNL     1      12.088  15.073  18.785  0.00  0.00    +0.000 OA
ATOM     26  O   UNL     1      10.973  15.244  16.903  0.00  0.00    +0.000 OA
ENDBRANCH  21  24
ENDBRANCH  16  18
ENDBRANCH  15  16
ENDBRANCH  14  15
ENDBRANCH   3  14
TORSDOF 8
ENDMDL
MODEL 8
REMARK VINA RESULT:      -7.0      4.860      7.306
REMARK  Name = 
REMARK  8 active torsions:
REMARK  status: ('A' for Active; 'I' for Inactive)
REMARK    1  A    between atoms: C_2  and  C_3
REMARK    2  A    between atoms: C_3  and  O_4
REMARK    3  A    between atoms: O_4  and  C_5
REMARK    4  A    between atoms: N_12  and  C_13
REMARK    5  A    between atoms: C_13  and  C_14
REMARK    6  A    between atoms: C_14  and  N_15
REMARK    7  A    between atoms: N_15  and  C_16
REMARK    8  A    between atoms: C_19  and  N_20
REMARK                            x       y       z     vdW  Elec       q    Type
REMARK                         _______ _______ _______ _____ _____    ______ ____
ROOT
ATOM      1  O   UNL     1       1.498   4.917  17.544  0.00  0.00    +0.000 OA
ATOM      2  C   UNL     1       1.954   3.876  18.006  0.00  0.00    +0.000 C 
ATOM      3  N   UNL     1       1.777   3.489  19.320  0.00  0.00    +0.000 N 
ATOM      4  H   UNL     1       2.418   2.797  19.689  0.00  0.00    +0.000 HD
ENDROOT
BRANCH   2   5
ATOM      5  C   UNL     1       2.729   2.871  17.151  0.00  0.00    +0.000 C 
BRANCH   5   6
ATOM      6  O   UNL     1       4.023   2.642  17.687  0.00  0.00    +0.000 OA
BRANCH   6   7
ATOM      7  C   UNL     1       4.852   3.735  17.720  0.00  0.00    +0.000 A 
ATOM      8  C   UNL     1       5.408   4.302  18.871  0.00  0.00    +0.000 A 
ATOM      9  C   UNL     1       6.230   5.429  18.783  0.00  0.00    +0.000 A 
ATOM     10  C   UNL     1       6.503   5.990  17.537  0.00  0.00    +0.000 A 
ATOM     11 CL   UNL     1       7.495   7.392  17.433  0.00  0.00    +0.000 Cl
ATOM     12  C   UNL     1       5.976   5.421  16.382  0.00  0.00    +0.000 A 
ATOM     13  C   UNL     1       5.160   4.289  16.472  0.00  0.00    +0.000 A 
ENDBRANCH   6   7
ENDBRANCH   5   6
ENDBRANCH   2   5
BRANCH   3  14
ATOM     14  C   UNL     1       1.051   4.334  20.260  0.00  0.00    +0.000 C 
BRANCH  14  15
ATOM     15  C   UNL     1       2.004   5.201  21.094  0.00  0.00    +0.000 C 
BRANCH  15  16
ATOM     16  N   UNL     1       2.678   6.204  20.269  0.00  0.00    +0.000 N 
ATOM     17  H   UNL     1       3.643   6.365  20.548  0.00  0.00    +0.000 HD
BRANCH  16  18
ATOM     18  C   UNL     1       2.006   7.403  19.993  0.00  0.00    +0.000 A 
ATOM     19  C   UNL     1       1.332   8.054  21.038  0.00  0.00    +0.000 A 
ATOM     20  C   UNL     1       0.709   9.294  20.848  0.00  0.00    +0.000 A 
ATOM     21  C   UNL     1       0.788   9.918  19.600  0.00  0.00    +0.000 A 
ATOM     22  C   UNL     1       1.476   9.305  18.549  0.00  0.00    +0.000 A 
ATOM     23  C   UNL     1       2.088   8.061  18.756  0.00  0.00    +0.000 A 
BRANCH  21  24
ATOM     24  N   UNL     1       0.167  11.232  19.398  0.00  0.00    +0.000 N 
ATOM     25  O   UNL     1      -0.514  11.397  18.375  0.00  0.00    +0.000 OA
ATOM     26  O   UNL     1       0.359  12.100  20.261  0.00  0.00    +0.000 OA
ENDBRANCH  21  24
ENDBRANCH  16  18
ENDBRANCH  15  16
ENDBRANCH  14  15
ENDBRANCH   3  14
TORSDOF 8
ENDMDL
MODEL 9
REMARK VINA RESULT:      -6.9      5.395      7.598
REMARK  Name = 
REMARK  8 active torsions:
REMARK  status: ('A' for Active; 'I' for Inactive)
REMARK    1  A    between atoms: C_2  and  C_3
REMARK    2  A    between atoms: C_3  and  O_4
REMARK    3  A    between atoms: O_4  and  C_5
REMARK    4  A    between atoms: N_12  and  C_13
REMARK    5  A    between atoms: C_13  and  C_14
REMARK    6  A    between atoms: C_14  and  N_15
REMARK    7  A    between atoms: N_15  and  C_16
REMARK    8  A    between atoms: C_19  and  N_20
REMARK                            x       y       z     vdW  Elec       q    Type
REMARK                         _______ _______ _______ _____ _____    ______ ____
ROOT
ATOM      1  O   UNL     1       1.806   4.799  18.057  0.00  0.00    +0.000 OA
ATOM      2  C   UNL     1       2.366   5.685  18.693  0.00  0.00    +0.000 C 
ATOM      3  N   UNL     1       3.104   5.446  19.836  0.00  0.00    +0.000 N 
ATOM      4  H   UNL     1       3.271   6.233  20.452  0.00  0.00    +0.000 HD
ENDROOT
BRANCH   2   5
ATOM      5  C   UNL     1       2.344   7.150  18.251  0.00  0.00    +0.000 C 
BRANCH   5   6
ATOM      6  O   UNL     1       2.339   8.017  19.375  0.00  0.00    +0.000 OA
BRANCH   6   7
ATOM      7  C   UNL     1       1.329   8.945  19.401  0.00  0.00    +0.000 A 
ATOM      8  C   UNL     1       0.853   9.664  18.300  0.00  0.00    +0.000 A 
ATOM      9  C   UNL     1      -0.175  10.599  18.450  0.00  0.00    +0.000 A 
ATOM     10  C   UNL     1      -0.735  10.814  19.708  0.00  0.00    +0.000 A 
ATOM     11 CL   UNL     1      -1.982  11.984  19.896  0.00  0.00    +0.000 Cl
ATOM     12  C   UNL     1      -0.288  10.089  20.807  0.00  0.00    +0.000 A 
ATOM     13  C   UNL     1       0.735   9.147  20.653  0.00  0.00    +0.000 A 
ENDBRANCH   6   7
ENDBRANCH   5   6
ENDBRANCH   2   5
BRANCH   3  14
ATOM     14  C   UNL     1       3.230   4.099  20.381  0.00  0.00    +0.000 C 
BRANCH  14  15
ATOM     15  C   UNL     1       4.113   3.212  19.494  0.00  0.00    +0.000 C 
BRANCH  15  16
ATOM     16  N   UNL     1       5.417   3.829  19.244  0.00  0.00    +0.000 N 
ATOM     17  H   UNL     1       5.621   4.598  19.878  0.00  0.00    +0.000 HD
BRANCH  16  18
ATOM     18  C   UNL     1       5.769   4.134  17.921  0.00  0.00    +0.000 A 
ATOM     19  C   UNL     1       7.065   4.609  17.662  0.00  0.00    +0.000 A 
ATOM     20  C   UNL     1       7.507   4.857  16.357  0.00  0.00    +0.000 A 
ATOM     21  C   UNL     1       6.654   4.593  15.282  0.00  0.00    +0.000 A 
ATOM     22  C   UNL     1       5.369   4.092  15.510  0.00  0.00    +0.000 A 
ATOM     23  C   UNL     1       4.942   3.857  16.823  0.00  0.00    +0.000 A 
BRANCH  21  24
ATOM     24  N   UNL     1       7.116   4.817  13.908  0.00  0.00    +0.000 N 
ATOM     25  O   UNL     1       6.591   4.150  13.005  0.00  0.00    +0.000 OA
ATOM     26  O   UNL     1       8.006   5.662  13.729  0.00  0.00    +0.000 OA
ENDBRANCH  21  24
ENDBRANCH  16  18
ENDBRANCH  15  16
ENDBRANCH  14  15
ENDBRANCH   3  14
TORSDOF 8
ENDMDL
