MODEL 1
REMARK VINA RESULT:      -7.5      0.000      0.000
REMARK  Name = 
REMARK  5 active torsions:
REMARK  status: ('A' for Active; 'I' for Inactive)
REMARK    1  A    between atoms: C_1  and  C_2
REMARK    2  A    between atoms: C_5  and  C_6
REMARK    3  A    between atoms: C_6  and  C_7
REMARK    4  A    between atoms: C_8  and  C_9
REMARK    5  A    between atoms: C_21  and  C_22
REMARK                            x       y       z     vdW  Elec       q    Type
REMARK                         _______ _______ _______ _____ _____    ______ ____
ROOT
ATOM      1  C   UNL     1       2.717   7.359  18.694  0.00  0.00    +0.000 A 
ATOM      2  C   UNL     1       2.139   6.987  19.901  0.00  0.00    +0.000 A 
ATOM      3  N   UNL     1       2.493   5.701  20.237  0.00  0.00    +0.000 NA
ATOM      4  C   UNL     1       3.246   5.260  19.252  0.00  0.00    +0.000 A 
ATOM      5  C   UNL     1       3.901   4.011  19.029  0.00  0.00    +0.000 A 
ATOM      6 CL   UNL     1       3.775   2.780  20.231  0.00  0.00    +0.000 Cl
ATOM      7  C   UNL     1       4.614   3.799  17.905  0.00  0.00    +0.000 A 
ATOM      8  C   UNL     1       4.740   4.831  16.872  0.00  0.00    +0.000 A 
ATOM      9  C   UNL     1       4.136   6.017  17.094  0.00  0.00    +0.000 A 
ATOM     10  N   UNL     1       3.403   6.231  18.268  0.00  0.00    +0.000 N 
ENDROOT
BRANCH   2  11
ATOM     11  C   UNL     1       1.325   7.818  20.781  0.00  0.00    +0.000 A 
ATOM     12  C   UNL     1      -0.073   7.726  20.814  0.00  0.00    +0.000 A 
ATOM     13  C   UNL     1      -0.843   8.579  21.607  0.00  0.00    +0.000 A 
ATOM     14  C   UNL     1      -0.213   9.512  22.417  0.00  0.00    +0.000 A 
ATOM     15 CL   UNL     1      -1.161  10.560  23.397  0.00  0.00    +0.000 Cl
ATOM     16  C   UNL     1       1.178   9.593  22.445  0.00  0.00    +0.000 A 
ATOM     17  C   UNL     1       1.943   8.748  21.632  0.00  0.00    +0.000 A 
ENDBRANCH   2  11
BRANCH   8  18
ATOM     18  C   UNL     1       5.524   4.538  15.625  0.00  0.00    +0.000 C 
ATOM     19  F   UNL     1       4.769   4.582  14.498  0.00  0.00    +0.000 F 
ATOM     20  F   UNL     1       6.535   5.427  15.455  0.00  0.00    +0.000 F 
ATOM     21  F   UNL     1       6.089   3.305  15.672  0.00  0.00    +0.000 F 
ENDBRANCH   8  18
BRANCH   1  22
ATOM     22  C   UNL     1       2.734   8.660  17.951  0.00  0.00    +0.000 C 
BRANCH  22  27
ATOM     23  C   UNL     1      -2.153  11.757  18.759  0.00  0.00    +0.000 C 
ATOM     24  C   UNL     1      -0.892  10.992  18.489  0.00  0.00    +0.000 A 
ATOM     25  C   UNL     1      -0.901   9.814  17.739  0.00  0.00    +0.000 A 
ATOM     26  C   UNL     1       0.276   9.080  17.562  0.00  0.00    +0.000 A 
ATOM     27  C   UNL     1       1.492   9.519  18.114  0.00  0.00    +0.000 A 
ATOM     28  C   UNL     1       1.496  10.718  18.838  0.00  0.00    +0.000 A 
ATOM     29  C   UNL     1       0.317  11.443  19.026  0.00  0.00    +0.000 A 
ENDBRANCH  22  27
ENDBRANCH   1  22
TORSDOF 4
ENDMDL
MODEL 2
REMARK VINA RESULT:      -7.4      0.141      1.161
REMARK  Name = 
REMARK  5 active torsions:
REMARK  status: ('A' for Active; 'I' for Inactive)
REMARK    1  A    between atoms: C_1  and  C_2
REMARK    2  A    between atoms: C_5  and  C_6
REMARK    3  A    between atoms: C_6  and  C_7
REMARK    4  A    between atoms: C_8  and  C_9
REMARK    5  A    between atoms: C_21  and  C_22
REMARK                            x       y       z     vdW  Elec       q    Type
REMARK                         _______ _______ _______ _____ _____    ______ ____
ROOT
ATOM      1  C   UNL     1       2.743   7.325  18.686  0.00  0.00    +0.000 A 
ATOM      2  C   UNL     1       2.193   6.956  19.906  0.00  0.00    +0.000 A 
ATOM      3  N   UNL     1       2.588   5.687  20.258  0.00  0.00    +0.000 NA
ATOM      4  C   UNL     1       3.340   5.251  19.269  0.00  0.00    +0.000 A 
ATOM      5  C   UNL     1       4.028   4.018  19.057  0.00  0.00    +0.000 A 
ATOM      6 CL   UNL     1       3.954   2.804  20.280  0.00  0.00    +0.000 Cl
ATOM      7  C   UNL     1       4.731   3.808  17.927  0.00  0.00    +0.000 A 
ATOM      8  C   UNL     1       4.815   4.826  16.876  0.00  0.00    +0.000 A 
ATOM      9  C   UNL     1       4.179   5.998  17.088  0.00  0.00    +0.000 A 
ATOM     10  N   UNL     1       3.457   6.211  18.268  0.00  0.00    +0.000 N 
ENDROOT
BRANCH   2  11
ATOM     11  C   UNL     1       1.367   7.778  20.784  0.00  0.00    +0.000 A 
ATOM     12  C   UNL     1      -0.029   7.658  20.825  0.00  0.00    +0.000 A 
ATOM     13  C   UNL     1      -0.811   8.502  21.615  0.00  0.00    +0.000 A 
ATOM     14  C   UNL     1      -0.196   9.454  22.415  0.00  0.00    +0.000 A 
ATOM     15 CL   UNL     1      -1.159  10.491  23.392  0.00  0.00    +0.000 Cl
ATOM     16  C   UNL     1       1.193   9.562  22.435  0.00  0.00    +0.000 A 
ATOM     17  C   UNL     1       1.970   8.727  21.624  0.00  0.00    +0.000 A 
ENDBRANCH   2  11
BRANCH   8  18
ATOM     18  C   UNL     1       5.590   4.536  15.623  0.00  0.00    +0.000 C 
ATOM     19  F   UNL     1       6.721   5.278  15.512  0.00  0.00    +0.000 F 
ATOM     20  F   UNL     1       5.967   3.234  15.564  0.00  0.00    +0.000 F 
ATOM     21  F   UNL     1       4.849   4.782  14.513  0.00  0.00    +0.000 F 
ENDBRANCH   8  18
BRANCH   1  22
ATOM     22  C   UNL     1       2.713   8.613  17.922  0.00  0.00    +0.000 C 
BRANCH  22  27
ATOM     23  C   UNL     1      -1.999  12.029  18.434  0.00  0.00    +0.000 C 
ATOM     24  C   UNL     1      -0.802  11.128  18.366  0.00  0.00    +0.000 A 
ATOM     25  C   UNL     1       0.426  11.506  18.917  0.00  0.00    +0.000 A 
ATOM     26  C   UNL     1       1.546  10.680  18.778  0.00  0.00    +0.000 A 
ATOM     27  C   UNL     1       1.458   9.449  18.104  0.00  0.00    +0.000 A 
ATOM     28  C   UNL     1       0.215   9.067  17.583  0.00  0.00    +0.000 A 
ATOM     29  C   UNL     1      -0.899   9.899  17.709  0.00  0.00    +0.000 A 
ENDBRANCH  22  27
ENDBRANCH   1  22
TORSDOF 4
ENDMDL
MODEL 3
REMARK VINA RESULT:      -7.2      3.578      7.392
REMARK  Name = 
REMARK  5 active torsions:
REMARK  status: ('A' for Active; 'I' for Inactive)
REMARK    1  A    between atoms: C_1  and  C_2
REMARK    2  A    between atoms: C_5  and  C_6
REMARK    3  A    between atoms: C_6  and  C_7
REMARK    4  A    between atoms: C_8  and  C_9
REMARK    5  A    between atoms: C_21  and  C_22
REMARK                            x       y       z     vdW  Elec       q    Type
REMARK                         _______ _______ _______ _____ _____    ______ ____
ROOT
ATOM      1  C   UNL     1       2.431   7.776  18.506  0.00  0.00    +0.000 A 
ATOM      2  C   UNL     1       2.182   6.760  19.418  0.00  0.00    +0.000 A 
ATOM      3  N   UNL     1       1.425   7.221  20.470  0.00  0.00    +0.000 NA
ATOM      4  C   UNL     1       1.231   8.503  20.245  0.00  0.00    +0.000 A 
ATOM      5  C   UNL     1       0.531   9.511  20.977  0.00  0.00    +0.000 A 
ATOM      6 CL   UNL     1      -0.278   9.069  22.434  0.00  0.00    +0.000 Cl
ATOM      7  C   UNL     1       0.495  10.783  20.532  0.00  0.00    +0.000 A 
ATOM      8  C   UNL     1       1.169  11.181  19.294  0.00  0.00    +0.000 A 
ATOM      9  C   UNL     1       1.814  10.223  18.595  0.00  0.00    +0.000 A 
ATOM     10  N   UNL     1       1.841   8.903  19.060  0.00  0.00    +0.000 N 
ENDROOT
BRANCH   2  11
ATOM     11  C   UNL     1       2.570   5.358  19.303  0.00  0.00    +0.000 A 
ATOM     12  C   UNL     1       3.743   4.857  19.885  0.00  0.00    +0.000 A 
ATOM     13  C   UNL     1       4.138   3.531  19.703  0.00  0.00    +0.000 A 
ATOM     14  C   UNL     1       3.333   2.671  18.969  0.00  0.00    +0.000 A 
ATOM     15 CL   UNL     1       3.819   1.037  18.749  0.00  0.00    +0.000 Cl
ATOM     16  C   UNL     1       2.136   3.128  18.422  0.00  0.00    +0.000 A 
ATOM     17  C   UNL     1       1.756   4.464  18.590  0.00  0.00    +0.000 A 
ENDBRANCH   2  11
BRANCH   8  18
ATOM     18  C   UNL     1       1.122  12.616  18.853  0.00  0.00    +0.000 C 
ATOM     19  F   UNL     1      -0.028  12.937  18.207  0.00  0.00    +0.000 F 
ATOM     20  F   UNL     1       1.229  13.462  19.908  0.00  0.00    +0.000 F 
ATOM     21  F   UNL     1       2.142  12.909  18.008  0.00  0.00    +0.000 F 
ENDBRANCH   8  18
BRANCH   1  22
ATOM     22  C   UNL     1       3.103   7.778  17.166  0.00  0.00    +0.000 C 
BRANCH  22  27
ATOM     23  C   UNL     1       7.863   4.393  17.053  0.00  0.00    +0.000 C 
ATOM     24  C   UNL     1       6.668   5.298  17.029  0.00  0.00    +0.000 A 
ATOM     25  C   UNL     1       6.677   6.532  17.684  0.00  0.00    +0.000 A 
ATOM     26  C   UNL     1       5.526   7.326  17.709  0.00  0.00    +0.000 A 
ATOM     27  C   UNL     1       4.348   6.914  17.061  0.00  0.00    +0.000 A 
ATOM     28  C   UNL     1       4.361   5.689  16.382  0.00  0.00    +0.000 A 
ATOM     29  C   UNL     1       5.506   4.890  16.370  0.00  0.00    +0.000 A 
ENDBRANCH  22  27
ENDBRANCH   1  22
TORSDOF 4
ENDMDL
MODEL 4
REMARK VINA RESULT:      -7.0      0.217      1.280
REMARK  Name = 
REMARK  5 active torsions:
REMARK  status: ('A' for Active; 'I' for Inactive)
REMARK    1  A    between atoms: C_1  and  C_2
REMARK    2  A    between atoms: C_5  and  C_6
REMARK    3  A    between atoms: C_6  and  C_7
REMARK    4  A    between atoms: C_8  and  C_9
REMARK    5  A    between atoms: C_21  and  C_22
REMARK                            x       y       z     vdW  Elec       q    Type
REMARK                         _______ _______ _______ _____ _____    ______ ____
ROOT
ATOM      1  C   UNL     1       2.778   7.317  18.635  0.00  0.00    +0.000 A 
ATOM      2  C   UNL     1       2.227   6.987  19.866  0.00  0.00    +0.000 A 
ATOM      3  N   UNL     1       2.610   5.723  20.251  0.00  0.00    +0.000 NA
ATOM      4  C   UNL     1       3.355   5.254  19.272  0.00  0.00    +0.000 A 
ATOM      5  C   UNL     1       4.028   4.008  19.092  0.00  0.00    +0.000 A 
ATOM      6 CL   UNL     1       3.945   2.828  20.347  0.00  0.00    +0.000 Cl
ATOM      7  C   UNL     1       4.726   3.760  17.965  0.00  0.00    +0.000 A 
ATOM      8  C   UNL     1       4.817   4.749  16.888  0.00  0.00    +0.000 A 
ATOM      9  C   UNL     1       4.194   5.932  17.069  0.00  0.00    +0.000 A 
ATOM     10  N   UNL     1       3.478   6.184  18.245  0.00  0.00    +0.000 N 
ENDROOT
BRANCH   2  11
ATOM     11  C   UNL     1       1.412   7.841  20.723  0.00  0.00    +0.000 A 
ATOM     12  C   UNL     1       1.972   8.838  21.534  0.00  0.00    +0.000 A 
ATOM     13  C   UNL     1       1.186   9.598  22.403  0.00  0.00    +0.000 A 
ATOM     14  C   UNL     1      -0.186   9.396  22.438  0.00  0.00    +0.000 A 
ATOM     15 CL   UNL     1      -1.153  10.335  23.506  0.00  0.00    +0.000 Cl
ATOM     16  C   UNL     1      -0.777   8.447  21.606  0.00  0.00    +0.000 A 
ATOM     17  C   UNL     1       0.019   7.675  20.751  0.00  0.00    +0.000 A 
ENDBRANCH   2  11
BRANCH   8  18
ATOM     18  C   UNL     1       5.586   4.417  15.641  0.00  0.00    +0.000 C 
ATOM     19  F   UNL     1       4.884   4.654  14.503  0.00  0.00    +0.000 F 
ATOM     20  F   UNL     1       6.729   5.142  15.555  0.00  0.00    +0.000 F 
ATOM     21  F   UNL     1       5.947   3.109  15.614  0.00  0.00    +0.000 F 
ENDBRANCH   8  18
BRANCH   1  22
ATOM     22  C   UNL     1       2.758   8.584  17.836  0.00  0.00    +0.000 C 
BRANCH  22  27
ATOM     23  C   UNL     1      -1.804  12.181  18.455  0.00  0.00    +0.000 C 
ATOM     24  C   UNL     1      -0.642  11.236  18.361  0.00  0.00    +0.000 A 
ATOM     25  C   UNL     1       0.624  11.591  18.832  0.00  0.00    +0.000 A 
ATOM     26  C   UNL     1       1.707  10.722  18.669  0.00  0.00    +0.000 A 
ATOM     27  C   UNL     1       1.544   9.470  18.050  0.00  0.00    +0.000 A 
ATOM     28  C   UNL     1       0.263   9.112  17.610  0.00  0.00    +0.000 A 
ATOM     29  C   UNL     1      -0.815   9.987  17.760  0.00  0.00    +0.000 A 
ENDBRANCH  22  27
ENDBRANCH   1  22
TORSDOF 4
ENDMDL
MODEL 5
REMARK VINA RESULT:      -6.9      5.907      8.662
REMARK  Name = 
REMARK  5 active torsions:
REMARK  status: ('A' for Active; 'I' for Inactive)
REMARK    1  A    between atoms: C_1  and  C_2
REMARK    2  A    between atoms: C_5  and  C_6
REMARK    3  A    between atoms: C_6  and  C_7
REMARK    4  A    between atoms: C_8  and  C_9
REMARK    5  A    between atoms: C_21  and  C_22
REMARK                            x       y       z     vdW  Elec       q    Type
REMARK                         _______ _______ _______ _____ _____    ______ ____
ROOT
ATOM      1  C   UNL     1      -0.208  11.972  19.366  0.00  0.00    +0.000 A 
ATOM      2  C   UNL     1       1.070  11.443  19.242  0.00  0.00    +0.000 A 
ATOM      3  N   UNL     1       2.018  12.436  19.295  0.00  0.00    +0.000 NA
ATOM      4  C   UNL     1       1.357  13.568  19.416  0.00  0.00    +0.000 A 
ATOM      5  C   UNL     1       1.786  14.926  19.515  0.00  0.00    +0.000 A 
ATOM      6 CL   UNL     1       3.478  15.264  19.521  0.00  0.00    +0.000 Cl
ATOM      7  C   UNL     1       0.888  15.926  19.613  0.00  0.00    +0.000 A 
ATOM      8  C   UNL     1      -0.553  15.663  19.617  0.00  0.00    +0.000 A 
ATOM      9  C   UNL     1      -0.956  14.377  19.542  0.00  0.00    +0.000 A 
ATOM     10  N   UNL     1      -0.017  13.344  19.447  0.00  0.00    +0.000 N 
ENDROOT
BRANCH   2  11
ATOM     11  C   UNL     1       1.433  10.033  19.143  0.00  0.00    +0.000 A 
ATOM     12  C   UNL     1       1.284   9.146  20.218  0.00  0.00    +0.000 A 
ATOM     13  C   UNL     1       1.704   7.818  20.132  0.00  0.00    +0.000 A 
ATOM     14  C   UNL     1       2.241   7.346  18.942  0.00  0.00    +0.000 A 
ATOM     15 CL   UNL     1       2.754   5.709  18.835  0.00  0.00    +0.000 Cl
ATOM     16  C   UNL     1       2.353   8.191  17.840  0.00  0.00    +0.000 A 
ATOM     17  C   UNL     1       1.949   9.528  17.940  0.00  0.00    +0.000 A 
ENDBRANCH   2  11
BRANCH   8  18
ATOM     18  C   UNL     1      -1.516  16.813  19.703  0.00  0.00    +0.000 C 
ATOM     19  F   UNL     1      -1.108  17.787  20.556  0.00  0.00    +0.000 F 
ATOM     20  F   UNL     1      -1.695  17.400  18.493  0.00  0.00    +0.000 F 
ATOM     21  F   UNL     1      -2.738  16.406  20.128  0.00  0.00    +0.000 F 
ENDBRANCH   8  18
BRANCH   1  22
ATOM     22  C   UNL     1      -1.555  11.325  19.472  0.00  0.00    +0.000 C 
BRANCH  22  27
ATOM     23  C   UNL     1      -3.936  10.080  14.285  0.00  0.00    +0.000 C 
ATOM     24  C   UNL     1      -3.371  10.357  15.646  0.00  0.00    +0.000 A 
ATOM     25  C   UNL     1      -3.943  11.311  16.491  0.00  0.00    +0.000 A 
ATOM     26  C   UNL     1      -3.356  11.603  17.726  0.00  0.00    +0.000 A 
ATOM     27  C   UNL     1      -2.195  10.932  18.152  0.00  0.00    +0.000 A 
ATOM     28  C   UNL     1      -1.649   9.956  17.310  0.00  0.00    +0.000 A 
ATOM     29  C   UNL     1      -2.227   9.675  16.070  0.00  0.00    +0.000 A 
ENDBRANCH  22  27
ENDBRANCH   1  22
TORSDOF 4
ENDMDL
MODEL 6
REMARK VINA RESULT:      -6.9      3.601      7.371
REMARK  Name = 
REMARK  5 active torsions:
REMARK  status: ('A' for Active; 'I' for Inactive)
REMARK    1  A    between atoms: C_1  and  C_2
REMARK    2  A    between atoms: C_5  and  C_6
REMARK    3  A    between atoms: C_6  and  C_7
REMARK    4  A    between atoms: C_8  and  C_9
REMARK    5  A    between atoms: C_21  and  C_22
REMARK                            x       y       z     vdW  Elec       q    Type
REMARK                         _______ _______ _______ _____ _____    ______ ____
ROOT
ATOM      1  C   UNL     1       2.455   7.823  18.450  0.00  0.00    +0.000 A 
ATOM      2  C   UNL     1       2.181   6.773  19.317  0.00  0.00    +0.000 A 
ATOM      3  N   UNL     1       1.391   7.195  20.360  0.00  0.00    +0.000 NA
ATOM      4  C   UNL     1       1.200   8.484  20.176  0.00  0.00    +0.000 A 
ATOM      5  C   UNL     1       0.475   9.463  20.922  0.00  0.00    +0.000 A 
ATOM      6 CL   UNL     1      -0.378   8.967  22.337  0.00  0.00    +0.000 Cl
ATOM      7  C   UNL     1       0.449  10.751  20.523  0.00  0.00    +0.000 A 
ATOM      8  C   UNL     1       1.161  11.195  19.321  0.00  0.00    +0.000 A 
ATOM      9  C   UNL     1       1.829  10.263  18.609  0.00  0.00    +0.000 A 
ATOM     10  N   UNL     1       1.845   8.927  19.026  0.00  0.00    +0.000 N 
ENDROOT
BRANCH   2  11
ATOM     11  C   UNL     1       2.576   5.377  19.163  0.00  0.00    +0.000 A 
ATOM     12  C   UNL     1       1.828   4.468  18.404  0.00  0.00    +0.000 A 
ATOM     13  C   UNL     1       2.180   3.119  18.327  0.00  0.00    +0.000 A 
ATOM     14  C   UNL     1       3.321   2.671  18.977  0.00  0.00    +0.000 A 
ATOM     15 CL   UNL     1       3.756   1.011  18.878  0.00  0.00    +0.000 Cl
ATOM     16  C   UNL     1       4.114   3.563  19.696  0.00  0.00    +0.000 A 
ATOM     17  C   UNL     1       3.744   4.910  19.786  0.00  0.00    +0.000 A 
ENDBRANCH   2  11
BRANCH   8  18
ATOM     18  C   UNL     1       1.123  12.644  18.932  0.00  0.00    +0.000 C 
ATOM     19  F   UNL     1       2.070  12.976  18.018  0.00  0.00    +0.000 F 
ATOM     20  F   UNL     1      -0.076  12.982  18.394  0.00  0.00    +0.000 F 
ATOM     21  F   UNL     1       1.313  13.452  20.006  0.00  0.00    +0.000 F 
ENDBRANCH   8  18
BRANCH   1  22
ATOM     22  C   UNL     1       3.169   7.874  17.133  0.00  0.00    +0.000 C 
BRANCH  22  27
ATOM     23  C   UNL     1       7.858   4.392  16.996  0.00  0.00    +0.000 C 
ATOM     24  C   UNL     1       6.683   5.324  16.980  0.00  0.00    +0.000 A 
ATOM     25  C   UNL     1       6.704   6.534  17.678  0.00  0.00    +0.000 A 
ATOM     26  C   UNL     1       5.570   7.352  17.708  0.00  0.00    +0.000 A 
ATOM     27  C   UNL     1       4.397   6.988  17.023  0.00  0.00    +0.000 A 
ATOM     28  C   UNL     1       4.398   5.787  16.301  0.00  0.00    +0.000 A 
ATOM     29  C   UNL     1       5.526   4.964  16.284  0.00  0.00    +0.000 A 
ENDBRANCH  22  27
ENDBRANCH   1  22
TORSDOF 4
ENDMDL
MODEL 7
REMARK VINA RESULT:      -6.8      6.772     10.133
REMARK  Name = 
REMARK  5 active torsions:
REMARK  status: ('A' for Active; 'I' for Inactive)
REMARK    1  A    between atoms: C_1  and  C_2
REMARK    2  A    between atoms: C_5  and  C_6
REMARK    3  A    between atoms: C_6  and  C_7
REMARK    4  A    between atoms: C_8  and  C_9
REMARK    5  A    between atoms: C_21  and  C_22
REMARK                            x       y       z     vdW  Elec       q    Type
REMARK                         _______ _______ _______ _____ _____    ______ ____
ROOT
ATOM      1  C   UNL     1      -2.787  12.235  19.780  0.00  0.00    +0.000 A 
ATOM      2  C   UNL     1      -3.737  11.687  18.929  0.00  0.00    +0.000 A 
ATOM      3  N   UNL     1      -4.996  11.783  19.473  0.00  0.00    +0.000 NA
ATOM      4  C   UNL     1      -4.842  12.347  20.653  0.00  0.00    +0.000 A 
ATOM      5  C   UNL     1      -5.772  12.701  21.677  0.00  0.00    +0.000 A 
ATOM      6 CL   UNL     1      -7.451  12.409  21.412  0.00  0.00    +0.000 Cl
ATOM      7  C   UNL     1      -5.348  13.264  22.826  0.00  0.00    +0.000 A 
ATOM      8  C   UNL     1      -3.928  13.527  23.072  0.00  0.00    +0.000 A 
ATOM      9  C   UNL     1      -3.053  13.208  22.095  0.00  0.00    +0.000 A 
ATOM     10  N   UNL     1      -3.502  12.631  20.901  0.00  0.00    +0.000 N 
ENDROOT
BRANCH   2  11
ATOM     11  C   UNL     1      -3.512  11.138  17.595  0.00  0.00    +0.000 A 
ATOM     12  C   UNL     1      -2.554  10.147  17.347  0.00  0.00    +0.000 A 
ATOM     13  C   UNL     1      -2.300   9.685  16.054  0.00  0.00    +0.000 A 
ATOM     14  C   UNL     1      -3.041  10.183  14.992  0.00  0.00    +0.000 A 
ATOM     15 CL   UNL     1      -2.731   9.611  13.401  0.00  0.00    +0.000 Cl
ATOM     16  C   UNL     1      -4.037  11.131  15.216  0.00  0.00    +0.000 A 
ATOM     17  C   UNL     1      -4.273  11.605  16.512  0.00  0.00    +0.000 A 
ENDBRANCH   2  11
BRANCH   8  18
ATOM     18  C   UNL     1      -3.502  14.132  24.379  0.00  0.00    +0.000 C 
ATOM     19  F   UNL     1      -4.101  15.323  24.635  0.00  0.00    +0.000 F 
ATOM     20  F   UNL     1      -3.792  13.314  25.421  0.00  0.00    +0.000 F 
ATOM     21  F   UNL     1      -2.163  14.351  24.411  0.00  0.00    +0.000 F 
ENDBRANCH   8  18
BRANCH   1  22
ATOM     22  C   UNL     1      -1.316  12.471  19.620  0.00  0.00    +0.000 C 
BRANCH  22  27
ATOM     23  C   UNL     1       1.833   7.621  20.450  0.00  0.00    +0.000 C 
ATOM     24  C   UNL     1       1.074   8.902  20.269  0.00  0.00    +0.000 A 
ATOM     25  C   UNL     1       0.255   9.411  21.280  0.00  0.00    +0.000 A 
ATOM     26  C   UNL     1      -0.499  10.569  21.062  0.00  0.00    +0.000 A 
ATOM     27  C   UNL     1      -0.433  11.255  19.837  0.00  0.00    +0.000 A 
ATOM     28  C   UNL     1       0.415  10.753  18.842  0.00  0.00    +0.000 A 
ATOM     29  C   UNL     1       1.156   9.588  19.055  0.00  0.00    +0.000 A 
ENDBRANCH  22  27
ENDBRANCH   1  22
TORSDOF 4
ENDMDL
MODEL 8
REMARK VINA RESULT:      -6.8      6.031      8.743
REMARK  Name = 
REMARK  5 active torsions:
REMARK  status: ('A' for Active; 'I' for Inactive)
REMARK    1  A    between atoms: C_1  and  C_2
REMARK    2  A    between atoms: C_5  and  C_6
REMARK    3  A    between atoms: C_6  and  C_7
REMARK    4  A    between atoms: C_8  and  C_9
REMARK    5  A    between atoms: C_21  and  C_22
REMARK                            x       y       z     vdW  Elec       q    Type
REMARK                         _______ _______ _______ _____ _____    ______ ____
ROOT
ATOM      1  C   UNL     1       0.046  12.352  18.926  0.00  0.00    +0.000 A 
ATOM      2  C   UNL     1       1.263  11.684  18.894  0.00  0.00    +0.000 A 
ATOM      3  N   UNL     1       2.308  12.575  18.827  0.00  0.00    +0.000 NA
ATOM      4  C   UNL     1       1.765  13.773  18.782  0.00  0.00    +0.000 A 
ATOM      5  C   UNL     1       2.331  15.082  18.702  0.00  0.00    +0.000 A 
ATOM      6 CL   UNL     1       4.047  15.246  18.688  0.00  0.00    +0.000 Cl
ATOM      7  C   UNL     1       1.538  16.172  18.650  0.00  0.00    +0.000 A 
ATOM      8  C   UNL     1       0.078  16.058  18.668  0.00  0.00    +0.000 A 
ATOM      9  C   UNL     1      -0.453  14.821  18.761  0.00  0.00    +0.000 A 
ATOM     10  N   UNL     1       0.376  13.695  18.823  0.00  0.00    +0.000 N 
ENDROOT
BRANCH   2  11
ATOM     11  C   UNL     1       1.481  10.245  18.994  0.00  0.00    +0.000 A 
ATOM     12  C   UNL     1       1.219   9.530  20.171  0.00  0.00    +0.000 A 
ATOM     13  C   UNL     1       1.502   8.166  20.273  0.00  0.00    +0.000 A 
ATOM     14  C   UNL     1       2.013   7.489  19.175  0.00  0.00    +0.000 A 
ATOM     15 CL   UNL     1       2.357   5.809  19.301  0.00  0.00    +0.000 Cl
ATOM     16  C   UNL     1       2.235   8.163  17.976  0.00  0.00    +0.000 A 
ATOM     17  C   UNL     1       1.968   9.534  17.886  0.00  0.00    +0.000 A 
ENDBRANCH   2  11
BRANCH   8  18
ATOM     18  C   UNL     1      -0.762  17.300  18.581  0.00  0.00    +0.000 C 
ATOM     19  F   UNL     1      -2.021  17.126  19.058  0.00  0.00    +0.000 F 
ATOM     20  F   UNL     1      -0.213  18.320  19.287  0.00  0.00    +0.000 F 
ATOM     21  F   UNL     1      -0.883  17.729  17.300  0.00  0.00    +0.000 F 
ENDBRANCH   8  18
BRANCH   1  22
ATOM     22  C   UNL     1      -1.360  11.863  19.099  0.00  0.00    +0.000 C 
BRANCH  22  27
ATOM     23  C   UNL     1      -3.902  12.575  24.310  0.00  0.00    +0.000 C 
ATOM     24  C   UNL     1      -3.229  12.458  22.975  0.00  0.00    +0.000 A 
ATOM     25  C   UNL     1      -3.862  12.875  21.802  0.00  0.00    +0.000 A 
ATOM     26  C   UNL     1      -3.243  12.690  20.561  0.00  0.00    +0.000 A 
ATOM     27  C   UNL     1      -1.968  12.103  20.469  0.00  0.00    +0.000 A 
ATOM     28  C   UNL     1      -1.330  11.717  21.655  0.00  0.00    +0.000 A 
ATOM     29  C   UNL     1      -1.955  11.889  22.892  0.00  0.00    +0.000 A 
ENDBRANCH  22  27
ENDBRANCH   1  22
TORSDOF 4
ENDMDL
MODEL 9
REMARK VINA RESULT:      -6.7      5.846      8.562
REMARK  Name = 
REMARK  5 active torsions:
REMARK  status: ('A' for Active; 'I' for Inactive)
REMARK    1  A    between atoms: C_1  and  C_2
REMARK    2  A    between atoms: C_5  and  C_6
REMARK    3  A    between atoms: C_6  and  C_7
REMARK    4  A    between atoms: C_8  and  C_9
REMARK    5  A    between atoms: C_21  and  C_22
REMARK                            x       y       z     vdW  Elec       q    Type
REMARK                         _______ _______ _______ _____ _____    ______ ____
ROOT
ATOM      1  C   UNL     1      -0.147  11.883  19.334  0.00  0.00    +0.000 A 
ATOM      2  C   UNL     1       1.122  11.325  19.260  0.00  0.00    +0.000 A 
ATOM      3  N   UNL     1       2.090  12.299  19.343  0.00  0.00    +0.000 NA
ATOM      4  C   UNL     1       1.448  13.445  19.433  0.00  0.00    +0.000 A 
ATOM      5  C   UNL     1       1.904  14.794  19.540  0.00  0.00    +0.000 A 
ATOM      6 CL   UNL     1       3.600  15.096  19.606  0.00  0.00    +0.000 Cl
ATOM      7  C   UNL     1       1.024  15.814  19.600  0.00  0.00    +0.000 A 
ATOM      8  C   UNL     1      -0.422  15.582  19.552  0.00  0.00    +0.000 A 
ATOM      9  C   UNL     1      -0.849  14.304  19.469  0.00  0.00    +0.000 A 
ATOM     10  N   UNL     1       0.071  13.251  19.415  0.00  0.00    +0.000 N 
ENDROOT
BRANCH   2  11
ATOM     11  C   UNL     1       1.458   9.907  19.182  0.00  0.00    +0.000 A 
ATOM     12  C   UNL     1       1.333   9.049  20.283  0.00  0.00    +0.000 A 
ATOM     13  C   UNL     1       1.728   7.712  20.214  0.00  0.00    +0.000 A 
ATOM     14  C   UNL     1       2.214   7.203  19.018  0.00  0.00    +0.000 A 
ATOM     15 CL   UNL     1       2.696   5.555  18.932  0.00  0.00    +0.000 Cl
ATOM     16  C   UNL     1       2.301   8.020  17.892  0.00  0.00    +0.000 A 
ATOM     17  C   UNL     1       1.923   9.365  17.974  0.00  0.00    +0.000 A 
ENDBRANCH   2  11
BRANCH   8  18
ATOM     18  C   UNL     1      -1.362  16.753  19.596  0.00  0.00    +0.000 C 
ATOM     19  F   UNL     1      -1.595  17.295  18.375  0.00  0.00    +0.000 F 
ATOM     20  F   UNL     1      -2.568  16.400  20.106  0.00  0.00    +0.000 F 
ATOM     21  F   UNL     1      -0.878  17.747  20.382  0.00  0.00    +0.000 F 
ENDBRANCH   8  18
BRANCH   1  22
ATOM     22  C   UNL     1      -1.511  11.265  19.394  0.00  0.00    +0.000 C 
BRANCH  22  27
ATOM     23  C   UNL     1      -4.102   9.955  14.324  0.00  0.00    +0.000 C 
ATOM     24  C   UNL     1      -3.394  10.333  15.591  0.00  0.00    +0.000 A 
ATOM     25  C   UNL     1      -2.211   9.701  15.980  0.00  0.00    +0.000 A 
ATOM     26  C   UNL     1      -1.607  10.021  17.201  0.00  0.00    +0.000 A 
ATOM     27  C   UNL     1      -2.163  10.994  18.050  0.00  0.00    +0.000 A 
ATOM     28  C   UNL     1      -3.333  11.643  17.635  0.00  0.00    +0.000 A 
ATOM     29  C   UNL     1      -3.943  11.313  16.423  0.00  0.00    +0.000 A 
ENDBRANCH  22  27
ENDBRANCH   1  22
TORSDOF 4
ENDMDL
