MODEL 1
REMARK VINA RESULT:      -7.3      0.000      0.000
REMARK  Name = 
REMARK  10 active torsions:
REMARK  status: ('A' for Active; 'I' for Inactive)
REMARK    1  A    between atoms: C_1  and  C_2
REMARK    2  A    between atoms: C_7  and  N_8
REMARK    3  A    between atoms: N_8  and  C_9
REMARK    4  A    between atoms: C_12  and  C_13
REMARK    5  A    between atoms: C_16  and  S_17
REMARK    6  A    between atoms: S_17  and  N_20
REMARK    7  A    between atoms: N_23  and  C_24
REMARK    8  A    between atoms: C_24  and  C_25
REMARK    9  A    between atoms: C_24  and  C_26
REMARK   10  A    between atoms: C_24  and  C_27
REMARK                            x       y       z     vdW  Elec       q    Type
REMARK                         _______ _______ _______ _____ _____    ______ ____
ROOT
ATOM      1  C   UNL     1       1.355   9.114  20.883  0.00  0.00    +0.000 A 
ATOM      2  C   UNL     1       1.109   8.842  22.238  0.00  0.00    +0.000 A 
ATOM      3  C   UNL     1       0.112   9.509  22.942  0.00  0.00    +0.000 A 
ATOM      4  C   UNL     1      -0.596  10.539  22.329  0.00  0.00    +0.000 A 
ATOM      5  C   UNL     1      -0.258  10.940  21.032  0.00  0.00    +0.000 A 
ATOM      6  C   UNL     1       0.721  10.234  20.310  0.00  0.00    +0.000 A 
ENDROOT
BRANCH   6   7
ATOM      7  S   UNL     1       1.126  10.855  18.681  0.00  0.00    +0.000 S 
ATOM      8  O   UNL     1       2.061  11.933  18.897  0.00  0.00    +0.000 OA
ATOM      9  O   UNL     1       1.482   9.773  17.788  0.00  0.00    +0.000 OA
BRANCH   7  10
ATOM     10  N   UNL     1      -0.266  11.591  18.087  0.00  0.00    +0.000 N 
ATOM     11  C   UNL     1      -1.319  10.858  17.585  0.00  0.00    +0.000 C 
ATOM     12  O   UNL     1      -1.293   9.637  17.598  0.00  0.00    +0.000 OA
ATOM     13  N   UNL     1      -2.391  11.579  17.124  0.00  0.00    +0.000 N 
ATOM     14  H   UNL     1      -0.190  12.595  18.001  0.00  0.00    +0.000 HD
ATOM     15  H   UNL     1      -2.374  12.583  17.205  0.00  0.00    +0.000 HD
BRANCH  13  16
ATOM     16  C   UNL     1      -3.595  10.918  16.577  0.00  0.00    +0.000 C 
ATOM     17  C   UNL     1      -4.841  11.810  16.747  0.00  0.00    +0.000 C 
ATOM     18  C   UNL     1      -3.398  10.610  15.079  0.00  0.00    +0.000 C 
ATOM     19  C   UNL     1      -3.848   9.576  17.288  0.00  0.00    +0.000 C 
ENDBRANCH  13  16
ENDBRANCH   7  10
ENDBRANCH   6   7
BRANCH   1  20
ATOM     20  N   UNL     1       2.219   8.258  20.182  0.00  0.00    +0.000 N 
ATOM     21  H   UNL     1       3.193   8.529  20.299  0.00  0.00    +0.000 HD
BRANCH  20  28
ATOM     22  C   UNL     1       3.465   6.912  17.654  0.00  0.00    +0.000 C 
ATOM     23  C   UNL     1       2.613   6.248  18.705  0.00  0.00    +0.000 A 
ATOM     24  C   UNL     1       2.363   4.874  18.502  0.00  0.00    +0.000 A 
ATOM     25  C   UNL     1       1.642   4.123  19.422  0.00  0.00    +0.000 A 
ATOM     26  C   UNL     1       1.150   4.729  20.568  0.00  0.00    +0.000 A 
ATOM     27  C   UNL     1       1.362   6.092  20.774  0.00  0.00    +0.000 A 
ATOM     28  C   UNL     1       2.068   6.887  19.846  0.00  0.00    +0.000 A 
ENDBRANCH  20  28
ENDBRANCH   1  20
BRANCH   4  29
ATOM     29  C   UNL     1      -1.680  11.164  23.026  0.00  0.00    +0.000 C 
ATOM     30  N   UNL     1      -2.542  11.691  23.595  0.00  0.00    +0.000 NA
ENDBRANCH   4  29
TORSDOF 6
ENDMDL
MODEL 2
REMARK VINA RESULT:      -7.1      2.627      3.844
REMARK  Name = 
REMARK  10 active torsions:
REMARK  status: ('A' for Active; 'I' for Inactive)
REMARK    1  A    between atoms: C_1  and  C_2
REMARK    2  A    between atoms: C_7  and  N_8
REMARK    3  A    between atoms: N_8  and  C_9
REMARK    4  A    between atoms: C_12  and  C_13
REMARK    5  A    between atoms: C_16  and  S_17
REMARK    6  A    between atoms: S_17  and  N_20
REMARK    7  A    between atoms: N_23  and  C_24
REMARK    8  A    between atoms: C_24  and  C_25
REMARK    9  A    between atoms: C_24  and  C_26
REMARK   10  A    between atoms: C_24  and  C_27
REMARK                            x       y       z     vdW  Elec       q    Type
REMARK                         _______ _______ _______ _____ _____    ______ ____
ROOT
ATOM      1  C   UNL     1       1.536   8.595  20.628  0.00  0.00    +0.000 A 
ATOM      2  C   UNL     1       1.533   8.593  22.032  0.00  0.00    +0.000 A 
ATOM      3  C   UNL     1       0.605   9.333  22.757  0.00  0.00    +0.000 A 
ATOM      4  C   UNL     1      -0.282  10.173  22.089  0.00  0.00    +0.000 A 
ATOM      5  C   UNL     1      -0.192  10.317  20.701  0.00  0.00    +0.000 A 
ATOM      6  C   UNL     1       0.719   9.536  19.969  0.00  0.00    +0.000 A 
ENDROOT
BRANCH   6   7
ATOM      7  S   UNL     1       0.803   9.831  18.206  0.00  0.00    +0.000 S 
ATOM      8  O   UNL     1       1.252   8.589  17.624  0.00  0.00    +0.000 OA
ATOM      9  O   UNL     1      -0.419  10.441  17.725  0.00  0.00    +0.000 OA
BRANCH   7  10
ATOM     10  N   UNL     1       2.065  10.916  17.960  0.00  0.00    +0.000 N 
ATOM     11  C   UNL     1       2.001  12.220  18.400  0.00  0.00    +0.000 C 
ATOM     12  O   UNL     1       1.033  12.620  19.029  0.00  0.00    +0.000 OA
ATOM     13  N   UNL     1       3.092  13.004  18.127  0.00  0.00    +0.000 N 
ATOM     14  H   UNL     1       2.787  10.567  17.345  0.00  0.00    +0.000 HD
ATOM     15  H   UNL     1       3.885  12.591  17.662  0.00  0.00    +0.000 HD
BRANCH  13  16
ATOM     16  C   UNL     1       3.162  14.417  18.560  0.00  0.00    +0.000 C 
ATOM     17  C   UNL     1       1.784  15.098  18.448  0.00  0.00    +0.000 C 
ATOM     18  C   UNL     1       3.648  14.502  20.020  0.00  0.00    +0.000 C 
ATOM     19  C   UNL     1       4.170  15.198  17.698  0.00  0.00    +0.000 C 
ENDBRANCH  13  16
ENDBRANCH   7  10
ENDBRANCH   6   7
BRANCH   1  20
ATOM     20  N   UNL     1       2.352   7.665  19.966  0.00  0.00    +0.000 N 
ATOM     21  H   UNL     1       3.338   7.900  20.054  0.00  0.00    +0.000 HD
BRANCH  20  28
ATOM     22  C   UNL     1       3.646   6.083  17.604  0.00  0.00    +0.000 C 
ATOM     23  C   UNL     1       2.703   5.540  18.648  0.00  0.00    +0.000 A 
ATOM     24  C   UNL     1       2.385   4.171  18.522  0.00  0.00    +0.000 A 
ATOM     25  C   UNL     1       1.575   3.525  19.448  0.00  0.00    +0.000 A 
ATOM     26  C   UNL     1       1.061   4.234  20.523  0.00  0.00    +0.000 A 
ATOM     27  C   UNL     1       1.341   5.595  20.651  0.00  0.00    +0.000 A 
ATOM     28  C   UNL     1       2.138   6.284  19.713  0.00  0.00    +0.000 A 
ENDBRANCH  20  28
ENDBRANCH   1  20
BRANCH   4  29
ATOM     29  C   UNL     1      -1.294  10.865  22.830  0.00  0.00    +0.000 C 
ATOM     30  N   UNL     1      -2.095  11.441  23.439  0.00  0.00    +0.000 NA
ENDBRANCH   4  29
TORSDOF 6
ENDMDL
MODEL 3
REMARK VINA RESULT:      -7.0      2.117      6.035
REMARK  Name = 
REMARK  10 active torsions:
REMARK  status: ('A' for Active; 'I' for Inactive)
REMARK    1  A    between atoms: C_1  and  C_2
REMARK    2  A    between atoms: C_7  and  N_8
REMARK    3  A    between atoms: N_8  and  C_9
REMARK    4  A    between atoms: C_12  and  C_13
REMARK    5  A    between atoms: C_16  and  S_17
REMARK    6  A    between atoms: S_17  and  N_20
REMARK    7  A    between atoms: N_23  and  C_24
REMARK    8  A    between atoms: C_24  and  C_25
REMARK    9  A    between atoms: C_24  and  C_26
REMARK   10  A    between atoms: C_24  and  C_27
REMARK                            x       y       z     vdW  Elec       q    Type
REMARK                         _______ _______ _______ _____ _____    ______ ____
ROOT
ATOM      1  C   UNL     1      -0.098  11.743  21.753  0.00  0.00    +0.000 A 
ATOM      2  C   UNL     1      -0.123  10.529  22.459  0.00  0.00    +0.000 A 
ATOM      3  C   UNL     1       0.439   9.371  21.933  0.00  0.00    +0.000 A 
ATOM      4  C   UNL     1       0.952   9.379  20.638  0.00  0.00    +0.000 A 
ATOM      5  C   UNL     1       0.842  10.532  19.853  0.00  0.00    +0.000 A 
ATOM      6  C   UNL     1       0.312  11.712  20.405  0.00  0.00    +0.000 A 
ENDROOT
BRANCH   6   7
ATOM      7  S   UNL     1       0.158  13.118  19.309  0.00  0.00    +0.000 S 
ATOM      8  O   UNL     1      -0.883  13.941  19.875  0.00  0.00    +0.000 OA
ATOM      9  O   UNL     1       1.453  13.701  19.030  0.00  0.00    +0.000 OA
BRANCH   7  10
ATOM     10  N   UNL     1      -0.478  12.534  17.865  0.00  0.00    +0.000 N 
ATOM     11  C   UNL     1      -1.686  11.873  17.816  0.00  0.00    +0.000 C 
ATOM     12  O   UNL     1      -2.361  11.729  18.824  0.00  0.00    +0.000 OA
ATOM     13  N   UNL     1      -2.088  11.438  16.579  0.00  0.00    +0.000 N 
ATOM     14  H   UNL     1       0.165  12.582  17.087  0.00  0.00    +0.000 HD
ATOM     15  H   UNL     1      -1.513  11.649  15.779  0.00  0.00    +0.000 HD
BRANCH  13  16
ATOM     16  C   UNL     1      -3.372  10.732  16.382  0.00  0.00    +0.000 C 
ATOM     17  C   UNL     1      -3.469   9.495  17.296  0.00  0.00    +0.000 C 
ATOM     18  C   UNL     1      -4.551  11.677  16.688  0.00  0.00    +0.000 C 
ATOM     19  C   UNL     1      -3.521  10.277  14.919  0.00  0.00    +0.000 C 
ENDBRANCH  13  16
ENDBRANCH   7  10
ENDBRANCH   6   7
BRANCH   1  20
ATOM     20  N   UNL     1      -0.485  12.910  22.429  0.00  0.00    +0.000 N 
ATOM     21  H   UNL     1      -0.134  13.746  21.966  0.00  0.00    +0.000 HD
BRANCH  20  28
ATOM     22  C   UNL     1      -0.902  15.479  24.155  0.00  0.00    +0.000 C 
ATOM     23  C   UNL     1      -1.849  14.314  24.024  0.00  0.00    +0.000 A 
ATOM     24  C   UNL     1      -3.043  14.416  24.770  0.00  0.00    +0.000 A 
ATOM     25  C   UNL     1      -4.032  13.443  24.698  0.00  0.00    +0.000 A 
ATOM     26  C   UNL     1      -3.850  12.341  23.877  0.00  0.00    +0.000 A 
ATOM     27  C   UNL     1      -2.666  12.206  23.151  0.00  0.00    +0.000 A 
ATOM     28  C   UNL     1      -1.633  13.164  23.224  0.00  0.00    +0.000 A 
ENDBRANCH  20  28
ENDBRANCH   1  20
BRANCH   4  29
ATOM     29  C   UNL     1       1.609   8.212  20.131  0.00  0.00    +0.000 C 
ATOM     30  N   UNL     1       2.151   7.282  19.700  0.00  0.00    +0.000 NA
ENDBRANCH   4  29
TORSDOF 6
ENDMDL
MODEL 4
REMARK VINA RESULT:      -7.0      2.164      6.124
REMARK  Name = 
REMARK  10 active torsions:
REMARK  status: ('A' for Active; 'I' for Inactive)
REMARK    1  A    between atoms: C_1  and  C_2
REMARK    2  A    between atoms: C_7  and  N_8
REMARK    3  A    between atoms: N_8  and  C_9
REMARK    4  A    between atoms: C_12  and  C_13
REMARK    5  A    between atoms: C_16  and  S_17
REMARK    6  A    between atoms: S_17  and  N_20
REMARK    7  A    between atoms: N_23  and  C_24
REMARK    8  A    between atoms: C_24  and  C_25
REMARK    9  A    between atoms: C_24  and  C_26
REMARK   10  A    between atoms: C_24  and  C_27
REMARK                            x       y       z     vdW  Elec       q    Type
REMARK                         _______ _______ _______ _____ _____    ______ ____
ROOT
ATOM      1  C   UNL     1      -0.465  11.530  22.271  0.00  0.00    +0.000 A 
ATOM      2  C   UNL     1      -0.658  10.352  23.010  0.00  0.00    +0.000 A 
ATOM      3  C   UNL     1      -0.084   9.148  22.619  0.00  0.00    +0.000 A 
ATOM      4  C   UNL     1       0.616   9.074  21.417  0.00  0.00    +0.000 A 
ATOM      5  C   UNL     1       0.684  10.195  20.582  0.00  0.00    +0.000 A 
ATOM      6  C   UNL     1       0.139  11.421  21.003  0.00  0.00    +0.000 A 
ENDROOT
BRANCH   6   7
ATOM      7  S   UNL     1       0.222  12.782  19.843  0.00  0.00    +0.000 S 
ATOM      8  O   UNL     1       0.357  13.971  20.649  0.00  0.00    +0.000 OA
ATOM      9  O   UNL     1       1.191  12.515  18.802  0.00  0.00    +0.000 OA
BRANCH   7  10
ATOM     10  N   UNL     1      -1.297  12.900  19.131  0.00  0.00    +0.000 N 
ATOM     11  C   UNL     1      -1.804  11.904  18.326  0.00  0.00    +0.000 C 
ATOM     12  O   UNL     1      -1.176  10.872  18.139  0.00  0.00    +0.000 OA
ATOM     13  N   UNL     1      -3.049  12.127  17.799  0.00  0.00    +0.000 N 
ATOM     14  H   UNL     1      -1.723  13.811  19.229  0.00  0.00    +0.000 HD
ATOM     15  H   UNL     1      -3.540  12.971  18.048  0.00  0.00    +0.000 HD
BRANCH  13  16
ATOM     16  C   UNL     1      -3.718  11.132  16.933  0.00  0.00    +0.000 C 
ATOM     17  C   UNL     1      -3.050  11.068  15.546  0.00  0.00    +0.000 C 
ATOM     18  C   UNL     1      -3.658   9.736  17.585  0.00  0.00    +0.000 C 
ATOM     19  C   UNL     1      -5.205  11.485  16.749  0.00  0.00    +0.000 C 
ENDBRANCH  13  16
ENDBRANCH   7  10
ENDBRANCH   6   7
BRANCH   1  20
ATOM     20  N   UNL     1      -0.888  12.743  22.837  0.00  0.00    +0.000 N 
ATOM     21  H   UNL     1      -0.226  13.494  22.654  0.00  0.00    +0.000 HD
BRANCH  20  28
ATOM     22  C   UNL     1      -1.572  15.032  24.848  0.00  0.00    +0.000 C 
ATOM     23  C   UNL     1      -2.545  14.250  24.004  0.00  0.00    +0.000 A 
ATOM     24  C   UNL     1      -3.902  14.605  24.157  0.00  0.00    +0.000 A 
ATOM     25  C   UNL     1      -4.900  14.007  23.398  0.00  0.00    +0.000 A 
ATOM     26  C   UNL     1      -4.565  13.036  22.467  0.00  0.00    +0.000 A 
ATOM     27  C   UNL     1      -3.233  12.650  22.319  0.00  0.00    +0.000 A 
ATOM     28  C   UNL     1      -2.200  13.220  23.093  0.00  0.00    +0.000 A 
ENDBRANCH  20  28
ENDBRANCH   1  20
BRANCH   4  29
ATOM     29  C   UNL     1       1.281   7.857  21.059  0.00  0.00    +0.000 C 
ATOM     30  N   UNL     1       1.799   6.866  20.754  0.00  0.00    +0.000 NA
ENDBRANCH   4  29
TORSDOF 6
ENDMDL
MODEL 5
REMARK VINA RESULT:      -7.0      2.392      7.377
REMARK  Name = 
REMARK  10 active torsions:
REMARK  status: ('A' for Active; 'I' for Inactive)
REMARK    1  A    between atoms: C_1  and  C_2
REMARK    2  A    between atoms: C_7  and  N_8
REMARK    3  A    between atoms: N_8  and  C_9
REMARK    4  A    between atoms: C_12  and  C_13
REMARK    5  A    between atoms: C_16  and  S_17
REMARK    6  A    between atoms: S_17  and  N_20
REMARK    7  A    between atoms: N_23  and  C_24
REMARK    8  A    between atoms: C_24  and  C_25
REMARK    9  A    between atoms: C_24  and  C_26
REMARK   10  A    between atoms: C_24  and  C_27
REMARK                            x       y       z     vdW  Elec       q    Type
REMARK                         _______ _______ _______ _____ _____    ______ ____
ROOT
ATOM      1  C   UNL     1      -1.439  11.462  20.780  0.00  0.00    +0.000 A 
ATOM      2  C   UNL     1      -2.281  12.336  20.074  0.00  0.00    +0.000 A 
ATOM      3  C   UNL     1      -2.588  12.124  18.734  0.00  0.00    +0.000 A 
ATOM      4  C   UNL     1      -1.974  11.084  18.042  0.00  0.00    +0.000 A 
ATOM      5  C   UNL     1      -1.007  10.299  18.679  0.00  0.00    +0.000 A 
ATOM      6  C   UNL     1      -0.733  10.490  20.045  0.00  0.00    +0.000 A 
ENDROOT
BRANCH   6   7
ATOM      7  S   UNL     1       0.559   9.478  20.758  0.00  0.00    +0.000 S 
ATOM      8  O   UNL     1       1.410  10.388  21.486  0.00  0.00    +0.000 OA
ATOM      9  O   UNL     1       0.001   8.329  21.438  0.00  0.00    +0.000 OA
BRANCH   7  10
ATOM     10  N   UNL     1       1.499   8.925  19.476  0.00  0.00    +0.000 N 
ATOM     11  C   UNL     1       2.036   7.656  19.461  0.00  0.00    +0.000 C 
ATOM     12  O   UNL     1       1.804   6.869  20.366  0.00  0.00    +0.000 OA
ATOM     13  N   UNL     1       2.790   7.333  18.363  0.00  0.00    +0.000 N 
ATOM     14  H   UNL     1       1.747   9.646  18.813  0.00  0.00    +0.000 HD
ATOM     15  H   UNL     1       2.885   8.007  17.621  0.00  0.00    +0.000 HD
BRANCH  13  16
ATOM     16  C   UNL     1       3.408   5.998  18.209  0.00  0.00    +0.000 C 
ATOM     17  C   UNL     1       4.426   5.990  17.052  0.00  0.00    +0.000 C 
ATOM     18  C   UNL     1       4.125   5.591  19.512  0.00  0.00    +0.000 C 
ATOM     19  C   UNL     1       2.334   4.932  17.929  0.00  0.00    +0.000 C 
ENDBRANCH  13  16
ENDBRANCH   7  10
ENDBRANCH   6   7
BRANCH   1  20
ATOM     20  N   UNL     1      -1.348  11.612  22.173  0.00  0.00    +0.000 N 
ATOM     21  H   UNL     1      -0.457  11.273  22.530  0.00  0.00    +0.000 HD
BRANCH  20  28
ATOM     22  C   UNL     1      -0.261  14.504  22.624  0.00  0.00    +0.000 C 
ATOM     23  C   UNL     1      -1.480  13.887  23.259  0.00  0.00    +0.000 A 
ATOM     24  C   UNL     1      -2.188  14.723  24.149  0.00  0.00    +0.000 A 
ATOM     25  C   UNL     1      -3.363  14.304  24.761  0.00  0.00    +0.000 A 
ATOM     26  C   UNL     1      -3.859  13.037  24.498  0.00  0.00    +0.000 A 
ATOM     27  C   UNL     1      -3.161  12.184  23.642  0.00  0.00    +0.000 A 
ATOM     28  C   UNL     1      -1.952  12.571  23.027  0.00  0.00    +0.000 A 
ENDBRANCH  20  28
ENDBRANCH   1  20
BRANCH   4  29
ATOM     29  C   UNL     1      -2.357  10.813  16.688  0.00  0.00    +0.000 C 
ATOM     30  N   UNL     1      -2.643  10.583  15.589  0.00  0.00    +0.000 NA
ENDBRANCH   4  29
TORSDOF 6
ENDMDL
MODEL 6
REMARK VINA RESULT:      -6.9      2.582      6.806
REMARK  Name = 
REMARK  10 active torsions:
REMARK  status: ('A' for Active; 'I' for Inactive)
REMARK    1  A    between atoms: C_1  and  C_2
REMARK    2  A    between atoms: C_7  and  N_8
REMARK    3  A    between atoms: N_8  and  C_9
REMARK    4  A    between atoms: C_12  and  C_13
REMARK    5  A    between atoms: C_16  and  S_17
REMARK    6  A    between atoms: S_17  and  N_20
REMARK    7  A    between atoms: N_23  and  C_24
REMARK    8  A    between atoms: C_24  and  C_25
REMARK    9  A    between atoms: C_24  and  C_26
REMARK   10  A    between atoms: C_24  and  C_27
REMARK                            x       y       z     vdW  Elec       q    Type
REMARK                         _______ _______ _______ _____ _____    ______ ____
ROOT
ATOM      1  C   UNL     1      -0.225  12.237  18.634  0.00  0.00    +0.000 A 
ATOM      2  C   UNL     1      -0.265  13.630  18.460  0.00  0.00    +0.000 A 
ATOM      3  C   UNL     1       0.719  14.456  18.992  0.00  0.00    +0.000 A 
ATOM      4  C   UNL     1       1.714  13.913  19.800  0.00  0.00    +0.000 A 
ATOM      5  C   UNL     1       1.682  12.552  20.123  0.00  0.00    +0.000 A 
ATOM      6  C   UNL     1       0.711  11.714  19.547  0.00  0.00    +0.000 A 
ENDROOT
BRANCH   6   7
ATOM      7  S   UNL     1       0.714  10.000  20.064  0.00  0.00    +0.000 S 
ATOM      8  O   UNL     1       1.507   9.959  21.269  0.00  0.00    +0.000 OA
ATOM      9  O   UNL     1      -0.629   9.462  20.078  0.00  0.00    +0.000 OA
BRANCH   7  10
ATOM     10  N   UNL     1       1.609   9.154  18.917  0.00  0.00    +0.000 N 
ATOM     11  C   UNL     1       2.020   7.856  19.128  0.00  0.00    +0.000 C 
ATOM     12  O   UNL     1       1.705   7.258  20.145  0.00  0.00    +0.000 OA
ATOM     13  N   UNL     1       2.751   7.283  18.119  0.00  0.00    +0.000 N 
ATOM     14  H   UNL     1       1.931   9.727  18.150  0.00  0.00    +0.000 HD
ATOM     15  H   UNL     1       2.918   7.811  17.278  0.00  0.00    +0.000 HD
BRANCH  13  16
ATOM     16  C   UNL     1       3.238   5.889  18.207  0.00  0.00    +0.000 C 
ATOM     17  C   UNL     1       4.303   5.607  17.128  0.00  0.00    +0.000 C 
ATOM     18  C   UNL     1       3.849   5.627  19.597  0.00  0.00    +0.000 C 
ATOM     19  C   UNL     1       2.076   4.896  18.024  0.00  0.00    +0.000 C 
ENDBRANCH  13  16
ENDBRANCH   7  10
ENDBRANCH   6   7
BRANCH   1  20
ATOM     20  N   UNL     1      -1.121  11.451  17.892  0.00  0.00    +0.000 N 
ATOM     21  H   UNL     1      -0.764  10.510  17.747  0.00  0.00    +0.000 HD
BRANCH  20  28
ATOM     22  C   UNL     1      -2.775  10.642  15.369  0.00  0.00    +0.000 C 
ATOM     23  C   UNL     1      -3.315  11.169  16.674  0.00  0.00    +0.000 A 
ATOM     24  C   UNL     1      -4.718  11.304  16.738  0.00  0.00    +0.000 A 
ATOM     25  C   UNL     1      -5.356  11.722  17.900  0.00  0.00    +0.000 A 
ATOM     26  C   UNL     1      -4.605  12.017  19.026  0.00  0.00    +0.000 A 
ATOM     27  C   UNL     1      -3.214  11.917  18.977  0.00  0.00    +0.000 A 
ATOM     28  C   UNL     1      -2.536  11.521  17.805  0.00  0.00    +0.000 A 
ENDBRANCH  20  28
ENDBRANCH   1  20
BRANCH   4  29
ATOM     29  C   UNL     1       2.775  14.749  20.275  0.00  0.00    +0.000 C 
ATOM     30  N   UNL     1       3.650  15.405  20.660  0.00  0.00    +0.000 NA
ENDBRANCH   4  29
TORSDOF 6
ENDMDL
MODEL 7
REMARK VINA RESULT:      -6.9      2.508      6.736
REMARK  Name = 
REMARK  10 active torsions:
REMARK  status: ('A' for Active; 'I' for Inactive)
REMARK    1  A    between atoms: C_1  and  C_2
REMARK    2  A    between atoms: C_7  and  N_8
REMARK    3  A    between atoms: N_8  and  C_9
REMARK    4  A    between atoms: C_12  and  C_13
REMARK    5  A    between atoms: C_16  and  S_17
REMARK    6  A    between atoms: S_17  and  N_20
REMARK    7  A    between atoms: N_23  and  C_24
REMARK    8  A    between atoms: C_24  and  C_25
REMARK    9  A    between atoms: C_24  and  C_26
REMARK   10  A    between atoms: C_24  and  C_27
REMARK                            x       y       z     vdW  Elec       q    Type
REMARK                         _______ _______ _______ _____ _____    ______ ____
ROOT
ATOM      1  C   UNL     1      -0.684  11.590  19.495  0.00  0.00    +0.000 A 
ATOM      2  C   UNL     1      -0.884  12.944  19.182  0.00  0.00    +0.000 A 
ATOM      3  C   UNL     1       0.109  13.893  19.398  0.00  0.00    +0.000 A 
ATOM      4  C   UNL     1       1.293  13.523  20.029  0.00  0.00    +0.000 A 
ATOM      5  C   UNL     1       1.452  12.214  20.497  0.00  0.00    +0.000 A 
ATOM      6  C   UNL     1       0.464  11.248  20.238  0.00  0.00    +0.000 A 
ENDROOT
BRANCH   6   7
ATOM      7  S   UNL     1       0.728   9.617  20.926  0.00  0.00    +0.000 S 
ATOM      8  O   UNL     1       1.691   9.794  21.986  0.00  0.00    +0.000 OA
ATOM      9  O   UNL     1      -0.533   8.966  21.212  0.00  0.00    +0.000 OA
BRANCH   7  10
ATOM     10  N   UNL     1       1.528   8.723  19.748  0.00  0.00    +0.000 N 
ATOM     11  C   UNL     1       1.879   7.405  19.946  0.00  0.00    +0.000 C 
ATOM     12  O   UNL     1       1.574   6.826  20.979  0.00  0.00    +0.000 OA
ATOM     13  N   UNL     1       2.536   6.792  18.911  0.00  0.00    +0.000 N 
ATOM     14  H   UNL     1       1.849   9.275  18.965  0.00  0.00    +0.000 HD
ATOM     15  H   UNL     1       2.696   7.308  18.061  0.00  0.00    +0.000 HD
BRANCH  13  16
ATOM     16  C   UNL     1       2.952   5.374  18.985  0.00  0.00    +0.000 C 
ATOM     17  C   UNL     1       2.955   4.726  17.586  0.00  0.00    +0.000 C 
ATOM     18  C   UNL     1       4.365   5.266  19.592  0.00  0.00    +0.000 C 
ATOM     19  C   UNL     1       2.001   4.577  19.896  0.00  0.00    +0.000 C 
ENDBRANCH  13  16
ENDBRANCH   7  10
ENDBRANCH   6   7
BRANCH   1  20
ATOM     20  N   UNL     1      -1.637  10.660  19.052  0.00  0.00    +0.000 N 
ATOM     21  H   UNL     1      -2.040  10.137  19.827  0.00  0.00    +0.000 HD
BRANCH  20  28
ATOM     22  C   UNL     1      -4.411  12.092  18.969  0.00  0.00    +0.000 C 
ATOM     23  C   UNL     1      -3.752  11.331  17.847  0.00  0.00    +0.000 A 
ATOM     24  C   UNL     1      -4.486  11.272  16.643  0.00  0.00    +0.000 A 
ATOM     25  C   UNL     1      -3.973  10.655  15.509  0.00  0.00    +0.000 A 
ATOM     26  C   UNL     1      -2.713  10.079  15.552  0.00  0.00    +0.000 A 
ATOM     27  C   UNL     1      -1.982  10.102  16.740  0.00  0.00    +0.000 A 
ATOM     28  C   UNL     1      -2.486  10.698  17.915  0.00  0.00    +0.000 A 
ENDBRANCH  20  28
ENDBRANCH   1  20
BRANCH   4  29
ATOM     29  C   UNL     1       2.349  14.481  20.171  0.00  0.00    +0.000 C 
ATOM     30  N   UNL     1       3.210  15.252  20.260  0.00  0.00    +0.000 NA
ENDBRANCH   4  29
TORSDOF 6
ENDMDL
MODEL 8
REMARK VINA RESULT:      -6.9      2.592      6.837
REMARK  Name = 
REMARK  10 active torsions:
REMARK  status: ('A' for Active; 'I' for Inactive)
REMARK    1  A    between atoms: C_1  and  C_2
REMARK    2  A    between atoms: C_7  and  N_8
REMARK    3  A    between atoms: N_8  and  C_9
REMARK    4  A    between atoms: C_12  and  C_13
REMARK    5  A    between atoms: C_16  and  S_17
REMARK    6  A    between atoms: S_17  and  N_20
REMARK    7  A    between atoms: N_23  and  C_24
REMARK    8  A    between atoms: C_24  and  C_25
REMARK    9  A    between atoms: C_24  and  C_26
REMARK   10  A    between atoms: C_24  and  C_27
REMARK                            x       y       z     vdW  Elec       q    Type
REMARK                         _______ _______ _______ _____ _____    ______ ____
ROOT
ATOM      1  C   UNL     1      -0.676  12.132  19.580  0.00  0.00    +0.000 A 
ATOM      2  C   UNL     1      -0.697  13.483  19.200  0.00  0.00    +0.000 A 
ATOM      3  C   UNL     1       0.466  14.245  19.162  0.00  0.00    +0.000 A 
ATOM      4  C   UNL     1       1.666  13.695  19.603  0.00  0.00    +0.000 A 
ATOM      5  C   UNL     1       1.684  12.403  20.139  0.00  0.00    +0.000 A 
ATOM      6  C   UNL     1       0.514  11.622  20.136  0.00  0.00    +0.000 A 
ENDROOT
BRANCH   6   7
ATOM      7  S   UNL     1       0.620  10.005  20.895  0.00  0.00    +0.000 S 
ATOM      8  O   UNL     1       1.488  10.168  22.037  0.00  0.00    +0.000 OA
ATOM      9  O   UNL     1      -0.696   9.432  21.078  0.00  0.00    +0.000 OA
BRANCH   7  10
ATOM     10  N   UNL     1       1.477   9.028  19.826  0.00  0.00    +0.000 N 
ATOM     11  C   UNL     1       1.733   7.702  20.098  0.00  0.00    +0.000 C 
ATOM     12  O   UNL     1       1.302   7.178  21.115  0.00  0.00    +0.000 OA
ATOM     13  N   UNL     1       2.449   7.018  19.150  0.00  0.00    +0.000 N 
ATOM     14  H   UNL     1       1.899   9.534  19.061  0.00  0.00    +0.000 HD
ATOM     15  H   UNL     1       2.716   7.495  18.303  0.00  0.00    +0.000 HD
BRANCH  13  16
ATOM     16  C   UNL     1       2.778   5.584  19.307  0.00  0.00    +0.000 C 
ATOM     17  C   UNL     1       2.119   5.002  20.573  0.00  0.00    +0.000 C 
ATOM     18  C   UNL     1       2.292   4.791  18.077  0.00  0.00    +0.000 C 
ATOM     19  C   UNL     1       4.301   5.385  19.406  0.00  0.00    +0.000 C 
ENDBRANCH  13  16
ENDBRANCH   7  10
ENDBRANCH   6   7
BRANCH   1  20
ATOM     20  N   UNL     1      -1.840  11.372  19.388  0.00  0.00    +0.000 N 
ATOM     21  H   UNL     1      -2.391  11.305  20.241  0.00  0.00    +0.000 HD
BRANCH  20  28
ATOM     22  C   UNL     1      -4.828  12.233  19.094  0.00  0.00    +0.000 C 
ATOM     23  C   UNL     1      -3.976  11.551  18.053  0.00  0.00    +0.000 A 
ATOM     24  C   UNL     1      -4.619  11.283  16.826  0.00  0.00    +0.000 A 
ATOM     25  C   UNL     1      -3.938  10.712  15.758  0.00  0.00    +0.000 A 
ATOM     26  C   UNL     1      -2.595  10.394  15.892  0.00  0.00    +0.000 A 
ATOM     27  C   UNL     1      -1.947  10.626  17.106  0.00  0.00    +0.000 A 
ATOM     28  C   UNL     1      -2.618  11.180  18.216  0.00  0.00    +0.000 A 
ENDBRANCH  20  28
ENDBRANCH   1  20
BRANCH   4  29
ATOM     29  C   UNL     1       2.877  14.449  19.480  0.00  0.00    +0.000 C 
ATOM     30  N   UNL     1       3.845  15.079  19.368  0.00  0.00    +0.000 NA
ENDBRANCH   4  29
TORSDOF 6
ENDMDL
MODEL 9
REMARK VINA RESULT:      -6.9      2.990      5.942
REMARK  Name = 
REMARK  10 active torsions:
REMARK  status: ('A' for Active; 'I' for Inactive)
REMARK    1  A    between atoms: C_1  and  C_2
REMARK    2  A    between atoms: C_7  and  N_8
REMARK    3  A    between atoms: N_8  and  C_9
REMARK    4  A    between atoms: C_12  and  C_13
REMARK    5  A    between atoms: C_16  and  S_17
REMARK    6  A    between atoms: S_17  and  N_20
REMARK    7  A    between atoms: N_23  and  C_24
REMARK    8  A    between atoms: C_24  and  C_25
REMARK    9  A    between atoms: C_24  and  C_26
REMARK   10  A    between atoms: C_24  and  C_27
REMARK                            x       y       z     vdW  Elec       q    Type
REMARK                         _______ _______ _______ _____ _____    ______ ____
ROOT
ATOM      1  C   UNL     1       3.837   5.623  18.158  0.00  0.00    +0.000 A 
ATOM      2  C   UNL     1       4.407   4.456  18.692  0.00  0.00    +0.000 A 
ATOM      3  C   UNL     1       3.804   3.767  19.739  0.00  0.00    +0.000 A 
ATOM      4  C   UNL     1       2.664   4.289  20.343  0.00  0.00    +0.000 A 
ATOM      5  C   UNL     1       2.169   5.533  19.937  0.00  0.00    +0.000 A 
ATOM      6  C   UNL     1       2.757   6.204  18.851  0.00  0.00    +0.000 A 
ENDROOT
BRANCH   6   7
ATOM      7  S   UNL     1       2.093   7.815  18.442  0.00  0.00    +0.000 S 
ATOM      8  O   UNL     1       3.232   8.629  18.094  0.00  0.00    +0.000 OA
ATOM      9  O   UNL     1       0.991   7.699  17.510  0.00  0.00    +0.000 OA
BRANCH   7  10
ATOM     10  N   UNL     1       1.503   8.470  19.875  0.00  0.00    +0.000 N 
ATOM     11  C   UNL     1       0.861   9.689  19.909  0.00  0.00    +0.000 C 
ATOM     12  O   UNL     1       0.658  10.317  18.881  0.00  0.00    +0.000 OA
ATOM     13  N   UNL     1       0.438  10.114  21.141  0.00  0.00    +0.000 N 
ATOM     14  H   UNL     1       1.793   7.966  20.702  0.00  0.00    +0.000 HD
ATOM     15  H   UNL     1       0.579   9.515  21.939  0.00  0.00    +0.000 HD
BRANCH  13  16
ATOM     16  C   UNL     1      -0.282  11.394  21.318  0.00  0.00    +0.000 C 
ATOM     17  C   UNL     1      -1.423  11.532  20.291  0.00  0.00    +0.000 C 
ATOM     18  C   UNL     1      -0.871  11.481  22.739  0.00  0.00    +0.000 C 
ATOM     19  C   UNL     1       0.680  12.585  21.149  0.00  0.00    +0.000 C 
ENDBRANCH  13  16
ENDBRANCH   7  10
ENDBRANCH   6   7
BRANCH   1  20
ATOM     20  N   UNL     1       4.378   6.140  16.971  0.00  0.00    +0.000 N 
ATOM     21  H   UNL     1       4.379   7.158  16.970  0.00  0.00    +0.000 HD
BRANCH  20  28
ATOM     22  C   UNL     1       7.459   6.522  17.314  0.00  0.00    +0.000 C 
ATOM     23  C   UNL     1       6.759   5.751  16.224  0.00  0.00    +0.000 A 
ATOM     24  C   UNL     1       7.606   5.150  15.269  0.00  0.00    +0.000 A 
ATOM     25  C   UNL     1       7.099   4.360  14.243  0.00  0.00    +0.000 A 
ATOM     26  C   UNL     1       5.732   4.155  14.147  0.00  0.00    +0.000 A 
ATOM     27  C   UNL     1       4.875   4.763  15.065  0.00  0.00    +0.000 A 
ATOM     28  C   UNL     1       5.356   5.590  16.101  0.00  0.00    +0.000 A 
ENDBRANCH  20  28
ENDBRANCH   1  20
BRANCH   4  29
ATOM     29  C   UNL     1       1.994   3.535  21.360  0.00  0.00    +0.000 C 
ATOM     30  N   UNL     1       1.467   2.904  22.178  0.00  0.00    +0.000 NA
ENDBRANCH   4  29
TORSDOF 6
ENDMDL
