MODEL 1
REMARK VINA RESULT:      -7.9      0.000      0.000
REMARK  Name = 
REMARK  5 active torsions:
REMARK  status: ('A' for Active; 'I' for Inactive)
REMARK    1  A    between atoms: C_1  and  C_2
REMARK    2  A    between atoms: C_6  and  C_7
REMARK    3  A    between atoms: C_7  and  S_8
REMARK    4  A    between atoms: S_8  and  C_9
REMARK    5  A    between atoms: C_17  and  C_18
REMARK                            x       y       z     vdW  Elec       q    Type
REMARK                         _______ _______ _______ _____ _____    ______ ____
ROOT
ATOM      1  C   UNL     1       3.550   3.633  17.193  0.00  0.00    +0.000 A 
ATOM      2  N   UNL     1       2.509   2.893  16.869  0.00  0.00    +0.000 NA
ATOM      3  N   UNL     1       1.477   3.209  17.726  0.00  0.00    +0.000 NA
ATOM      4  C   UNL     1       1.913   4.142  18.539  0.00  0.00    +0.000 A 
ATOM      5  N   UNL     1       1.248   4.753  19.574  0.00  0.00    +0.000 N 
ATOM      6  C   UNL     1       1.847   5.734  20.321  0.00  0.00    +0.000 A 
ATOM      7  O   UNL     1       1.279   6.292  21.253  0.00  0.00    +0.000 OA
ATOM      8  C   UNL     1       3.239   6.120  19.953  0.00  0.00    +0.000 A 
ATOM      9  C   UNL     1       3.879   5.497  18.943  0.00  0.00    +0.000 A 
ATOM     10  N   UNL     1       3.218   4.485  18.234  0.00  0.00    +0.000 N 
ATOM     11  H   UNL     1       0.303   4.472  19.795  0.00  0.00    +0.000 HD
ENDROOT
BRANCH   9  12
ATOM     12  C   UNL     1       5.239   5.956  18.637  0.00  0.00    +0.000 A 
ATOM     13  C   UNL     1       6.341   5.375  19.278  0.00  0.00    +0.000 A 
ATOM     14  C   UNL     1       7.631   5.819  18.990  0.00  0.00    +0.000 A 
ATOM     15  C   UNL     1       7.826   6.841  18.062  0.00  0.00    +0.000 A 
ATOM     16  C   UNL     1       6.734   7.421  17.418  0.00  0.00    +0.000 A 
ATOM     17  C   UNL     1       5.441   6.984  17.707  0.00  0.00    +0.000 A 
ENDBRANCH   9  12
BRANCH   1  18
ATOM     18  S   UNL     1       5.142   3.487  16.543  0.00  0.00    +0.000 S 
BRANCH  18  19
ATOM     19  C   UNL     1       5.300   4.915  15.436  0.00  0.00    +0.000 C 
BRANCH  19  25
ATOM     20  C   UNL     1       5.548   2.034  11.279  0.00  0.00    +0.000 C 
ATOM     21  C   UNL     1       6.113   3.130  12.134  0.00  0.00    +0.000 A 
ATOM     22  C   UNL     1       7.252   3.833  11.729  0.00  0.00    +0.000 A 
ATOM     23  C   UNL     1       7.768   4.856  12.522  0.00  0.00    +0.000 A 
ATOM     24  C   UNL     1       7.152   5.187  13.730  0.00  0.00    +0.000 A 
ATOM     25  C   UNL     1       6.010   4.496  14.162  0.00  0.00    +0.000 A 
ATOM     26  C   UNL     1       5.498   3.469  13.352  0.00  0.00    +0.000 A 
ENDBRANCH  19  25
ENDBRANCH  18  19
ENDBRANCH   1  18
TORSDOF 4
ENDMDL
MODEL 2
REMARK VINA RESULT:      -7.8      3.136      6.557
REMARK  Name = 
REMARK  5 active torsions:
REMARK  status: ('A' for Active; 'I' for Inactive)
REMARK    1  A    between atoms: C_1  and  C_2
REMARK    2  A    between atoms: C_6  and  C_7
REMARK    3  A    between atoms: C_7  and  S_8
REMARK    4  A    between atoms: S_8  and  C_9
REMARK    5  A    between atoms: C_17  and  C_18
REMARK                            x       y       z     vdW  Elec       q    Type
REMARK                         _______ _______ _______ _____ _____    ______ ____
ROOT
ATOM      1  C   UNL     1       2.042   4.825  19.388  0.00  0.00    +0.000 A 
ATOM      2  N   UNL     1       1.093   4.707  20.295  0.00  0.00    +0.000 NA
ATOM      3  N   UNL     1       1.471   3.725  21.184  0.00  0.00    +0.000 NA
ATOM      4  C   UNL     1       2.646   3.281  20.802  0.00  0.00    +0.000 A 
ATOM      5  N   UNL     1       3.408   2.288  21.367  0.00  0.00    +0.000 N 
ATOM      6  C   UNL     1       4.635   1.957  20.853  0.00  0.00    +0.000 A 
ATOM      7  O   UNL     1       5.335   1.072  21.333  0.00  0.00    +0.000 OA
ATOM      8  C   UNL     1       5.112   2.729  19.669  0.00  0.00    +0.000 A 
ATOM      9  C   UNL     1       4.341   3.690  19.121  0.00  0.00    +0.000 A 
ATOM     10  N   UNL     1       3.085   3.963  19.682  0.00  0.00    +0.000 N 
ATOM     11  H   UNL     1       3.060   1.787  22.172  0.00  0.00    +0.000 HD
ENDROOT
BRANCH   9  12
ATOM     12  C   UNL     1       4.899   4.412  17.973  0.00  0.00    +0.000 A 
ATOM     13  C   UNL     1       5.687   5.553  18.173  0.00  0.00    +0.000 A 
ATOM     14  C   UNL     1       6.210   6.241  17.078  0.00  0.00    +0.000 A 
ATOM     15  C   UNL     1       5.951   5.794  15.783  0.00  0.00    +0.000 A 
ATOM     16  C   UNL     1       5.171   4.656  15.578  0.00  0.00    +0.000 A 
ATOM     17  C   UNL     1       4.641   3.968  16.669  0.00  0.00    +0.000 A 
ENDBRANCH   9  12
BRANCH   1  18
ATOM     18  S   UNL     1       1.966   5.788  17.957  0.00  0.00    +0.000 S 
BRANCH  18  19
ATOM     19  C   UNL     1       2.795   7.332  18.419  0.00  0.00    +0.000 C 
BRANCH  19  25
ATOM     20  C   UNL     1       0.206   9.294  22.304  0.00  0.00    +0.000 C 
ATOM     21  C   UNL     1       0.549   9.290  20.843  0.00  0.00    +0.000 A 
ATOM     22  C   UNL     1      -0.003  10.241  19.979  0.00  0.00    +0.000 A 
ATOM     23  C   UNL     1       0.325  10.238  18.625  0.00  0.00    +0.000 A 
ATOM     24  C   UNL     1       1.209   9.284  18.119  0.00  0.00    +0.000 A 
ATOM     25  C   UNL     1       1.775   8.316  18.961  0.00  0.00    +0.000 A 
ATOM     26  C   UNL     1       1.438   8.332  20.326  0.00  0.00    +0.000 A 
ENDBRANCH  19  25
ENDBRANCH  18  19
ENDBRANCH   1  18
TORSDOF 4
ENDMDL
MODEL 3
REMARK VINA RESULT:      -7.7      3.254      5.364
REMARK  Name = 
REMARK  5 active torsions:
REMARK  status: ('A' for Active; 'I' for Inactive)
REMARK    1  A    between atoms: C_1  and  C_2
REMARK    2  A    between atoms: C_6  and  C_7
REMARK    3  A    between atoms: C_7  and  S_8
REMARK    4  A    between atoms: S_8  and  C_9
REMARK    5  A    between atoms: C_17  and  C_18
REMARK                            x       y       z     vdW  Elec       q    Type
REMARK                         _______ _______ _______ _____ _____    ______ ____
ROOT
ATOM      1  C   UNL     1       2.896   6.807  18.204  0.00  0.00    +0.000 A 
ATOM      2  N   UNL     1       3.258   7.885  17.538  0.00  0.00    +0.000 NA
ATOM      3  N   UNL     1       2.665   8.976  18.136  0.00  0.00    +0.000 NA
ATOM      4  C   UNL     1       1.970   8.535  19.157  0.00  0.00    +0.000 A 
ATOM      5  N   UNL     1       1.194   9.250  20.036  0.00  0.00    +0.000 N 
ATOM      6  C   UNL     1       0.543   8.633  21.072  0.00  0.00    +0.000 A 
ATOM      7  O   UNL     1      -0.160   9.246  21.869  0.00  0.00    +0.000 OA
ATOM      8  C   UNL     1       0.726   7.160  21.215  0.00  0.00    +0.000 A 
ATOM      9  C   UNL     1       1.480   6.474  20.332  0.00  0.00    +0.000 A 
ATOM     10  N   UNL     1       2.099   7.163  19.280  0.00  0.00    +0.000 N 
ATOM     11  H   UNL     1       1.094  10.248  19.916  0.00  0.00    +0.000 HD
ENDROOT
BRANCH   9  12
ATOM     12  C   UNL     1       1.622   5.032  20.562  0.00  0.00    +0.000 A 
ATOM     13  C   UNL     1       2.650   4.546  21.379  0.00  0.00    +0.000 A 
ATOM     14  C   UNL     1       2.786   3.174  21.589  0.00  0.00    +0.000 A 
ATOM     15  C   UNL     1       1.897   2.284  20.988  0.00  0.00    +0.000 A 
ATOM     16  C   UNL     1       0.868   2.762  20.177  0.00  0.00    +0.000 A 
ATOM     17  C   UNL     1       0.732   4.133  19.959  0.00  0.00    +0.000 A 
ENDBRANCH   9  12
BRANCH   1  18
ATOM     18  S   UNL     1       3.222   5.175  17.749  0.00  0.00    +0.000 S 
BRANCH  18  19
ATOM     19  C   UNL     1       4.617   5.306  16.600  0.00  0.00    +0.000 C 
BRANCH  19  25
ATOM     20  C   UNL     1       8.143   8.772  17.694  0.00  0.00    +0.000 C 
ATOM     21  C   UNL     1       7.548   7.412  17.914  0.00  0.00    +0.000 A 
ATOM     22  C   UNL     1       8.083   6.547  18.874  0.00  0.00    +0.000 A 
ATOM     23  C   UNL     1       7.522   5.289  19.079  0.00  0.00    +0.000 A 
ATOM     24  C   UNL     1       6.419   4.880  18.327  0.00  0.00    +0.000 A 
ATOM     25  C   UNL     1       5.864   5.726  17.356  0.00  0.00    +0.000 A 
ATOM     26  C   UNL     1       6.438   6.994  17.160  0.00  0.00    +0.000 A 
ENDBRANCH  19  25
ENDBRANCH  18  19
ENDBRANCH   1  18
TORSDOF 4
ENDMDL
MODEL 4
REMARK VINA RESULT:      -7.7      3.883      7.698
REMARK  Name = 
REMARK  5 active torsions:
REMARK  status: ('A' for Active; 'I' for Inactive)
REMARK    1  A    between atoms: C_1  and  C_2
REMARK    2  A    between atoms: C_6  and  C_7
REMARK    3  A    between atoms: C_7  and  S_8
REMARK    4  A    between atoms: S_8  and  C_9
REMARK    5  A    between atoms: C_17  and  C_18
REMARK                            x       y       z     vdW  Elec       q    Type
REMARK                         _______ _______ _______ _____ _____    ______ ____
ROOT
ATOM      1  C   UNL     1       3.912   6.723  17.560  0.00  0.00    +0.000 A 
ATOM      2  N   UNL     1       4.373   7.836  17.026  0.00  0.00    +0.000 NA
ATOM      3  N   UNL     1       5.729   7.687  16.832  0.00  0.00    +0.000 NA
ATOM      4  C   UNL     1       6.055   6.484  17.241  0.00  0.00    +0.000 A 
ATOM      5  N   UNL     1       7.295   5.896  17.263  0.00  0.00    +0.000 N 
ATOM      6  C   UNL     1       7.463   4.610  17.706  0.00  0.00    +0.000 A 
ATOM      7  O   UNL     1       8.559   4.062  17.742  0.00  0.00    +0.000 OA
ATOM      8  C   UNL     1       6.243   3.873  18.146  0.00  0.00    +0.000 A 
ATOM      9  C   UNL     1       5.037   4.474  18.130  0.00  0.00    +0.000 A 
ATOM     10  N   UNL     1       4.938   5.801  17.687  0.00  0.00    +0.000 N 
ATOM     11  H   UNL     1       8.102   6.419  16.954  0.00  0.00    +0.000 HD
ENDROOT
BRANCH   9  12
ATOM     12  C   UNL     1       3.889   3.667  18.559  0.00  0.00    +0.000 A 
ATOM     13  C   UNL     1       3.598   3.523  19.922  0.00  0.00    +0.000 A 
ATOM     14  C   UNL     1       2.511   2.749  20.327  0.00  0.00    +0.000 A 
ATOM     15  C   UNL     1       1.709   2.120  19.375  0.00  0.00    +0.000 A 
ATOM     16  C   UNL     1       1.991   2.264  18.016  0.00  0.00    +0.000 A 
ATOM     17  C   UNL     1       3.081   3.031  17.608  0.00  0.00    +0.000 A 
ENDBRANCH   9  12
BRANCH   1  18
ATOM     18  S   UNL     1       2.314   6.470  18.161  0.00  0.00    +0.000 S 
BRANCH  18  19
ATOM     19  C   UNL     1       2.422   6.924  19.912  0.00  0.00    +0.000 C 
BRANCH  19  25
ATOM     20  C   UNL     1      -0.314   9.770  23.083  0.00  0.00    +0.000 C 
ATOM     21  C   UNL     1       0.263   9.537  21.717  0.00  0.00    +0.000 A 
ATOM     22  C   UNL     1       0.080  10.476  20.698  0.00  0.00    +0.000 A 
ATOM     23  C   UNL     1       0.625  10.259  19.434  0.00  0.00    +0.000 A 
ATOM     24  C   UNL     1       1.360   9.101  19.175  0.00  0.00    +0.000 A 
ATOM     25  C   UNL     1       1.556   8.141  20.178  0.00  0.00    +0.000 A 
ATOM     26  C   UNL     1       1.004   8.373  21.449  0.00  0.00    +0.000 A 
ENDBRANCH  19  25
ENDBRANCH  18  19
ENDBRANCH   1  18
TORSDOF 4
ENDMDL
MODEL 5
REMARK VINA RESULT:      -7.6      0.801      1.373
REMARK  Name = 
REMARK  5 active torsions:
REMARK  status: ('A' for Active; 'I' for Inactive)
REMARK    1  A    between atoms: C_1  and  C_2
REMARK    2  A    between atoms: C_6  and  C_7
REMARK    3  A    between atoms: C_7  and  S_8
REMARK    4  A    between atoms: S_8  and  C_9
REMARK    5  A    between atoms: C_17  and  C_18
REMARK                            x       y       z     vdW  Elec       q    Type
REMARK                         _______ _______ _______ _____ _____    ______ ____
ROOT
ATOM      1  C   UNL     1       3.851   3.611  16.941  0.00  0.00    +0.000 A 
ATOM      2  N   UNL     1       2.859   2.835  16.555  0.00  0.00    +0.000 NA
ATOM      3  N   UNL     1       1.794   3.049  17.402  0.00  0.00    +0.000 NA
ATOM      4  C   UNL     1       2.161   3.960  18.272  0.00  0.00    +0.000 A 
ATOM      5  N   UNL     1       1.442   4.480  19.321  0.00  0.00    +0.000 N 
ATOM      6  C   UNL     1       1.971   5.451  20.131  0.00  0.00    +0.000 A 
ATOM      7  O   UNL     1       1.354   5.929  21.077  0.00  0.00    +0.000 OA
ATOM      8  C   UNL     1       3.348   5.929  19.817  0.00  0.00    +0.000 A 
ATOM      9  C   UNL     1       4.042   5.395  18.792  0.00  0.00    +0.000 A 
ATOM     10  N   UNL     1       3.452   4.388  18.016  0.00  0.00    +0.000 N 
ATOM     11  H   UNL     1       0.509   4.138  19.505  0.00  0.00    +0.000 HD
ENDROOT
BRANCH   9  12
ATOM     12  C   UNL     1       5.380   5.942  18.543  0.00  0.00    +0.000 A 
ATOM     13  C   UNL     1       5.566   6.941  17.579  0.00  0.00    +0.000 A 
ATOM     14  C   UNL     1       6.841   7.453  17.339  0.00  0.00    +0.000 A 
ATOM     15  C   UNL     1       7.933   6.972  18.061  0.00  0.00    +0.000 A 
ATOM     16  C   UNL     1       7.754   5.981  19.026  0.00  0.00    +0.000 A 
ATOM     17  C   UNL     1       6.482   5.462  19.264  0.00  0.00    +0.000 A 
ENDBRANCH   9  12
BRANCH   1  18
ATOM     18  S   UNL     1       5.462   3.585  16.322  0.00  0.00    +0.000 S 
BRANCH  18  19
ATOM     19  C   UNL     1       5.433   4.784  14.963  0.00  0.00    +0.000 C 
BRANCH  19  25
ATOM     20  C   UNL     1       3.345   3.023  10.699  0.00  0.00    +0.000 C 
ATOM     21  C   UNL     1       4.556   3.235  11.560  0.00  0.00    +0.000 A 
ATOM     22  C   UNL     1       5.822   2.838  11.117  0.00  0.00    +0.000 A 
ATOM     23  C   UNL     1       6.944   3.045  11.916  0.00  0.00    +0.000 A 
ATOM     24  C   UNL     1       6.814   3.650  13.168  0.00  0.00    +0.000 A 
ATOM     25  C   UNL     1       5.556   4.055  13.638  0.00  0.00    +0.000 A 
ATOM     26  C   UNL     1       4.432   3.843  12.821  0.00  0.00    +0.000 A 
ENDBRANCH  19  25
ENDBRANCH  18  19
ENDBRANCH   1  18
TORSDOF 4
ENDMDL
MODEL 6
REMARK VINA RESULT:      -7.6      3.859      8.364
REMARK  Name = 
REMARK  5 active torsions:
REMARK  status: ('A' for Active; 'I' for Inactive)
REMARK    1  A    between atoms: C_1  and  C_2
REMARK    2  A    between atoms: C_6  and  C_7
REMARK    3  A    between atoms: C_7  and  S_8
REMARK    4  A    between atoms: S_8  and  C_9
REMARK    5  A    between atoms: C_17  and  C_18
REMARK                            x       y       z     vdW  Elec       q    Type
REMARK                         _______ _______ _______ _____ _____    ______ ____
ROOT
ATOM      1  C   UNL     1       3.198   7.163  17.970  0.00  0.00    +0.000 A 
ATOM      2  N   UNL     1       3.610   8.158  17.210  0.00  0.00    +0.000 NA
ATOM      3  N   UNL     1       4.510   7.653  16.296  0.00  0.00    +0.000 NA
ATOM      4  C   UNL     1       4.611   6.363  16.516  0.00  0.00    +0.000 A 
ATOM      5  N   UNL     1       5.403   5.446  15.870  0.00  0.00    +0.000 N 
ATOM      6  C   UNL     1       5.374   4.119  16.211  0.00  0.00    +0.000 A 
ATOM      7  O   UNL     1       6.073   3.279  15.655  0.00  0.00    +0.000 OA
ATOM      8  C   UNL     1       4.438   3.712  17.299  0.00  0.00    +0.000 A 
ATOM      9  C   UNL     1       3.681   4.632  17.930  0.00  0.00    +0.000 A 
ATOM     10  N   UNL     1       3.776   5.977  17.548  0.00  0.00    +0.000 N 
ATOM     11  H   UNL     1       6.023   5.752  15.133  0.00  0.00    +0.000 HD
ENDROOT
BRANCH   9  12
ATOM     12  C   UNL     1       2.773   4.139  18.972  0.00  0.00    +0.000 A 
ATOM     13  C   UNL     1       1.504   3.655  18.631  0.00  0.00    +0.000 A 
ATOM     14  C   UNL     1       0.642   3.194  19.625  0.00  0.00    +0.000 A 
ATOM     15  C   UNL     1       1.042   3.213  20.961  0.00  0.00    +0.000 A 
ATOM     16  C   UNL     1       2.306   3.689  21.307  0.00  0.00    +0.000 A 
ATOM     17  C   UNL     1       3.170   4.157  20.317  0.00  0.00    +0.000 A 
ENDBRANCH   9  12
BRANCH   1  18
ATOM     18  S   UNL     1       2.208   7.303  19.376  0.00  0.00    +0.000 S 
BRANCH  18  19
ATOM     19  C   UNL     1       1.389   8.908  19.183  0.00  0.00    +0.000 C 
BRANCH  19  25
ATOM     20  C   UNL     1      -0.601  12.454  22.201  0.00  0.00    +0.000 C 
ATOM     21  C   UNL     1      -0.253  11.018  21.941  0.00  0.00    +0.000 A 
ATOM     22  C   UNL     1      -0.595  10.024  22.863  0.00  0.00    +0.000 A 
ATOM     23  C   UNL     1      -0.279   8.690  22.612  0.00  0.00    +0.000 A 
ATOM     24  C   UNL     1       0.384   8.335  21.436  0.00  0.00    +0.000 A 
ATOM     25  C   UNL     1       0.741   9.312  20.495  0.00  0.00    +0.000 A 
ATOM     26  C   UNL     1       0.413  10.653  20.758  0.00  0.00    +0.000 A 
ENDBRANCH  19  25
ENDBRANCH  18  19
ENDBRANCH   1  18
TORSDOF 4
ENDMDL
MODEL 7
REMARK VINA RESULT:      -7.6      3.879      8.313
REMARK  Name = 
REMARK  5 active torsions:
REMARK  status: ('A' for Active; 'I' for Inactive)
REMARK    1  A    between atoms: C_1  and  C_2
REMARK    2  A    between atoms: C_6  and  C_7
REMARK    3  A    between atoms: C_7  and  S_8
REMARK    4  A    between atoms: S_8  and  C_9
REMARK    5  A    between atoms: C_17  and  C_18
REMARK                            x       y       z     vdW  Elec       q    Type
REMARK                         _______ _______ _______ _____ _____    ______ ____
ROOT
ATOM      1  C   UNL     1       3.181   7.196  17.977  0.00  0.00    +0.000 A 
ATOM      2  N   UNL     1       3.588   8.189  17.212  0.00  0.00    +0.000 NA
ATOM      3  N   UNL     1       4.495   7.685  16.304  0.00  0.00    +0.000 NA
ATOM      4  C   UNL     1       4.605   6.398  16.532  0.00  0.00    +0.000 A 
ATOM      5  N   UNL     1       5.404   5.482  15.893  0.00  0.00    +0.000 N 
ATOM      6  C   UNL     1       5.384   4.157  16.243  0.00  0.00    +0.000 A 
ATOM      7  O   UNL     1       6.091   3.319  15.693  0.00  0.00    +0.000 OA
ATOM      8  C   UNL     1       4.449   3.750  17.330  0.00  0.00    +0.000 A 
ATOM      9  C   UNL     1       3.683   4.668  17.954  0.00  0.00    +0.000 A 
ATOM     10  N   UNL     1       3.769   6.011  17.564  0.00  0.00    +0.000 N 
ATOM     11  H   UNL     1       6.024   5.788  15.156  0.00  0.00    +0.000 HD
ENDROOT
BRANCH   9  12
ATOM     12  C   UNL     1       2.776   4.175  18.997  0.00  0.00    +0.000 A 
ATOM     13  C   UNL     1       3.166   4.204  20.342  0.00  0.00    +0.000 A 
ATOM     14  C   UNL     1       2.304   3.728  21.330  0.00  0.00    +0.000 A 
ATOM     15  C   UNL     1       1.052   3.224  20.980  0.00  0.00    +0.000 A 
ATOM     16  C   UNL     1       0.656   3.196  19.643  0.00  0.00    +0.000 A 
ATOM     17  C   UNL     1       1.517   3.665  18.652  0.00  0.00    +0.000 A 
ENDBRANCH   9  12
BRANCH   1  18
ATOM     18  S   UNL     1       2.186   7.337  19.380  0.00  0.00    +0.000 S 
BRANCH  18  19
ATOM     19  C   UNL     1       1.293   8.895  19.134  0.00  0.00    +0.000 C 
BRANCH  19  25
ATOM     20  C   UNL     1      -1.512  12.159  21.802  0.00  0.00    +0.000 C 
ATOM     21  C   UNL     1      -0.648  10.933  21.747  0.00  0.00    +0.000 A 
ATOM     22  C   UNL     1      -0.414  10.175  22.899  0.00  0.00    +0.000 A 
ATOM     23  C   UNL     1       0.381   9.032  22.840  0.00  0.00    +0.000 A 
ATOM     24  C   UNL     1       0.952   8.634  21.630  0.00  0.00    +0.000 A 
ATOM     25  C   UNL     1       0.736   9.377  20.461  0.00  0.00    +0.000 A 
ATOM     26  C   UNL     1      -0.071  10.526  20.532  0.00  0.00    +0.000 A 
ENDBRANCH  19  25
ENDBRANCH  18  19
ENDBRANCH   1  18
TORSDOF 4
ENDMDL
MODEL 8
REMARK VINA RESULT:      -7.5      3.198      6.579
REMARK  Name = 
REMARK  5 active torsions:
REMARK  status: ('A' for Active; 'I' for Inactive)
REMARK    1  A    between atoms: C_1  and  C_2
REMARK    2  A    between atoms: C_6  and  C_7
REMARK    3  A    between atoms: C_7  and  S_8
REMARK    4  A    between atoms: S_8  and  C_9
REMARK    5  A    between atoms: C_17  and  C_18
REMARK                            x       y       z     vdW  Elec       q    Type
REMARK                         _______ _______ _______ _____ _____    ______ ____
ROOT
ATOM      1  C   UNL     1       1.982   4.867  19.441  0.00  0.00    +0.000 A 
ATOM      2  N   UNL     1       1.031   4.699  20.338  0.00  0.00    +0.000 NA
ATOM      3  N   UNL     1       1.423   3.690  21.191  0.00  0.00    +0.000 NA
ATOM      4  C   UNL     1       2.606   3.280  20.797  0.00  0.00    +0.000 A 
ATOM      5  N   UNL     1       3.383   2.279  21.326  0.00  0.00    +0.000 N 
ATOM      6  C   UNL     1       4.617   1.988  20.805  0.00  0.00    +0.000 A 
ATOM      7  O   UNL     1       5.330   1.097  21.254  0.00  0.00    +0.000 OA
ATOM      8  C   UNL     1       5.085   2.813  19.654  0.00  0.00    +0.000 A 
ATOM      9  C   UNL     1       4.300   3.781  19.140  0.00  0.00    +0.000 A 
ATOM     10  N   UNL     1       3.038   4.011  19.706  0.00  0.00    +0.000 N 
ATOM     11  H   UNL     1       3.040   1.741  22.110  0.00  0.00    +0.000 HD
ENDROOT
BRANCH   9  12
ATOM     12  C   UNL     1       4.850   4.556  18.023  0.00  0.00    +0.000 A 
ATOM     13  C   UNL     1       4.607   4.158  16.702  0.00  0.00    +0.000 A 
ATOM     14  C   UNL     1       5.138   4.894  15.642  0.00  0.00    +0.000 A 
ATOM     15  C   UNL     1       5.909   6.027  15.896  0.00  0.00    +0.000 A 
ATOM     16  C   UNL     1       6.150   6.431  17.209  0.00  0.00    +0.000 A 
ATOM     17  C   UNL     1       5.627   5.695  18.272  0.00  0.00    +0.000 A 
ENDBRANCH   9  12
BRANCH   1  18
ATOM     18  S   UNL     1       1.895   5.883  18.048  0.00  0.00    +0.000 S 
BRANCH  18  19
ATOM     19  C   UNL     1       2.729   7.408  18.559  0.00  0.00    +0.000 C 
BRANCH  19  25
ATOM     20  C   UNL     1      -0.743  11.092  18.437  0.00  0.00    +0.000 C 
ATOM     21  C   UNL     1       0.039  10.070  19.210  0.00  0.00    +0.000 A 
ATOM     22  C   UNL     1      -0.190   9.884  20.577  0.00  0.00    +0.000 A 
ATOM     23  C   UNL     1       0.532   8.928  21.288  0.00  0.00    +0.000 A 
ATOM     24  C   UNL     1       1.491   8.147  20.641  0.00  0.00    +0.000 A 
ATOM     25  C   UNL     1       1.743   8.315  19.272  0.00  0.00    +0.000 A 
ATOM     26  C   UNL     1       1.006   9.280  18.565  0.00  0.00    +0.000 A 
ENDBRANCH  19  25
ENDBRANCH  18  19
ENDBRANCH   1  18
TORSDOF 4
ENDMDL
MODEL 9
REMARK VINA RESULT:      -7.5      3.393      7.445
REMARK  Name = 
REMARK  5 active torsions:
REMARK  status: ('A' for Active; 'I' for Inactive)
REMARK    1  A    between atoms: C_1  and  C_2
REMARK    2  A    between atoms: C_6  and  C_7
REMARK    3  A    between atoms: C_7  and  S_8
REMARK    4  A    between atoms: S_8  and  C_9
REMARK    5  A    between atoms: C_17  and  C_18
REMARK                            x       y       z     vdW  Elec       q    Type
REMARK                         _______ _______ _______ _____ _____    ______ ____
ROOT
ATOM      1  C   UNL     1       4.974   6.293  17.930  0.00  0.00    +0.000 A 
ATOM      2  N   UNL     1       5.577   7.425  17.628  0.00  0.00    +0.000 NA
ATOM      3  N   UNL     1       6.237   7.252  16.431  0.00  0.00    +0.000 NA
ATOM      4  C   UNL     1       6.008   6.023  16.030  0.00  0.00    +0.000 A 
ATOM      5  N   UNL     1       6.474   5.391  14.904  0.00  0.00    +0.000 N 
ATOM      6  C   UNL     1       6.119   4.098  14.618  0.00  0.00    +0.000 A 
ATOM      7  O   UNL     1       6.525   3.507  13.623  0.00  0.00    +0.000 OA
ATOM      8  C   UNL     1       5.195   3.416  15.569  0.00  0.00    +0.000 A 
ATOM      9  C   UNL     1       4.760   4.050  16.677  0.00  0.00    +0.000 A 
ATOM     10  N   UNL     1       5.181   5.365  16.922  0.00  0.00    +0.000 N 
ATOM     11  H   UNL     1       7.095   5.882  14.276  0.00  0.00    +0.000 HD
ENDROOT
BRANCH   9  12
ATOM     12  C   UNL     1       3.837   3.311  17.544  0.00  0.00    +0.000 A 
ATOM     13  C   UNL     1       2.474   3.245  17.229  0.00  0.00    +0.000 A 
ATOM     14  C   UNL     1       1.598   2.547  18.060  0.00  0.00    +0.000 A 
ATOM     15  C   UNL     1       2.078   1.911  19.205  0.00  0.00    +0.000 A 
ATOM     16  C   UNL     1       3.435   1.970  19.521  0.00  0.00    +0.000 A 
ATOM     17  C   UNL     1       4.314   2.672  18.696  0.00  0.00    +0.000 A 
ENDBRANCH   9  12
BRANCH   1  18
ATOM     18  S   UNL     1       4.167   5.936  19.413  0.00  0.00    +0.000 S 
BRANCH  18  19
ATOM     19  C   UNL     1       2.406   6.055  18.999  0.00  0.00    +0.000 C 
BRANCH  19  25
ATOM     20  C   UNL     1       0.699   9.300  22.491  0.00  0.00    +0.000 C 
ATOM     21  C   UNL     1       1.093   9.009  21.072  0.00  0.00    +0.000 A 
ATOM     22  C   UNL     1       1.063  10.017  20.104  0.00  0.00    +0.000 A 
ATOM     23  C   UNL     1       1.438   9.743  18.790  0.00  0.00    +0.000 A 
ATOM     24  C   UNL     1       1.848   8.458  18.430  0.00  0.00    +0.000 A 
ATOM     25  C   UNL     1       1.885   7.428  19.380  0.00  0.00    +0.000 A 
ATOM     26  C   UNL     1       1.506   7.717  20.702  0.00  0.00    +0.000 A 
ENDBRANCH  19  25
ENDBRANCH  18  19
ENDBRANCH   1  18
TORSDOF 4
ENDMDL
