MODEL 1
REMARK VINA RESULT:      -9.9      0.000      0.000
REMARK  Name = 
REMARK  5 active torsions:
REMARK  status: ('A' for Active; 'I' for Inactive)
REMARK    1  A    between atoms: C_1  and  O_2
REMARK    2  A    between atoms: O_2  and  C_3
REMARK    3  A    between atoms: C_8  and  N_9
REMARK    4  A    between atoms: C_18  and  C_19
REMARK    5  A    between atoms: C_22  and  C_23
REMARK                            x       y       z     vdW  Elec       q    Type
REMARK                         _______ _______ _______ _____ _____    ______ ____
ROOT
ATOM      1  N   UNL     1       3.268   4.774  17.632  0.00  0.00    +0.000 N 
ATOM      2  N   UNL     1       4.077   4.270  16.650  0.00  0.00    +0.000 NA
ATOM      3  C   UNL     1       4.884   5.284  16.329  0.00  0.00    +0.000 A 
ATOM      4  N   UNL     1       5.948   5.091  15.421  0.00  0.00    +0.000 N 
ATOM      5  C   UNL     1       6.291   3.959  14.732  0.00  0.00    +0.000 A 
ATOM      6  N   UNL     1       7.373   4.183  14.018  0.00  0.00    +0.000 NA
ATOM      7  N   UNL     1       7.712   5.491  14.258  0.00  0.00    +0.000 NA
ATOM      8  N   UNL     1       6.855   6.058  15.098  0.00  0.00    +0.000 NA
ATOM      9  C   UNL     1       4.551   6.476  16.981  0.00  0.00    +0.000 A 
ATOM     10  C   UNL     1       3.455   6.163  17.773  0.00  0.00    +0.000 A 
ENDROOT
BRANCH   1  16
ATOM     11  C   UNL     1       3.027   3.154  19.511  0.00  0.00    +0.000 A 
ATOM     12  C   UNL     1       2.177   2.315  20.255  0.00  0.00    +0.000 A 
ATOM     13  C   UNL     1       0.827   2.179  19.931  0.00  0.00    +0.000 A 
ATOM     14  C   UNL     1       0.288   2.907  18.882  0.00  0.00    +0.000 A 
ATOM     15  C   UNL     1       1.101   3.784  18.167  0.00  0.00    +0.000 A 
ATOM     16  C   UNL     1       2.478   3.899  18.447  0.00  0.00    +0.000 A 
BRANCH  11  18
ATOM     17  C   UNL     1       4.979   2.111  20.391  0.00  0.00    +0.000 C 
ATOM     18  O   UNL     1       4.370   3.239  19.763  0.00  0.00    +0.000 OA
ENDBRANCH  11  18
ENDBRANCH   1  16
BRANCH  10  19
ATOM     19  C   UNL     1       2.648   7.089  18.580  0.00  0.00    +0.000 A 
ATOM     20  C   UNL     1       2.329   6.825  19.915  0.00  0.00    +0.000 A 
ATOM     21  C   UNL     1       1.570   7.735  20.665  0.00  0.00    +0.000 A 
ATOM     22  C   UNL     1       1.076   8.928  20.106  0.00  0.00    +0.000 A 
ATOM     23  C   UNL     1       1.423   9.185  18.770  0.00  0.00    +0.000 A 
ATOM     24  C   UNL     1       2.172   8.274  18.013  0.00  0.00    +0.000 A 
BRANCH  22  25
ATOM     25  C   UNL     1       0.231   9.856  20.906  0.00  0.00    +0.000 A 
ATOM     26  C   UNL     1       0.077   9.620  22.293  0.00  0.00    +0.000 A 
ATOM     27  C   UNL     1      -0.740  10.424  23.097  0.00  0.00    +0.000 A 
ATOM     28  C   UNL     1      -1.400  11.509  22.539  0.00  0.00    +0.000 A 
ATOM     29 CL   UNL     1      -2.404  12.501  23.521  0.00  0.00    +0.000 Cl
ATOM     30  C   UNL     1      -1.265  11.787  21.185  0.00  0.00    +0.000 A 
ATOM     31  C   UNL     1      -0.477  10.960  20.372  0.00  0.00    +0.000 A 
ATOM     32 CL   UNL     1      -0.513  11.344  18.680  0.00  0.00    +0.000 Cl
ENDBRANCH  22  25
ENDBRANCH  10  19
TORSDOF 4
ENDMDL
MODEL 2
REMARK VINA RESULT:      -9.5      1.147      1.445
REMARK  Name = 
REMARK  5 active torsions:
REMARK  status: ('A' for Active; 'I' for Inactive)
REMARK    1  A    between atoms: C_1  and  O_2
REMARK    2  A    between atoms: O_2  and  C_3
REMARK    3  A    between atoms: C_8  and  N_9
REMARK    4  A    between atoms: C_18  and  C_19
REMARK    5  A    between atoms: C_22  and  C_23
REMARK                            x       y       z     vdW  Elec       q    Type
REMARK                         _______ _______ _______ _____ _____    ______ ____
ROOT
ATOM      1  N   UNL     1       3.213   4.991  18.179  0.00  0.00    +0.000 N 
ATOM      2  N   UNL     1       3.994   4.372  17.242  0.00  0.00    +0.000 NA
ATOM      3  C   UNL     1       4.689   5.363  16.679  0.00  0.00    +0.000 A 
ATOM      4  N   UNL     1       5.703   5.079  15.738  0.00  0.00    +0.000 N 
ATOM      5  C   UNL     1       6.094   3.866  15.239  0.00  0.00    +0.000 A 
ATOM      6  N   UNL     1       7.103   4.029  14.411  0.00  0.00    +0.000 NA
ATOM      7  N   UNL     1       7.345   5.380  14.382  0.00  0.00    +0.000 NA
ATOM      8  N   UNL     1       6.501   6.030  15.172  0.00  0.00    +0.000 NA
ATOM      9  C   UNL     1       4.301   6.628  17.129  0.00  0.00    +0.000 A 
ATOM     10  C   UNL     1       3.290   6.392  18.051  0.00  0.00    +0.000 A 
ENDROOT
BRANCH   1  16
ATOM     11  C   UNL     1       3.259   3.401  20.097  0.00  0.00    +0.000 A 
ATOM     12  C   UNL     1       2.531   2.686  21.066  0.00  0.00    +0.000 A 
ATOM     13  C   UNL     1       1.138   2.749  21.120  0.00  0.00    +0.000 A 
ATOM     14  C   UNL     1       0.446   3.560  20.234  0.00  0.00    +0.000 A 
ATOM     15  C   UNL     1       1.152   4.319  19.302  0.00  0.00    +0.000 A 
ATOM     16  C   UNL     1       2.555   4.230  19.200  0.00  0.00    +0.000 A 
BRANCH  11  18
ATOM     17  C   UNL     1       5.182   2.004  20.236  0.00  0.00    +0.000 C 
ATOM     18  O   UNL     1       4.618   3.289  19.978  0.00  0.00    +0.000 OA
ENDBRANCH  11  18
ENDBRANCH   1  16
BRANCH  10  19
ATOM     19  C   UNL     1       2.463   7.393  18.739  0.00  0.00    +0.000 A 
ATOM     20  C   UNL     1       2.176   7.306  20.105  0.00  0.00    +0.000 A 
ATOM     21  C   UNL     1       1.397   8.284  20.738  0.00  0.00    +0.000 A 
ATOM     22  C   UNL     1       0.850   9.371  20.031  0.00  0.00    +0.000 A 
ATOM     23  C   UNL     1       1.166   9.453  18.666  0.00  0.00    +0.000 A 
ATOM     24  C   UNL     1       1.934   8.471  18.025  0.00  0.00    +0.000 A 
BRANCH  22  25
ATOM     25  C   UNL     1      -0.015  10.371  20.714  0.00  0.00    +0.000 A 
ATOM     26  C   UNL     1      -0.634  11.384  19.943  0.00  0.00    +0.000 A 
ATOM     27  C   UNL     1      -1.421  12.384  20.526  0.00  0.00    +0.000 A 
ATOM     28  C   UNL     1      -1.639  12.378  21.896  0.00  0.00    +0.000 A 
ATOM     29 CL   UNL     1      -2.605  13.603  22.618  0.00  0.00    +0.000 Cl
ATOM     30  C   UNL     1      -1.062  11.394  22.689  0.00  0.00    +0.000 A 
ATOM     31  C   UNL     1      -0.242  10.415  22.111  0.00  0.00    +0.000 A 
ATOM     32 CL   UNL     1       0.521   9.337  23.237  0.00  0.00    +0.000 Cl
ENDBRANCH  22  25
ENDBRANCH  10  19
TORSDOF 4
ENDMDL
MODEL 3
REMARK VINA RESULT:      -9.3      0.703      1.100
REMARK  Name = 
REMARK  5 active torsions:
REMARK  status: ('A' for Active; 'I' for Inactive)
REMARK    1  A    between atoms: C_1  and  O_2
REMARK    2  A    between atoms: O_2  and  C_3
REMARK    3  A    between atoms: C_8  and  N_9
REMARK    4  A    between atoms: C_18  and  C_19
REMARK    5  A    between atoms: C_22  and  C_23
REMARK                            x       y       z     vdW  Elec       q    Type
REMARK                         _______ _______ _______ _____ _____    ______ ____
ROOT
ATOM      1  N   UNL     1       3.513   4.749  17.460  0.00  0.00    +0.000 N 
ATOM      2  N   UNL     1       4.259   4.209  16.449  0.00  0.00    +0.000 NA
ATOM      3  C   UNL     1       4.988   5.229  15.989  0.00  0.00    +0.000 A 
ATOM      4  N   UNL     1       5.981   5.014  15.008  0.00  0.00    +0.000 N 
ATOM      5  C   UNL     1       6.318   3.850  14.372  0.00  0.00    +0.000 A 
ATOM      6  N   UNL     1       7.325   4.065  13.554  0.00  0.00    +0.000 NA
ATOM      7  N   UNL     1       7.620   5.400  13.672  0.00  0.00    +0.000 NA
ATOM      8  N   UNL     1       6.810   5.991  14.541  0.00  0.00    +0.000 NA
ATOM      9  C   UNL     1       4.655   6.450  16.583  0.00  0.00    +0.000 A 
ATOM     10  C   UNL     1       3.644   6.152  17.487  0.00  0.00    +0.000 A 
ENDROOT
BRANCH   1  16
ATOM     11  C   UNL     1       3.518   3.194  19.407  0.00  0.00    +0.000 A 
ATOM     12  C   UNL     1       2.773   2.384  20.283  0.00  0.00    +0.000 A 
ATOM     13  C   UNL     1       1.392   2.240  20.141  0.00  0.00    +0.000 A 
ATOM     14  C   UNL     1       0.721   2.934  19.146  0.00  0.00    +0.000 A 
ATOM     15  C   UNL     1       1.434   3.784  18.302  0.00  0.00    +0.000 A 
ATOM     16  C   UNL     1       2.835   3.904  18.399  0.00  0.00    +0.000 A 
BRANCH  11  18
ATOM     17  C   UNL     1       5.427   4.568  19.781  0.00  0.00    +0.000 C 
ATOM     18  O   UNL     1       4.882   3.284  19.481  0.00  0.00    +0.000 OA
ENDBRANCH  11  18
ENDBRANCH   1  16
BRANCH  10  19
ATOM     19  C   UNL     1       2.865   7.100  18.294  0.00  0.00    +0.000 A 
ATOM     20  C   UNL     1       2.371   8.296  17.762  0.00  0.00    +0.000 A 
ATOM     21  C   UNL     1       1.617   9.175  18.552  0.00  0.00    +0.000 A 
ATOM     22  C   UNL     1       1.349   8.911  19.909  0.00  0.00    +0.000 A 
ATOM     23  C   UNL     1       1.836   7.698  20.419  0.00  0.00    +0.000 A 
ATOM     24  C   UNL     1       2.600   6.821  19.637  0.00  0.00    +0.000 A 
BRANCH  22  25
ATOM     25  C   UNL     1       0.588   9.882  20.741  0.00  0.00    +0.000 A 
ATOM     26  C   UNL     1       0.022   9.445  21.962  0.00  0.00    +0.000 A 
ATOM     27  C   UNL     1      -0.745  10.291  22.770  0.00  0.00    +0.000 A 
ATOM     28  C   UNL     1      -0.940  11.612  22.395  0.00  0.00    +0.000 A 
ATOM     29 CL   UNL     1      -1.880  12.657  23.384  0.00  0.00    +0.000 Cl
ATOM     30  C   UNL     1      -0.390  12.088  21.211  0.00  0.00    +0.000 A 
ATOM     31  C   UNL     1       0.347  11.231  20.382  0.00  0.00    +0.000 A 
ATOM     32 CL   UNL     1       0.852  11.923  18.873  0.00  0.00    +0.000 Cl
ENDBRANCH  22  25
ENDBRANCH  10  19
TORSDOF 4
ENDMDL
MODEL 4
REMARK VINA RESULT:      -9.2      1.227      1.655
REMARK  Name = 
REMARK  5 active torsions:
REMARK  status: ('A' for Active; 'I' for Inactive)
REMARK    1  A    between atoms: C_1  and  O_2
REMARK    2  A    between atoms: O_2  and  C_3
REMARK    3  A    between atoms: C_8  and  N_9
REMARK    4  A    between atoms: C_18  and  C_19
REMARK    5  A    between atoms: C_22  and  C_23
REMARK                            x       y       z     vdW  Elec       q    Type
REMARK                         _______ _______ _______ _____ _____    ______ ____
ROOT
ATOM      1  N   UNL     1       3.482   4.845  17.614  0.00  0.00    +0.000 N 
ATOM      2  N   UNL     1       4.172   4.228  16.607  0.00  0.00    +0.000 NA
ATOM      3  C   UNL     1       4.850   5.214  16.014  0.00  0.00    +0.000 A 
ATOM      4  N   UNL     1       5.782   4.927  14.992  0.00  0.00    +0.000 N 
ATOM      5  C   UNL     1       6.100   3.716  14.438  0.00  0.00    +0.000 A 
ATOM      6  N   UNL     1       7.047   3.873  13.540  0.00  0.00    +0.000 NA
ATOM      7  N   UNL     1       7.324   5.217  13.522  0.00  0.00    +0.000 NA
ATOM      8  N   UNL     1       6.560   5.871  14.388  0.00  0.00    +0.000 NA
ATOM      9  C   UNL     1       4.531   6.478  16.520  0.00  0.00    +0.000 A 
ATOM     10  C   UNL     1       3.588   6.246  17.511  0.00  0.00    +0.000 A 
ENDROOT
BRANCH   1  16
ATOM     11  C   UNL     1       3.647   3.411  19.646  0.00  0.00    +0.000 A 
ATOM     12  C   UNL     1       2.975   2.675  20.639  0.00  0.00    +0.000 A 
ATOM     13  C   UNL     1       1.585   2.559  20.640  0.00  0.00    +0.000 A 
ATOM     14  C   UNL     1       0.834   3.209  19.673  0.00  0.00    +0.000 A 
ATOM     15  C   UNL     1       1.477   3.987  18.712  0.00  0.00    +0.000 A 
ATOM     16  C   UNL     1       2.883   4.077  18.666  0.00  0.00    +0.000 A 
BRANCH  11  18
ATOM     17  C   UNL     1       5.609   4.757  19.740  0.00  0.00    +0.000 C 
ATOM     18  O   UNL     1       5.013   3.470  19.582  0.00  0.00    +0.000 OA
ENDBRANCH  11  18
ENDBRANCH   1  16
BRANCH  10  19
ATOM     19  C   UNL     1       2.843   7.251  18.282  0.00  0.00    +0.000 A 
ATOM     20  C   UNL     1       2.368   8.431  17.700  0.00  0.00    +0.000 A 
ATOM     21  C   UNL     1       1.648   9.365  18.456  0.00  0.00    +0.000 A 
ATOM     22  C   UNL     1       1.395   9.174  19.828  0.00  0.00    +0.000 A 
ATOM     23  C   UNL     1       1.862   7.975  20.390  0.00  0.00    +0.000 A 
ATOM     24  C   UNL     1       2.594   7.043  19.641  0.00  0.00    +0.000 A 
BRANCH  22  25
ATOM     25  C   UNL     1       0.670  10.202  20.623  0.00  0.00    +0.000 A 
ATOM     26  C   UNL     1       0.952  11.570  20.396  0.00  0.00    +0.000 A 
ATOM     27  C   UNL     1       0.342  12.587  21.140  0.00  0.00    +0.000 A 
ATOM     28  C   UNL     1      -0.595  12.263  22.110  0.00  0.00    +0.000 A 
ATOM     29 CL   UNL     1      -1.348  13.507  23.026  0.00  0.00    +0.000 Cl
ATOM     30  C   UNL     1      -0.913  10.933  22.356  0.00  0.00    +0.000 A 
ATOM     31  C   UNL     1      -0.275   9.912  21.638  0.00  0.00    +0.000 A 
ATOM     32 CL   UNL     1      -0.667   8.300  22.146  0.00  0.00    +0.000 Cl
ENDBRANCH  22  25
ENDBRANCH  10  19
TORSDOF 4
ENDMDL
MODEL 5
REMARK VINA RESULT:      -9.2      1.534      2.038
REMARK  Name = 
REMARK  5 active torsions:
REMARK  status: ('A' for Active; 'I' for Inactive)
REMARK    1  A    between atoms: C_1  and  O_2
REMARK    2  A    between atoms: O_2  and  C_3
REMARK    3  A    between atoms: C_8  and  N_9
REMARK    4  A    between atoms: C_18  and  C_19
REMARK    5  A    between atoms: C_22  and  C_23
REMARK                            x       y       z     vdW  Elec       q    Type
REMARK                         _______ _______ _______ _____ _____    ______ ____
ROOT
ATOM      1  N   UNL     1       3.277   5.114  18.544  0.00  0.00    +0.000 N 
ATOM      2  N   UNL     1       4.144   4.536  17.659  0.00  0.00    +0.000 NA
ATOM      3  C   UNL     1       4.841   5.558  17.158  0.00  0.00    +0.000 A 
ATOM      4  N   UNL     1       5.929   5.324  16.288  0.00  0.00    +0.000 N 
ATOM      5  C   UNL     1       6.398   4.132  15.804  0.00  0.00    +0.000 A 
ATOM      6  N   UNL     1       7.456   4.342  15.053  0.00  0.00    +0.000 NA
ATOM      7  N   UNL     1       7.651   5.701  15.057  0.00  0.00    +0.000 NA
ATOM      8  N   UNL     1       6.730   6.310  15.792  0.00  0.00    +0.000 NA
ATOM      9  C   UNL     1       4.376   6.802  17.594  0.00  0.00    +0.000 A 
ATOM     10  C   UNL     1       3.312   6.518  18.438  0.00  0.00    +0.000 A 
ENDROOT
BRANCH   1  16
ATOM     11  C   UNL     1       1.626   3.343  19.136  0.00  0.00    +0.000 A 
ATOM     12  C   UNL     1       0.982   2.608  20.149  0.00  0.00    +0.000 A 
ATOM     13  C   UNL     1       1.235   2.858  21.498  0.00  0.00    +0.000 A 
ATOM     14  C   UNL     1       2.165   3.818  21.863  0.00  0.00    +0.000 A 
ATOM     15  C   UNL     1       2.853   4.519  20.875  0.00  0.00    +0.000 A 
ATOM     16  C   UNL     1       2.576   4.315  19.507  0.00  0.00    +0.000 A 
BRANCH  11  18
ATOM     17  C   UNL     1       2.095   2.190  17.106  0.00  0.00    +0.000 C 
ATOM     18  O   UNL     1       1.332   3.168  17.811  0.00  0.00    +0.000 OA
ENDBRANCH  11  18
ENDBRANCH   1  16
BRANCH  10  19
ATOM     19  C   UNL     1       2.403   7.479  19.077  0.00  0.00    +0.000 A 
ATOM     20  C   UNL     1       1.976   7.330  20.400  0.00  0.00    +0.000 A 
ATOM     21  C   UNL     1       1.120   8.271  20.989  0.00  0.00    +0.000 A 
ATOM     22  C   UNL     1       0.634   9.383  20.274  0.00  0.00    +0.000 A 
ATOM     23  C   UNL     1       1.090   9.527  18.955  0.00  0.00    +0.000 A 
ATOM     24  C   UNL     1       1.936   8.582  18.357  0.00  0.00    +0.000 A 
BRANCH  22  25
ATOM     25  C   UNL     1      -0.312  10.343  20.904  0.00  0.00    +0.000 A 
ATOM     26  C   UNL     1      -0.985  11.281  20.086  0.00  0.00    +0.000 A 
ATOM     27  C   UNL     1      -1.852  12.243  20.617  0.00  0.00    +0.000 A 
ATOM     28  C   UNL     1      -2.096  12.271  21.982  0.00  0.00    +0.000 A 
ATOM     29 CL   UNL     1      -3.160  13.449  22.640  0.00  0.00    +0.000 Cl
ATOM     30  C   UNL     1      -1.469  11.359  22.821  0.00  0.00    +0.000 A 
ATOM     31  C   UNL     1      -0.571  10.420  22.295  0.00  0.00    +0.000 A 
ATOM     32 CL   UNL     1       0.242   9.439  23.473  0.00  0.00    +0.000 Cl
ENDBRANCH  22  25
ENDBRANCH  10  19
TORSDOF 4
ENDMDL
MODEL 6
REMARK VINA RESULT:      -9.0      1.197      1.576
REMARK  Name = 
REMARK  5 active torsions:
REMARK  status: ('A' for Active; 'I' for Inactive)
REMARK    1  A    between atoms: C_1  and  O_2
REMARK    2  A    between atoms: O_2  and  C_3
REMARK    3  A    between atoms: C_8  and  N_9
REMARK    4  A    between atoms: C_18  and  C_19
REMARK    5  A    between atoms: C_22  and  C_23
REMARK                            x       y       z     vdW  Elec       q    Type
REMARK                         _______ _______ _______ _____ _____    ______ ____
ROOT
ATOM      1  N   UNL     1       3.233   5.091  18.457  0.00  0.00    +0.000 N 
ATOM      2  N   UNL     1       4.050   4.481  17.546  0.00  0.00    +0.000 NA
ATOM      3  C   UNL     1       4.721   5.483  16.973  0.00  0.00    +0.000 A 
ATOM      4  N   UNL     1       5.760   5.217  16.055  0.00  0.00    +0.000 N 
ATOM      5  C   UNL     1       6.200   4.008  15.588  0.00  0.00    +0.000 A 
ATOM      6  N   UNL     1       7.217   4.189  14.774  0.00  0.00    +0.000 NA
ATOM      7  N   UNL     1       7.413   5.547  14.721  0.00  0.00    +0.000 NA
ATOM      8  N   UNL     1       6.534   6.183  15.483  0.00  0.00    +0.000 NA
ATOM      9  C   UNL     1       4.281   6.743  17.391  0.00  0.00    +0.000 A 
ATOM     10  C   UNL     1       3.264   6.491  18.301  0.00  0.00    +0.000 A 
ENDROOT
BRANCH   1  16
ATOM     11  C   UNL     1       1.628   3.334  19.196  0.00  0.00    +0.000 A 
ATOM     12  C   UNL     1       1.038   2.637  20.266  0.00  0.00    +0.000 A 
ATOM     13  C   UNL     1       1.349   2.945  21.591  0.00  0.00    +0.000 A 
ATOM     14  C   UNL     1       2.285   3.926  21.874  0.00  0.00    +0.000 A 
ATOM     15  C   UNL     1       2.921   4.591  20.827  0.00  0.00    +0.000 A 
ATOM     16  C   UNL     1       2.584   4.328  19.483  0.00  0.00    +0.000 A 
BRANCH  11  18
ATOM     17  C   UNL     1       2.016   2.101  17.195  0.00  0.00    +0.000 C 
ATOM     18  O   UNL     1       1.275   3.101  17.893  0.00  0.00    +0.000 OA
ENDBRANCH  11  18
ENDBRANCH   1  16
BRANCH  10  19
ATOM     19  C   UNL     1       2.391   7.476  18.955  0.00  0.00    +0.000 A 
ATOM     20  C   UNL     1       1.966   7.328  20.279  0.00  0.00    +0.000 A 
ATOM     21  C   UNL     1       1.146   8.291  20.882  0.00  0.00    +0.000 A 
ATOM     22  C   UNL     1       0.695   9.426  20.181  0.00  0.00    +0.000 A 
ATOM     23  C   UNL     1       1.149   9.568  18.861  0.00  0.00    +0.000 A 
ATOM     24  C   UNL     1       1.959   8.601  18.249  0.00  0.00    +0.000 A 
BRANCH  22  25
ATOM     25  C   UNL     1      -0.214  10.412  20.826  0.00  0.00    +0.000 A 
ATOM     26  C   UNL     1      -0.241  10.500  22.238  0.00  0.00    +0.000 A 
ATOM     27  C   UNL     1      -1.106  11.370  22.912  0.00  0.00    +0.000 A 
ATOM     28  C   UNL     1      -1.946  12.203  22.188  0.00  0.00    +0.000 A 
ATOM     29 CL   UNL     1      -3.009  13.275  23.009  0.00  0.00    +0.000 Cl
ATOM     30  C   UNL     1      -1.942  12.161  20.799  0.00  0.00    +0.000 A 
ATOM     31  C   UNL     1      -1.104  11.262  20.124  0.00  0.00    +0.000 A 
ATOM     32 CL   UNL     1      -1.306  11.220  18.402  0.00  0.00    +0.000 Cl
ENDBRANCH  22  25
ENDBRANCH  10  19
TORSDOF 4
ENDMDL
MODEL 7
REMARK VINA RESULT:      -8.8      6.178      9.226
REMARK  Name = 
REMARK  5 active torsions:
REMARK  status: ('A' for Active; 'I' for Inactive)
REMARK    1  A    between atoms: C_1  and  O_2
REMARK    2  A    between atoms: O_2  and  C_3
REMARK    3  A    between atoms: C_8  and  N_9
REMARK    4  A    between atoms: C_18  and  C_19
REMARK    5  A    between atoms: C_22  and  C_23
REMARK                            x       y       z     vdW  Elec       q    Type
REMARK                         _______ _______ _______ _____ _____    ______ ____
ROOT
ATOM      1  N   UNL     1      -0.476  12.464  18.603  0.00  0.00    +0.000 N 
ATOM      2  N   UNL     1      -0.499  13.830  18.678  0.00  0.00    +0.000 NA
ATOM      3  C   UNL     1       0.787  14.184  18.721  0.00  0.00    +0.000 A 
ATOM      4  N   UNL     1       1.155  15.547  18.677  0.00  0.00    +0.000 N 
ATOM      5  C   UNL     1       0.348  16.651  18.635  0.00  0.00    +0.000 A 
ATOM      6  N   UNL     1       1.084  17.739  18.562  0.00  0.00    +0.000 NA
ATOM      7  N   UNL     1       2.387  17.306  18.569  0.00  0.00    +0.000 NA
ATOM      8  N   UNL     1       2.447  15.983  18.647  0.00  0.00    +0.000 NA
ATOM      9  C   UNL     1       1.653  13.089  18.802  0.00  0.00    +0.000 A 
ATOM     10  C   UNL     1       0.829  11.973  18.800  0.00  0.00    +0.000 A 
ENDROOT
BRANCH   1  16
ATOM     11  C   UNL     1      -2.876  11.867  18.915  0.00  0.00    +0.000 A 
ATOM     12  C   UNL     1      -3.977  11.106  18.482  0.00  0.00    +0.000 A 
ATOM     13  C   UNL     1      -3.863  10.200  17.427  0.00  0.00    +0.000 A 
ATOM     14  C   UNL     1      -2.658  10.064  16.757  0.00  0.00    +0.000 A 
ATOM     15  C   UNL     1      -1.570  10.848  17.135  0.00  0.00    +0.000 A 
ATOM     16  C   UNL     1      -1.652  11.733  18.229  0.00  0.00    +0.000 A 
BRANCH  11  18
ATOM     17  C   UNL     1      -4.249  12.971  20.517  0.00  0.00    +0.000 C 
ATOM     18  O   UNL     1      -2.947  12.701  19.998  0.00  0.00    +0.000 OA
ENDBRANCH  11  18
ENDBRANCH   1  16
BRANCH  10  19
ATOM     19  C   UNL     1       1.232  10.570  18.979  0.00  0.00    +0.000 A 
ATOM     20  C   UNL     1       1.009   9.882  20.175  0.00  0.00    +0.000 A 
ATOM     21  C   UNL     1       1.390   8.540  20.312  0.00  0.00    +0.000 A 
ATOM     22  C   UNL     1       2.032   7.840  19.273  0.00  0.00    +0.000 A 
ATOM     23  C   UNL     1       2.229   8.542  18.074  0.00  0.00    +0.000 A 
ATOM     24  C   UNL     1       1.861   9.887  17.935  0.00  0.00    +0.000 A 
BRANCH  22  25
ATOM     25  C   UNL     1       2.472   6.431  19.458  0.00  0.00    +0.000 A 
ATOM     26  C   UNL     1       1.821   5.630  20.426  0.00  0.00    +0.000 A 
ATOM     27  C   UNL     1       2.214   4.311  20.686  0.00  0.00    +0.000 A 
ATOM     28  C   UNL     1       3.250   3.746  19.956  0.00  0.00    +0.000 A 
ATOM     29 CL   UNL     1       3.736   2.127  20.269  0.00  0.00    +0.000 Cl
ATOM     30  C   UNL     1       3.907   4.491  18.986  0.00  0.00    +0.000 A 
ATOM     31  C   UNL     1       3.540   5.823  18.752  0.00  0.00    +0.000 A 
ATOM     32 CL   UNL     1       4.536   6.672  17.612  0.00  0.00    +0.000 Cl
ENDBRANCH  22  25
ENDBRANCH  10  19
TORSDOF 4
ENDMDL
MODEL 8
REMARK VINA RESULT:      -8.6      1.064      1.159
REMARK  Name = 
REMARK  5 active torsions:
REMARK  status: ('A' for Active; 'I' for Inactive)
REMARK    1  A    between atoms: C_1  and  O_2
REMARK    2  A    between atoms: O_2  and  C_3
REMARK    3  A    between atoms: C_8  and  N_9
REMARK    4  A    between atoms: C_18  and  C_19
REMARK    5  A    between atoms: C_22  and  C_23
REMARK                            x       y       z     vdW  Elec       q    Type
REMARK                         _______ _______ _______ _____ _____    ______ ____
ROOT
ATOM      1  N   UNL     1       3.959   4.520  17.011  0.00  0.00    +0.000 N 
ATOM      2  N   UNL     1       4.684   4.026  15.963  0.00  0.00    +0.000 NA
ATOM      3  C   UNL     1       5.309   5.092  15.456  0.00  0.00    +0.000 A 
ATOM      4  N   UNL     1       6.258   4.940  14.422  0.00  0.00    +0.000 N 
ATOM      5  C   UNL     1       6.643   3.798  13.773  0.00  0.00    +0.000 A 
ATOM      6  N   UNL     1       7.583   4.078  12.898  0.00  0.00    +0.000 NA
ATOM      7  N   UNL     1       7.786   5.433  12.991  0.00  0.00    +0.000 NA
ATOM      8  N   UNL     1       6.986   5.971  13.902  0.00  0.00    +0.000 NA
ATOM      9  C   UNL     1       4.921   6.291  16.062  0.00  0.00    +0.000 A 
ATOM     10  C   UNL     1       3.988   5.928  17.023  0.00  0.00    +0.000 A 
ENDROOT
BRANCH   1  16
ATOM     11  C   UNL     1       4.163   3.097  19.047  0.00  0.00    +0.000 A 
ATOM     12  C   UNL     1       3.533   2.234  19.962  0.00  0.00    +0.000 A 
ATOM     13  C   UNL     1       2.192   1.875  19.815  0.00  0.00    +0.000 A 
ATOM     14  C   UNL     1       1.443   2.402  18.776  0.00  0.00    +0.000 A 
ATOM     15  C   UNL     1       2.034   3.301  17.890  0.00  0.00    +0.000 A 
ATOM     16  C   UNL     1       3.399   3.637  17.993  0.00  0.00    +0.000 A 
BRANCH  11  18
ATOM     17  C   UNL     1       5.835   4.714  19.556  0.00  0.00    +0.000 C 
ATOM     18  O   UNL     1       5.496   3.396  19.128  0.00  0.00    +0.000 OA
ENDBRANCH  11  18
ENDBRANCH   1  16
BRANCH  10  19
ATOM     19  C   UNL     1       3.188   6.825  17.869  0.00  0.00    +0.000 A 
ATOM     20  C   UNL     1       2.786   6.467  19.159  0.00  0.00    +0.000 A 
ATOM     21  C   UNL     1       2.036   7.349  19.948  0.00  0.00    +0.000 A 
ATOM     22  C   UNL     1       1.633   8.611  19.473  0.00  0.00    +0.000 A 
ATOM     23  C   UNL     1       2.062   8.962  18.184  0.00  0.00    +0.000 A 
ATOM     24  C   UNL     1       2.803   8.078  17.386  0.00  0.00    +0.000 A 
BRANCH  22  25
ATOM     25  C   UNL     1       0.795   9.512  20.311  0.00  0.00    +0.000 A 
ATOM     26  C   UNL     1       0.979   9.514  21.714  0.00  0.00    +0.000 A 
ATOM     27  C   UNL     1       0.194  10.300  22.565  0.00  0.00    +0.000 A 
ATOM     28  C   UNL     1      -0.776  11.135  22.031  0.00  0.00    +0.000 A 
ATOM     29 CL   UNL     1      -1.742  12.104  23.071  0.00  0.00    +0.000 Cl
ATOM     30  C   UNL     1      -0.981  11.177  20.658  0.00  0.00    +0.000 A 
ATOM     31  C   UNL     1      -0.222  10.361  19.807  0.00  0.00    +0.000 A 
ATOM     32 CL   UNL     1      -0.680  10.414  18.135  0.00  0.00    +0.000 Cl
ENDBRANCH  22  25
ENDBRANCH  10  19
TORSDOF 4
ENDMDL
MODEL 9
REMARK VINA RESULT:      -8.5      6.018     10.257
REMARK  Name = 
REMARK  5 active torsions:
REMARK  status: ('A' for Active; 'I' for Inactive)
REMARK    1  A    between atoms: C_1  and  O_2
REMARK    2  A    between atoms: O_2  and  C_3
REMARK    3  A    between atoms: C_8  and  N_9
REMARK    4  A    between atoms: C_18  and  C_19
REMARK    5  A    between atoms: C_22  and  C_23
REMARK                            x       y       z     vdW  Elec       q    Type
REMARK                         _______ _______ _______ _____ _____    ______ ____
ROOT
ATOM      1  N   UNL     1       0.260  12.258  20.501  0.00  0.00    +0.000 N 
ATOM      2  N   UNL     1      -0.745  12.948  21.121  0.00  0.00    +0.000 NA
ATOM      3  C   UNL     1      -1.386  12.027  21.845  0.00  0.00    +0.000 A 
ATOM      4  N   UNL     1      -2.422  12.404  22.728  0.00  0.00    +0.000 N 
ATOM      5  C   UNL     1      -2.945  13.649  22.951  0.00  0.00    +0.000 A 
ATOM      6  N   UNL     1      -3.872  13.581  23.882  0.00  0.00    +0.000 NA
ATOM      7  N   UNL     1      -3.939  12.259  24.244  0.00  0.00    +0.000 NA
ATOM      8  N   UNL     1      -3.074  11.532  23.548  0.00  0.00    +0.000 NA
ATOM      9  C   UNL     1      -0.911  10.730  21.623  0.00  0.00    +0.000 A 
ATOM     10  C   UNL     1       0.110  10.871  20.694  0.00  0.00    +0.000 A 
ENDROOT
BRANCH   1  16
ATOM     11  C   UNL     1       2.208  13.809  20.604  0.00  0.00    +0.000 A 
ATOM     12  C   UNL     1       3.250  14.456  19.915  0.00  0.00    +0.000 A 
ATOM     13  C   UNL     1       3.415  14.300  18.538  0.00  0.00    +0.000 A 
ATOM     14  C   UNL     1       2.568  13.464  17.828  0.00  0.00    +0.000 A 
ATOM     15  C   UNL     1       1.563  12.772  18.501  0.00  0.00    +0.000 A 
ATOM     16  C   UNL     1       1.350  12.954  19.882  0.00  0.00    +0.000 A 
BRANCH  11  18
ATOM     17  C   UNL     1       1.705  15.351  22.347  0.00  0.00    +0.000 C 
ATOM     18  O   UNL     1       1.982  14.012  21.938  0.00  0.00    +0.000 OA
ENDBRANCH  11  18
ENDBRANCH   1  16
BRANCH  10  19
ATOM     19  C   UNL     1       0.868   9.796  20.037  0.00  0.00    +0.000 A 
ATOM     20  C   UNL     1       1.392   8.714  20.751  0.00  0.00    +0.000 A 
ATOM     21  C   UNL     1       2.098   7.696  20.096  0.00  0.00    +0.000 A 
ATOM     22  C   UNL     1       2.334   7.730  18.709  0.00  0.00    +0.000 A 
ATOM     23  C   UNL     1       1.785   8.813  18.006  0.00  0.00    +0.000 A 
ATOM     24  C   UNL     1       1.088   9.840  18.658  0.00  0.00    +0.000 A 
BRANCH  22  25
ATOM     25  C   UNL     1       3.129   6.663  18.042  0.00  0.00    +0.000 A 
ATOM     26  C   UNL     1       4.238   7.030  17.243  0.00  0.00    +0.000 A 
ATOM     27  C   UNL     1       4.999   6.082  16.549  0.00  0.00    +0.000 A 
ATOM     28  C   UNL     1       4.692   4.735  16.664  0.00  0.00    +0.000 A 
ATOM     29 CL   UNL     1       5.624   3.566  15.815  0.00  0.00    +0.000 Cl
ATOM     30  C   UNL     1       3.621   4.328  17.449  0.00  0.00    +0.000 A 
ATOM     31  C   UNL     1       2.834   5.279  18.113  0.00  0.00    +0.000 A 
ATOM     32 CL   UNL     1       1.449   4.639  18.941  0.00  0.00    +0.000 Cl
ENDBRANCH  22  25
ENDBRANCH  10  19
TORSDOF 4
ENDMDL
