MODEL 1
REMARK VINA RESULT:      -6.9      0.000      0.000
REMARK  Name = 
REMARK  8 active torsions:
REMARK  status: ('A' for Active; 'I' for Inactive)
REMARK    1  A    between atoms: C_1  and  C_2
REMARK    2  A    between atoms: N_6  and  C_7
REMARK    3  A    between atoms: C_7  and  C_8
REMARK    4  A    between atoms: N_10  and  C_11
REMARK    5  A    between atoms: C_11  and  C_12
REMARK    6  A    between atoms: C_11  and  C_13
REMARK    7  A    between atoms: C_21  and  C_22
REMARK    8  A    between atoms: N_24  and  C_25
REMARK                            x       y       z     vdW  Elec       q    Type
REMARK                         _______ _______ _______ _____ _____    ______ ____
ROOT
ATOM      1  C   UNL     1      -4.628  11.195  16.586  0.00  0.00    +0.000 C 
ATOM      2  C   UNL     1      -3.739  11.661  17.698  0.00  0.00    +0.000 A 
ATOM      3  C   UNL     1      -2.411  11.763  17.529  0.00  0.00    +0.000 A 
ATOM      4  C   UNL     1      -1.527  12.226  18.614  0.00  0.00    +0.000 A 
ATOM      5  O   UNL     1      -0.336  12.453  18.448  0.00  0.00    +0.000 OA
ATOM      6  N   UNL     1      -2.128  12.440  19.909  0.00  0.00    +0.000 N 
ATOM      7  C   UNL     1      -3.526  12.360  20.024  0.00  0.00    +0.000 A 
ATOM      8  C   UNL     1      -4.333  11.995  18.954  0.00  0.00    +0.000 A 
ATOM      9  C   UNL     1      -5.667  12.082  19.429  0.00  0.00    +0.000 A 
ATOM     10  C   UNL     1      -6.986  11.858  18.775  0.00  0.00    +0.000 C 
ATOM     11  N   UNL     1      -5.688  12.463  20.711  0.00  0.00    +0.000 NA
ATOM     12  N   UNL     1      -4.398  12.622  21.055  0.00  0.00    +0.000 N 
ATOM     13  C   UNL     1      -4.134  13.103  22.386  0.00  0.00    +0.000 C 
ENDROOT
BRANCH   6  14
ATOM     14  C   UNL     1      -1.194  12.817  20.988  0.00  0.00    +0.000 C 
BRANCH  14  15
ATOM     15  C   UNL     1      -0.509  11.635  21.672  0.00  0.00    +0.000 C 
ATOM     16  O   UNL     1      -0.287  11.639  22.882  0.00  0.00    +0.000 OA
ATOM     17  N   UNL     1      -0.137  10.601  20.837  0.00  0.00    +0.000 N 
ATOM     18  H   UNL     1      -0.621  10.511  19.951  0.00  0.00    +0.000 HD
BRANCH  17  19
ATOM     19  C   UNL     1       0.547   9.410  21.331  0.00  0.00    +0.000 C 
ATOM     20  C   UNL     1      -0.412   8.464  22.056  0.00  0.00    +0.000 C 
BRANCH  19  21
ATOM     21  C   UNL     1       1.266   8.702  20.194  0.00  0.00    +0.000 A 
ATOM     22  C   UNL     1       1.356   9.312  18.932  0.00  0.00    +0.000 A 
ATOM     23  C   UNL     1       2.038   8.689  17.882  0.00  0.00    +0.000 A 
ATOM     24  C   UNL     1       2.637   7.447  18.077  0.00  0.00    +0.000 A 
ATOM     25  C   UNL     1       2.553   6.826  19.320  0.00  0.00    +0.000 A 
ATOM     26  C   UNL     1       1.874   7.446  20.371  0.00  0.00    +0.000 A 
ENDBRANCH  19  21
ENDBRANCH  17  19
ENDBRANCH  14  15
ENDBRANCH   6  14
TORSDOF 4
ENDMDL
MODEL 2
REMARK VINA RESULT:      -6.8      3.778      5.188
REMARK  Name = 
REMARK  8 active torsions:
REMARK  status: ('A' for Active; 'I' for Inactive)
REMARK    1  A    between atoms: C_1  and  C_2
REMARK    2  A    between atoms: N_6  and  C_7
REMARK    3  A    between atoms: C_7  and  C_8
REMARK    4  A    between atoms: N_10  and  C_11
REMARK    5  A    between atoms: C_11  and  C_12
REMARK    6  A    between atoms: C_11  and  C_13
REMARK    7  A    between atoms: C_21  and  C_22
REMARK    8  A    between atoms: N_24  and  C_25
REMARK                            x       y       z     vdW  Elec       q    Type
REMARK                         _______ _______ _______ _____ _____    ______ ____
ROOT
ATOM      1  C   UNL     1       2.972  14.677  18.615  0.00  0.00    +0.000 C 
ATOM      2  C   UNL     1       2.367  13.329  18.857  0.00  0.00    +0.000 A 
ATOM      3  C   UNL     1       2.583  12.309  18.011  0.00  0.00    +0.000 A 
ATOM      4  C   UNL     1       1.998  10.976  18.242  0.00  0.00    +0.000 A 
ATOM      5  O   UNL     1       2.284  10.000  17.561  0.00  0.00    +0.000 OA
ATOM      6  N   UNL     1       1.075  10.842  19.343  0.00  0.00    +0.000 N 
ATOM      7  C   UNL     1       0.914  11.926  20.223  0.00  0.00    +0.000 A 
ATOM      8  C   UNL     1       1.547  13.144  20.012  0.00  0.00    +0.000 A 
ATOM      9  C   UNL     1       1.197  13.958  21.121  0.00  0.00    +0.000 A 
ATOM     10  C   UNL     1       1.571  15.345  21.510  0.00  0.00    +0.000 C 
ATOM     11  N   UNL     1       0.392  13.295  21.958  0.00  0.00    +0.000 NA
ATOM     12  N   UNL     1       0.228  12.080  21.404  0.00  0.00    +0.000 N 
ATOM     13  C   UNL     1      -0.554  11.126  22.148  0.00  0.00    +0.000 C 
ENDROOT
BRANCH   6  14
ATOM     14  C   UNL     1       0.444   9.515  19.486  0.00  0.00    +0.000 C 
BRANCH  14  15
ATOM     15  C   UNL     1       1.343   8.454  20.118  0.00  0.00    +0.000 C 
ATOM     16  O   UNL     1       1.614   8.479  21.318  0.00  0.00    +0.000 OA
ATOM     17  N   UNL     1       1.844   7.506  19.249  0.00  0.00    +0.000 N 
ATOM     18  H   UNL     1       1.343   7.348  18.381  0.00  0.00    +0.000 HD
BRANCH  17  19
ATOM     19  C   UNL     1       2.735   6.439  19.690  0.00  0.00    +0.000 C 
ATOM     20  C   UNL     1       1.978   5.340  20.441  0.00  0.00    +0.000 C 
BRANCH  19  21
ATOM     21  C   UNL     1       3.507   5.870  18.511  0.00  0.00    +0.000 A 
ATOM     22  C   UNL     1       3.211   4.582  18.033  0.00  0.00    +0.000 A 
ATOM     23  C   UNL     1       3.890   4.053  16.932  0.00  0.00    +0.000 A 
ATOM     24  C   UNL     1       4.877   4.800  16.294  0.00  0.00    +0.000 A 
ATOM     25  C   UNL     1       5.188   6.075  16.757  0.00  0.00    +0.000 A 
ATOM     26  C   UNL     1       4.509   6.608  17.857  0.00  0.00    +0.000 A 
ENDBRANCH  19  21
ENDBRANCH  17  19
ENDBRANCH  14  15
ENDBRANCH   6  14
TORSDOF 4
ENDMDL
MODEL 3
REMARK VINA RESULT:      -6.7      3.987      8.587
REMARK  Name = 
REMARK  8 active torsions:
REMARK  status: ('A' for Active; 'I' for Inactive)
REMARK    1  A    between atoms: C_1  and  C_2
REMARK    2  A    between atoms: N_6  and  C_7
REMARK    3  A    between atoms: C_7  and  C_8
REMARK    4  A    between atoms: N_10  and  C_11
REMARK    5  A    between atoms: C_11  and  C_12
REMARK    6  A    between atoms: C_11  and  C_13
REMARK    7  A    between atoms: C_21  and  C_22
REMARK    8  A    between atoms: N_24  and  C_25
REMARK                            x       y       z     vdW  Elec       q    Type
REMARK                         _______ _______ _______ _____ _____    ______ ____
ROOT
ATOM      1  C   UNL     1       1.508   2.870  20.551  0.00  0.00    +0.000 C 
ATOM      2  C   UNL     1       1.921   4.214  20.036  0.00  0.00    +0.000 A 
ATOM      3  C   UNL     1       1.490   5.344  20.620  0.00  0.00    +0.000 A 
ATOM      4  C   UNL     1       1.895   6.673  20.125  0.00  0.00    +0.000 A 
ATOM      5  O   UNL     1       1.625   7.710  20.716  0.00  0.00    +0.000 OA
ATOM      6  N   UNL     1       2.667   6.717  18.907  0.00  0.00    +0.000 N 
ATOM      7  C   UNL     1       3.127   5.508  18.358  0.00  0.00    +0.000 A 
ATOM      8  C   UNL     1       2.786   4.276  18.901  0.00  0.00    +0.000 A 
ATOM      9  C   UNL     1       3.474   3.308  18.125  0.00  0.00    +0.000 A 
ATOM     10  C   UNL     1       3.560   1.824  18.209  0.00  0.00    +0.000 C 
ATOM     11  N   UNL     1       4.184   3.897  17.156  0.00  0.00    +0.000 NA
ATOM     12  N   UNL     1       3.963   5.215  17.306  0.00  0.00    +0.000 N 
ATOM     13  C   UNL     1       4.675   6.099  16.420  0.00  0.00    +0.000 C 
ENDROOT
BRANCH   6  14
ATOM     14  C   UNL     1       2.976   8.067  18.399  0.00  0.00    +0.000 C 
BRANCH  14  15
ATOM     15  C   UNL     1       1.747   8.930  18.113  0.00  0.00    +0.000 C 
ATOM     16  O   UNL     1       0.915   8.596  17.271  0.00  0.00    +0.000 OA
ATOM     17  N   UNL     1       1.668  10.106  18.832  0.00  0.00    +0.000 N 
ATOM     18  H   UNL     1       2.181  10.162  19.705  0.00  0.00    +0.000 HD
BRANCH  17  19
ATOM     19  C   UNL     1       0.570  11.051  18.659  0.00  0.00    +0.000 C 
ATOM     20  C   UNL     1      -0.507  10.873  19.732  0.00  0.00    +0.000 C 
BRANCH  19  21
ATOM     21  C   UNL     1       1.096  12.477  18.636  0.00  0.00    +0.000 A 
ATOM     22  C   UNL     1       0.225  13.550  18.888  0.00  0.00    +0.000 A 
ATOM     23  C   UNL     1       0.696  14.867  18.899  0.00  0.00    +0.000 A 
ATOM     24  C   UNL     1       2.041  15.130  18.657  0.00  0.00    +0.000 A 
ATOM     25  C   UNL     1       2.917  14.079  18.400  0.00  0.00    +0.000 A 
ATOM     26  C   UNL     1       2.450  12.762  18.390  0.00  0.00    +0.000 A 
ENDBRANCH  19  21
ENDBRANCH  17  19
ENDBRANCH  14  15
ENDBRANCH   6  14
TORSDOF 4
ENDMDL
MODEL 4
REMARK VINA RESULT:      -6.7      3.511      8.455
REMARK  Name = 
REMARK  8 active torsions:
REMARK  status: ('A' for Active; 'I' for Inactive)
REMARK    1  A    between atoms: C_1  and  C_2
REMARK    2  A    between atoms: N_6  and  C_7
REMARK    3  A    between atoms: C_7  and  C_8
REMARK    4  A    between atoms: N_10  and  C_11
REMARK    5  A    between atoms: C_11  and  C_12
REMARK    6  A    between atoms: C_11  and  C_13
REMARK    7  A    between atoms: C_21  and  C_22
REMARK    8  A    between atoms: N_24  and  C_25
REMARK                            x       y       z     vdW  Elec       q    Type
REMARK                         _______ _______ _______ _____ _____    ______ ____
ROOT
ATOM      1  C   UNL     1       1.220   2.748  20.315  0.00  0.00    +0.000 C 
ATOM      2  C   UNL     1       1.690   4.132  19.986  0.00  0.00    +0.000 A 
ATOM      3  C   UNL     1       1.297   5.190  20.714  0.00  0.00    +0.000 A 
ATOM      4  C   UNL     1       1.758   6.555  20.403  0.00  0.00    +0.000 A 
ATOM      5  O   UNL     1       1.522   7.514  21.126  0.00  0.00    +0.000 OA
ATOM      6  N   UNL     1       2.544   6.730  19.206  0.00  0.00    +0.000 N 
ATOM      7  C   UNL     1       2.962   5.588  18.502  0.00  0.00    +0.000 A 
ATOM      8  C   UNL     1       2.569   4.309  18.874  0.00  0.00    +0.000 A 
ATOM      9  C   UNL     1       3.227   3.427  17.979  0.00  0.00    +0.000 A 
ATOM     10  C   UNL     1       3.254   1.943  17.865  0.00  0.00    +0.000 C 
ATOM     11  N   UNL     1       3.969   4.111  17.102  0.00  0.00    +0.000 NA
ATOM     12  N   UNL     1       3.798   5.405  17.425  0.00  0.00    +0.000 N 
ATOM     13  C   UNL     1       4.552   6.371  16.669  0.00  0.00    +0.000 C 
ENDROOT
BRANCH   6  14
ATOM     14  C   UNL     1       2.910   8.123  18.884  0.00  0.00    +0.000 C 
BRANCH  14  15
ATOM     15  C   UNL     1       1.754   8.976  18.362  0.00  0.00    +0.000 C 
ATOM     16  O   UNL     1       1.537   9.087  17.157  0.00  0.00    +0.000 OA
ATOM     17  N   UNL     1       1.012   9.624  19.329  0.00  0.00    +0.000 N 
ATOM     18  H   UNL     1       1.028   9.247  20.270  0.00  0.00    +0.000 HD
BRANCH  17  19
ATOM     19  C   UNL     1      -0.111  10.494  18.994  0.00  0.00    +0.000 C 
ATOM     20  C   UNL     1      -1.148   9.775  18.127  0.00  0.00    +0.000 C 
BRANCH  19  21
ATOM     21  C   UNL     1      -0.743  11.055  20.258  0.00  0.00    +0.000 A 
ATOM     22  C   UNL     1      -0.340  10.578  21.516  0.00  0.00    +0.000 A 
ATOM     23  C   UNL     1      -0.889  11.101  22.690  0.00  0.00    +0.000 A 
ATOM     24  C   UNL     1      -1.849  12.108  22.624  0.00  0.00    +0.000 A 
ATOM     25  C   UNL     1      -2.263  12.590  21.386  0.00  0.00    +0.000 A 
ATOM     26  C   UNL     1      -1.716  12.069  20.211  0.00  0.00    +0.000 A 
ENDBRANCH  19  21
ENDBRANCH  17  19
ENDBRANCH  14  15
ENDBRANCH   6  14
TORSDOF 4
ENDMDL
MODEL 5
REMARK VINA RESULT:      -6.7      1.703      6.444
REMARK  Name = 
REMARK  8 active torsions:
REMARK  status: ('A' for Active; 'I' for Inactive)
REMARK    1  A    between atoms: C_1  and  C_2
REMARK    2  A    between atoms: N_6  and  C_7
REMARK    3  A    between atoms: C_7  and  C_8
REMARK    4  A    between atoms: N_10  and  C_11
REMARK    5  A    between atoms: C_11  and  C_12
REMARK    6  A    between atoms: C_11  and  C_13
REMARK    7  A    between atoms: C_21  and  C_22
REMARK    8  A    between atoms: N_24  and  C_25
REMARK                            x       y       z     vdW  Elec       q    Type
REMARK                         _______ _______ _______ _____ _____    ______ ____
ROOT
ATOM      1  C   UNL     1       1.616   6.984  20.474  0.00  0.00    +0.000 C 
ATOM      2  C   UNL     1       1.116   8.311  20.956  0.00  0.00    +0.000 A 
ATOM      3  C   UNL     1       0.739   8.490  22.232  0.00  0.00    +0.000 A 
ATOM      4  C   UNL     1       0.252   9.794  22.718  0.00  0.00    +0.000 A 
ATOM      5  O   UNL     1       0.028  10.018  23.901  0.00  0.00    +0.000 OA
ATOM      6  N   UNL     1       0.070  10.838  21.739  0.00  0.00    +0.000 N 
ATOM      7  C   UNL     1       0.517  10.615  20.426  0.00  0.00    +0.000 A 
ATOM      8  C   UNL     1       1.045   9.394  20.026  0.00  0.00    +0.000 A 
ATOM      9  C   UNL     1       1.434   9.566  18.672  0.00  0.00    +0.000 A 
ATOM     10  C   UNL     1       2.088   8.660  17.689  0.00  0.00    +0.000 C 
ATOM     11  N   UNL     1       1.156  10.806  18.255  0.00  0.00    +0.000 NA
ATOM     12  N   UNL     1       0.604  11.422  19.316  0.00  0.00    +0.000 N 
ATOM     13  C   UNL     1       0.267  12.813  19.159  0.00  0.00    +0.000 C 
ENDROOT
BRANCH   6  14
ATOM     14  C   UNL     1      -0.503  12.097  22.252  0.00  0.00    +0.000 C 
BRANCH  14  15
ATOM     15  C   UNL     1      -2.029  12.165  22.199  0.00  0.00    +0.000 C 
ATOM     16  O   UNL     1      -2.718  11.782  23.142  0.00  0.00    +0.000 OA
ATOM     17  N   UNL     1      -2.559  12.646  21.019  0.00  0.00    +0.000 N 
ATOM     18  H   UNL     1      -1.968  13.230  20.437  0.00  0.00    +0.000 HD
BRANCH  17  19
ATOM     19  C   UNL     1      -3.998  12.753  20.799  0.00  0.00    +0.000 C 
ATOM     20  C   UNL     1      -4.519  14.157  21.116  0.00  0.00    +0.000 C 
BRANCH  19  21
ATOM     21  C   UNL     1      -4.351  12.342  19.379  0.00  0.00    +0.000 A 
ATOM     22  C   UNL     1      -3.411  11.652  18.594  0.00  0.00    +0.000 A 
ATOM     23  C   UNL     1      -3.726  11.241  17.296  0.00  0.00    +0.000 A 
ATOM     24  C   UNL     1      -4.983  11.514  16.762  0.00  0.00    +0.000 A 
ATOM     25  C   UNL     1      -5.925  12.201  17.523  0.00  0.00    +0.000 A 
ATOM     26  C   UNL     1      -5.613  12.612  18.822  0.00  0.00    +0.000 A 
ENDBRANCH  19  21
ENDBRANCH  17  19
ENDBRANCH  14  15
ENDBRANCH   6  14
TORSDOF 4
ENDMDL
MODEL 6
REMARK VINA RESULT:      -6.5      1.248      1.839
REMARK  Name = 
REMARK  8 active torsions:
REMARK  status: ('A' for Active; 'I' for Inactive)
REMARK    1  A    between atoms: C_1  and  C_2
REMARK    2  A    between atoms: N_6  and  C_7
REMARK    3  A    between atoms: C_7  and  C_8
REMARK    4  A    between atoms: N_10  and  C_11
REMARK    5  A    between atoms: C_11  and  C_12
REMARK    6  A    between atoms: C_11  and  C_13
REMARK    7  A    between atoms: C_21  and  C_22
REMARK    8  A    between atoms: N_24  and  C_25
REMARK                            x       y       z     vdW  Elec       q    Type
REMARK                         _______ _______ _______ _____ _____    ______ ____
ROOT
ATOM      1  C   UNL     1      -6.629  11.009  18.854  0.00  0.00    +0.000 C 
ATOM      2  C   UNL     1      -5.221  11.514  18.929  0.00  0.00    +0.000 A 
ATOM      3  C   UNL     1      -4.316  11.191  17.991  0.00  0.00    +0.000 A 
ATOM      4  C   UNL     1      -2.929  11.686  18.052  0.00  0.00    +0.000 A 
ATOM      5  O   UNL     1      -2.125  11.515  17.145  0.00  0.00    +0.000 OA
ATOM      6  N   UNL     1      -2.543  12.426  19.229  0.00  0.00    +0.000 N 
ATOM      7  C   UNL     1      -3.536  12.773  20.162  0.00  0.00    +0.000 A 
ATOM      8  C   UNL     1      -4.852  12.350  20.027  0.00  0.00    +0.000 A 
ATOM      9  C   UNL     1      -5.558  12.938  21.108  0.00  0.00    +0.000 A 
ATOM     10  C   UNL     1      -6.991  12.907  21.511  0.00  0.00    +0.000 C 
ATOM     11  N   UNL     1      -4.735  13.666  21.870  0.00  0.00    +0.000 NA
ATOM     12  N   UNL     1      -3.525  13.555  21.293  0.00  0.00    +0.000 N 
ATOM     13  C   UNL     1      -2.450  14.310  21.883  0.00  0.00    +0.000 C 
ENDROOT
BRANCH   6  14
ATOM     14  C   UNL     1      -1.124  12.827  19.291  0.00  0.00    +0.000 C 
BRANCH  14  15
ATOM     15  C   UNL     1      -0.263  11.964  20.212  0.00  0.00    +0.000 C 
ATOM     16  O   UNL     1       0.541  12.470  20.993  0.00  0.00    +0.000 OA
ATOM     17  N   UNL     1      -0.432  10.601  20.076  0.00  0.00    +0.000 N 
ATOM     18  H   UNL     1      -1.303  10.269  19.677  0.00  0.00    +0.000 HD
BRANCH  17  19
ATOM     19  C   UNL     1       0.331   9.640  20.866  0.00  0.00    +0.000 C 
ATOM     20  C   UNL     1      -0.580   8.760  21.725  0.00  0.00    +0.000 C 
BRANCH  19  21
ATOM     21  C   UNL     1       1.220   8.798  19.964  0.00  0.00    +0.000 A 
ATOM     22  C   UNL     1       1.746   7.583  20.433  0.00  0.00    +0.000 A 
ATOM     23  C   UNL     1       2.542   6.782  19.609  0.00  0.00    +0.000 A 
ATOM     24  C   UNL     1       2.827   7.184  18.307  0.00  0.00    +0.000 A 
ATOM     25  C   UNL     1       2.319   8.388  17.827  0.00  0.00    +0.000 A 
ATOM     26  C   UNL     1       1.522   9.190  18.648  0.00  0.00    +0.000 A 
ENDBRANCH  19  21
ENDBRANCH  17  19
ENDBRANCH  14  15
ENDBRANCH   6  14
TORSDOF 4
ENDMDL
MODEL 7
REMARK VINA RESULT:      -6.4      3.053      4.965
REMARK  Name = 
REMARK  8 active torsions:
REMARK  status: ('A' for Active; 'I' for Inactive)
REMARK    1  A    between atoms: C_1  and  C_2
REMARK    2  A    between atoms: N_6  and  C_7
REMARK    3  A    between atoms: C_7  and  C_8
REMARK    4  A    between atoms: N_10  and  C_11
REMARK    5  A    between atoms: C_11  and  C_12
REMARK    6  A    between atoms: C_11  and  C_13
REMARK    7  A    between atoms: C_21  and  C_22
REMARK    8  A    between atoms: N_24  and  C_25
REMARK                            x       y       z     vdW  Elec       q    Type
REMARK                         _______ _______ _______ _____ _____    ______ ____
ROOT
ATOM      1  C   UNL     1      -1.647  11.697  17.899  0.00  0.00    +0.000 C 
ATOM      2  C   UNL     1      -0.689  10.835  18.663  0.00  0.00    +0.000 A 
ATOM      3  C   UNL     1       0.262  10.127  18.033  0.00  0.00    +0.000 A 
ATOM      4  C   UNL     1       1.214   9.280  18.775  0.00  0.00    +0.000 A 
ATOM      5  O   UNL     1       2.168   8.731  18.240  0.00  0.00    +0.000 OA
ATOM      6  N   UNL     1       1.002   9.136  20.195  0.00  0.00    +0.000 N 
ATOM      7  C   UNL     1       0.020   9.929  20.813  0.00  0.00    +0.000 A 
ATOM      8  C   UNL     1      -0.807  10.776  20.085  0.00  0.00    +0.000 A 
ATOM      9  C   UNL     1      -1.614  11.443  21.043  0.00  0.00    +0.000 A 
ATOM     10  C   UNL     1      -2.666  12.489  20.920  0.00  0.00    +0.000 C 
ATOM     11  N   UNL     1      -1.319  11.029  22.280  0.00  0.00    +0.000 NA
ATOM     12  N   UNL     1      -0.340  10.120  22.126  0.00  0.00    +0.000 N 
ATOM     13  C   UNL     1       0.220   9.556  23.327  0.00  0.00    +0.000 C 
ENDROOT
BRANCH   6  14
ATOM     14  C   UNL     1       1.922   8.211  20.884  0.00  0.00    +0.000 C 
BRANCH  14  15
ATOM     15  C   UNL     1       1.894   6.778  20.352  0.00  0.00    +0.000 C 
ATOM     16  O   UNL     1       0.973   6.012  20.631  0.00  0.00    +0.000 OA
ATOM     17  N   UNL     1       2.977   6.412  19.579  0.00  0.00    +0.000 N 
ATOM     18  H   UNL     1       3.509   7.149  19.129  0.00  0.00    +0.000 HD
BRANCH  17  19
ATOM     19  C   UNL     1       3.112   5.073  19.014  0.00  0.00    +0.000 C 
ATOM     20  C   UNL     1       2.000   4.766  18.007  0.00  0.00    +0.000 C 
BRANCH  19  21
ATOM     21  C   UNL     1       4.486   4.897  18.389  0.00  0.00    +0.000 A 
ATOM     22  C   UNL     1       4.604   4.397  17.082  0.00  0.00    +0.000 A 
ATOM     23  C   UNL     1       5.858   4.254  16.480  0.00  0.00    +0.000 A 
ATOM     24  C   UNL     1       7.011   4.606  17.176  0.00  0.00    +0.000 A 
ATOM     25  C   UNL     1       6.914   5.098  18.474  0.00  0.00    +0.000 A 
ATOM     26  C   UNL     1       5.662   5.243  19.078  0.00  0.00    +0.000 A 
ENDBRANCH  19  21
ENDBRANCH  17  19
ENDBRANCH  14  15
ENDBRANCH   6  14
TORSDOF 4
ENDMDL
MODEL 8
REMARK VINA RESULT:      -6.3      1.868      6.182
REMARK  Name = 
REMARK  8 active torsions:
REMARK  status: ('A' for Active; 'I' for Inactive)
REMARK    1  A    between atoms: C_1  and  C_2
REMARK    2  A    between atoms: N_6  and  C_7
REMARK    3  A    between atoms: C_7  and  C_8
REMARK    4  A    between atoms: N_10  and  C_11
REMARK    5  A    between atoms: C_11  and  C_12
REMARK    6  A    between atoms: C_11  and  C_13
REMARK    7  A    between atoms: C_21  and  C_22
REMARK    8  A    between atoms: N_24  and  C_25
REMARK                            x       y       z     vdW  Elec       q    Type
REMARK                         _______ _______ _______ _____ _____    ______ ____
ROOT
ATOM      1  C   UNL     1       1.569   8.797  19.318  0.00  0.00    +0.000 C 
ATOM      2  C   UNL     1       0.875   9.681  20.307  0.00  0.00    +0.000 A 
ATOM      3  C   UNL     1       0.262   9.170  21.386  0.00  0.00    +0.000 A 
ATOM      4  C   UNL     1      -0.420  10.031  22.369  0.00  0.00    +0.000 A 
ATOM      5  O   UNL     1      -0.870   9.604  23.424  0.00  0.00    +0.000 OA
ATOM      6  N   UNL     1      -0.516  11.437  22.061  0.00  0.00    +0.000 N 
ATOM      7  C   UNL     1       0.177  11.930  20.942  0.00  0.00    +0.000 A 
ATOM      8  C   UNL     1       0.874  11.092  20.081  0.00  0.00    +0.000 A 
ATOM      9  C   UNL     1       1.482  11.943  19.122  0.00  0.00    +0.000 A 
ATOM     10  C   UNL     1       2.380  11.678  17.964  0.00  0.00    +0.000 C 
ATOM     11  N   UNL     1       1.173  13.222  19.363  0.00  0.00    +0.000 NA
ATOM     12  N   UNL     1       0.388  13.198  20.454  0.00  0.00    +0.000 N 
ATOM     13  C   UNL     1      -0.038  14.470  20.978  0.00  0.00    +0.000 C 
ENDROOT
BRANCH   6  14
ATOM     14  C   UNL     1      -1.282  12.249  23.026  0.00  0.00    +0.000 C 
BRANCH  14  15
ATOM     15  C   UNL     1      -2.777  12.342  22.727  0.00  0.00    +0.000 C 
ATOM     16  O   UNL     1      -3.618  12.057  23.579  0.00  0.00    +0.000 OA
ATOM     17  N   UNL     1      -3.102  12.729  21.443  0.00  0.00    +0.000 N 
ATOM     18  H   UNL     1      -2.408  13.247  20.915  0.00  0.00    +0.000 HD
BRANCH  17  19
ATOM     19  C   UNL     1      -4.485  12.844  20.991  0.00  0.00    +0.000 C 
ATOM     20  C   UNL     1      -5.023  14.266  21.167  0.00  0.00    +0.000 C 
BRANCH  19  21
ATOM     21  C   UNL     1      -4.613  12.380  19.549  0.00  0.00    +0.000 A 
ATOM     22  C   UNL     1      -5.817  12.575  18.853  0.00  0.00    +0.000 A 
ATOM     23  C   UNL     1      -5.945  12.181  17.518  0.00  0.00    +0.000 A 
ATOM     24  C   UNL     1      -4.873  11.584  16.860  0.00  0.00    +0.000 A 
ATOM     25  C   UNL     1      -3.673  11.378  17.536  0.00  0.00    +0.000 A 
ATOM     26  C   UNL     1      -3.543  11.772  18.870  0.00  0.00    +0.000 A 
ENDBRANCH  19  21
ENDBRANCH  17  19
ENDBRANCH  14  15
ENDBRANCH   6  14
TORSDOF 4
ENDMDL
MODEL 9
REMARK VINA RESULT:      -6.3      2.895      8.091
REMARK  Name = 
REMARK  8 active torsions:
REMARK  status: ('A' for Active; 'I' for Inactive)
REMARK    1  A    between atoms: C_1  and  C_2
REMARK    2  A    between atoms: N_6  and  C_7
REMARK    3  A    between atoms: C_7  and  C_8
REMARK    4  A    between atoms: N_10  and  C_11
REMARK    5  A    between atoms: C_11  and  C_12
REMARK    6  A    between atoms: C_11  and  C_13
REMARK    7  A    between atoms: C_21  and  C_22
REMARK    8  A    between atoms: N_24  and  C_25
REMARK                            x       y       z     vdW  Elec       q    Type
REMARK                         _______ _______ _______ _____ _____    ______ ____
ROOT
ATOM      1  C   UNL     1       4.959   6.901  16.458  0.00  0.00    +0.000 C 
ATOM      2  C   UNL     1       3.892   7.063  17.496  0.00  0.00    +0.000 A 
ATOM      3  C   UNL     1       3.113   8.156  17.528  0.00  0.00    +0.000 A 
ATOM      4  C   UNL     1       2.055   8.323  18.541  0.00  0.00    +0.000 A 
ATOM      5  O   UNL     1       1.249   9.243  18.511  0.00  0.00    +0.000 OA
ATOM      6  N   UNL     1       1.974   7.326  19.581  0.00  0.00    +0.000 N 
ATOM      7  C   UNL     1       2.784   6.181  19.481  0.00  0.00    +0.000 A 
ATOM      8  C   UNL     1       3.716   6.026  18.463  0.00  0.00    +0.000 A 
ATOM      9  C   UNL     1       4.288   4.742  18.657  0.00  0.00    +0.000 A 
ATOM     10  C   UNL     1       5.310   3.970  17.898  0.00  0.00    +0.000 C 
ATOM     11  N   UNL     1       3.757   4.145  19.729  0.00  0.00    +0.000 NA
ATOM     12  N   UNL     1       2.859   5.021  20.215  0.00  0.00    +0.000 N 
ATOM     13  C   UNL     1       2.081   4.594  21.350  0.00  0.00    +0.000 C 
ENDROOT
BRANCH   6  14
ATOM     14  C   UNL     1       0.961   7.577  20.624  0.00  0.00    +0.000 C 
BRANCH  14  15
ATOM     15  C   UNL     1       1.130   8.904  21.363  0.00  0.00    +0.000 C 
ATOM     16  O   UNL     1       1.991   9.046  22.230  0.00  0.00    +0.000 OA
ATOM     17  N   UNL     1       0.237   9.895  21.013  0.00  0.00    +0.000 N 
ATOM     18  H   UNL     1      -0.209   9.832  20.104  0.00  0.00    +0.000 HD
BRANCH  17  19
ATOM     19  C   UNL     1       0.250  11.213  21.641  0.00  0.00    +0.000 C 
ATOM     20  C   UNL     1       1.091  12.214  20.845  0.00  0.00    +0.000 C 
BRANCH  19  21
ATOM     21  C   UNL     1      -1.168  11.720  21.841  0.00  0.00    +0.000 A 
ATOM     22  C   UNL     1      -1.760  11.667  23.114  0.00  0.00    +0.000 A 
ATOM     23  C   UNL     1      -3.053  12.154  23.324  0.00  0.00    +0.000 A 
ATOM     24  C   UNL     1      -3.775  12.699  22.265  0.00  0.00    +0.000 A 
ATOM     25  C   UNL     1      -3.207  12.756  20.996  0.00  0.00    +0.000 A 
ATOM     26  C   UNL     1      -1.914  12.270  20.784  0.00  0.00    +0.000 A 
ENDBRANCH  19  21
ENDBRANCH  17  19
ENDBRANCH  14  15
ENDBRANCH   6  14
TORSDOF 4
ENDMDL
