MODEL 1
REMARK VINA RESULT:      -8.4      0.000      0.000
REMARK  Name = 
REMARK  6 active torsions:
REMARK  status: ('A' for Active; 'I' for Inactive)
REMARK    1  A    between atoms: C_2  and  C_3
REMARK    2  A    between atoms: C_7  and  C_8
REMARK    3  A    between atoms: C_13  and  C_14
REMARK    4  A    between atoms: C_17  and  C_18
REMARK    5  A    between atoms: C_21  and  O_22
REMARK    6  A    between atoms: O_22  and  C_23
REMARK                            x       y       z     vdW  Elec       q    Type
REMARK                         _______ _______ _______ _____ _____    ______ ____
ROOT
ATOM      1  C   UNL     1      -0.912  13.630  19.822  0.00  0.00    +0.000 C 
ATOM      2  C   UNL     1      -1.276  14.555  21.001  0.00  0.00    +0.000 C 
ATOM      3  C   UNL     1      -1.950  13.770  22.120  0.00  0.00    +0.000 C 
ATOM      4  N   UNL     1      -1.078  12.683  22.561  0.00  0.00    +0.000 N 
ATOM      5  C   UNL     1      -0.461  11.928  21.608  0.00  0.00    +0.000 A 
ATOM      6  C   UNL     1       0.111  10.668  21.632  0.00  0.00    +0.000 A 
ATOM      7  C   UNL     1       0.512  10.427  20.269  0.00  0.00    +0.000 A 
ATOM      8  N   UNL     1       0.200  11.480  19.487  0.00  0.00    +0.000 NA
ATOM      9  N   UNL     1      -0.340  12.377  20.323  0.00  0.00    +0.000 N 
ATOM     10  H   UNL     1      -1.449  12.189  23.376  0.00  0.00    +0.000 HD
ENDROOT
BRANCH   1  15
ATOM     11  C   UNL     1       1.574  16.686  20.344  0.00  0.00    +0.000 C 
ATOM     12  O   UNL     1       0.815  17.491  20.873  0.00  0.00    +0.000 OA
ATOM     13  N   UNL     1       1.212  15.891  19.286  0.00  0.00    +0.000 N 
ATOM     14  C   UNL     1      -0.110  15.831  18.675  0.00  0.00    +0.000 C 
ATOM     15  C   UNL     1      -0.009  14.303  18.775  0.00  0.00    +0.000 C 
ATOM     16  C   UNL     1       1.500  14.478  19.049  0.00  0.00    +0.000 C 
BRANCH  11  18
ATOM     17  C   UNL     1       3.968  17.174  20.106  0.00  0.00    +0.000 C 
ATOM     18  C   UNL     1       2.991  16.537  20.767  0.00  0.00    +0.000 C 
ENDBRANCH  11  18
ENDBRANCH   1  15
BRANCH   7  19
ATOM     19  C   UNL     1       1.195   9.271  19.672  0.00  0.00    +0.000 A 
ATOM     20  C   UNL     1       1.555   9.277  18.315  0.00  0.00    +0.000 A 
ATOM     21  C   UNL     1       2.256   8.206  17.745  0.00  0.00    +0.000 A 
ATOM     22  C   UNL     1       2.604   7.104  18.528  0.00  0.00    +0.000 A 
ATOM     23  C   UNL     1       2.196   7.057  19.861  0.00  0.00    +0.000 A 
ATOM     24  C   UNL     1       1.542   8.150  20.437  0.00  0.00    +0.000 A 
BRANCH  22  25
ATOM     25  O   UNL     1       3.303   6.100  17.898  0.00  0.00    +0.000 OA
BRANCH  25  26
ATOM     26  C   UNL     1       3.100   4.787  18.266  0.00  0.00    +0.000 A 
ATOM     27  C   UNL     1       1.914   4.203  17.814  0.00  0.00    +0.000 A 
ATOM     28  C   UNL     1       1.611   2.879  18.139  0.00  0.00    +0.000 A 
ATOM     29  C   UNL     1       2.494   2.136  18.922  0.00  0.00    +0.000 A 
ATOM     30  C   UNL     1       3.691   2.711  19.347  0.00  0.00    +0.000 A 
ATOM     31 CL   UNL     1       4.774   1.802  20.329  0.00  0.00    +0.000 Cl
ATOM     32  C   UNL     1       4.013   4.021  18.997  0.00  0.00    +0.000 A 
ENDBRANCH  25  26
ENDBRANCH  22  25
ENDBRANCH   7  19
BRANCH   6  33
ATOM     33  C   UNL     1       0.217   9.809  22.797  0.00  0.00    +0.000 C 
ATOM     34  N   UNL     1      -0.947   9.203  23.181  0.00  0.00    +0.000 N 
ATOM     35  O   UNL     1       1.243   9.627  23.443  0.00  0.00    +0.000 OA
ATOM     36  H   UNL     1      -1.829   9.492  22.774  0.00  0.00    +0.000 HD
ATOM     37  H   UNL     1      -0.943   8.700  24.056  0.00  0.00    +0.000 HD
ENDBRANCH   6  33
TORSDOF 6
ENDMDL
MODEL 2
REMARK VINA RESULT:      -8.4      1.859      2.467
REMARK  Name = 
REMARK  6 active torsions:
REMARK  status: ('A' for Active; 'I' for Inactive)
REMARK    1  A    between atoms: C_2  and  C_3
REMARK    2  A    between atoms: C_7  and  C_8
REMARK    3  A    between atoms: C_13  and  C_14
REMARK    4  A    between atoms: C_17  and  C_18
REMARK    5  A    between atoms: C_21  and  O_22
REMARK    6  A    between atoms: O_22  and  C_23
REMARK                            x       y       z     vdW  Elec       q    Type
REMARK                         _______ _______ _______ _____ _____    ______ ____
ROOT
ATOM      1  C   UNL     1      -0.124  13.282  19.564  0.00  0.00    +0.000 C 
ATOM      2  C   UNL     1      -0.504  14.308  20.650  0.00  0.00    +0.000 C 
ATOM      3  C   UNL     1      -1.370  13.664  21.727  0.00  0.00    +0.000 C 
ATOM      4  N   UNL     1      -0.670  12.522  22.312  0.00  0.00    +0.000 N 
ATOM      5  C   UNL     1      -0.044  11.652  21.468  0.00  0.00    +0.000 A 
ATOM      6  C   UNL     1       0.382  10.344  21.615  0.00  0.00    +0.000 A 
ATOM      7  C   UNL     1       0.892   9.983  20.316  0.00  0.00    +0.000 A 
ATOM      8  N   UNL     1       0.777  11.014  19.455  0.00  0.00    +0.000 NA
ATOM      9  N   UNL     1       0.255  12.009  20.184  0.00  0.00    +0.000 N 
ATOM     10  H   UNL     1      -1.175  12.118  23.104  0.00  0.00    +0.000 HD
ENDROOT
BRANCH   1  15
ATOM     11  C   UNL     1       3.123  15.413  20.407  0.00  0.00    +0.000 C 
ATOM     12  O   UNL     1       2.617  16.328  21.048  0.00  0.00    +0.000 OA
ATOM     13  N   UNL     1       2.565  14.894  19.267  0.00  0.00    +0.000 N 
ATOM     14  C   UNL     1       1.290  15.289  18.682  0.00  0.00    +0.000 C 
ATOM     15  C   UNL     1       0.949  13.796  18.589  0.00  0.00    +0.000 C 
ATOM     16  C   UNL     1       2.441  13.498  18.850  0.00  0.00    +0.000 C 
BRANCH  11  18
ATOM     17  C   UNL     1       4.581  14.181  21.948  0.00  0.00    +0.000 C 
ATOM     18  C   UNL     1       4.432  14.816  20.777  0.00  0.00    +0.000 C 
ENDBRANCH  11  18
ENDBRANCH   1  15
BRANCH   7  19
ATOM     19  C   UNL     1       1.504   8.729  19.852  0.00  0.00    +0.000 A 
ATOM     20  C   UNL     1       1.572   7.612  20.699  0.00  0.00    +0.000 A 
ATOM     21  C   UNL     1       2.102   6.394  20.254  0.00  0.00    +0.000 A 
ATOM     22  C   UNL     1       2.580   6.277  18.948  0.00  0.00    +0.000 A 
ATOM     23  C   UNL     1       2.578   7.397  18.117  0.00  0.00    +0.000 A 
ATOM     24  C   UNL     1       2.002   8.595  18.549  0.00  0.00    +0.000 A 
BRANCH  22  25
ATOM     25  O   UNL     1       3.072   5.045  18.583  0.00  0.00    +0.000 OA
BRANCH  25  26
ATOM     26  C   UNL     1       4.353   4.939  18.083  0.00  0.00    +0.000 A 
ATOM     27  C   UNL     1       5.383   5.228  18.980  0.00  0.00    +0.000 A 
ATOM     28  C   UNL     1       6.717   5.155  18.569  0.00  0.00    +0.000 A 
ATOM     29  C   UNL     1       7.021   4.797  17.257  0.00  0.00    +0.000 A 
ATOM     30  C   UNL     1       5.992   4.480  16.371  0.00  0.00    +0.000 A 
ATOM     31 CL   UNL     1       6.364   4.055  14.745  0.00  0.00    +0.000 Cl
ATOM     32  C   UNL     1       4.662   4.518  16.786  0.00  0.00    +0.000 A 
ENDBRANCH  25  26
ENDBRANCH  22  25
ENDBRANCH   7  19
BRANCH   6  33
ATOM     33  C   UNL     1       0.274   9.550  22.824  0.00  0.00    +0.000 C 
ATOM     34  N   UNL     1      -0.882   8.830  22.947  0.00  0.00    +0.000 N 
ATOM     35  O   UNL     1       1.116   9.512  23.716  0.00  0.00    +0.000 OA
ATOM     36  H   UNL     1      -1.656   9.000  22.316  0.00  0.00    +0.000 HD
ATOM     37  H   UNL     1      -1.049   8.366  23.828  0.00  0.00    +0.000 HD
ENDBRANCH   6  33
TORSDOF 6
ENDMDL
MODEL 3
REMARK VINA RESULT:      -8.3      1.728      2.240
REMARK  Name = 
REMARK  6 active torsions:
REMARK  status: ('A' for Active; 'I' for Inactive)
REMARK    1  A    between atoms: C_2  and  C_3
REMARK    2  A    between atoms: C_7  and  C_8
REMARK    3  A    between atoms: C_13  and  C_14
REMARK    4  A    between atoms: C_17  and  C_18
REMARK    5  A    between atoms: C_21  and  O_22
REMARK    6  A    between atoms: O_22  and  C_23
REMARK                            x       y       z     vdW  Elec       q    Type
REMARK                         _______ _______ _______ _____ _____    ______ ____
ROOT
ATOM      1  C   UNL     1      -0.350  13.265  19.611  0.00  0.00    +0.000 C 
ATOM      2  C   UNL     1      -0.709  14.280  20.715  0.00  0.00    +0.000 C 
ATOM      3  C   UNL     1      -1.503  13.611  21.831  0.00  0.00    +0.000 C 
ATOM      4  N   UNL     1      -0.741  12.491  22.381  0.00  0.00    +0.000 N 
ATOM      5  C   UNL     1      -0.129  11.641  21.508  0.00  0.00    +0.000 A 
ATOM      6  C   UNL     1       0.344  10.346  21.634  0.00  0.00    +0.000 A 
ATOM      7  C   UNL     1       0.802  10.000  20.312  0.00  0.00    +0.000 A 
ATOM      8  N   UNL     1       0.615  11.026  19.458  0.00  0.00    +0.000 NA
ATOM      9  N   UNL     1       0.098  12.005  20.211  0.00  0.00    +0.000 N 
ATOM     10  H   UNL     1      -1.194  12.073  23.196  0.00  0.00    +0.000 HD
ENDROOT
BRANCH   1  15
ATOM     11  C   UNL     1       2.962  15.347  20.314  0.00  0.00    +0.000 C 
ATOM     12  O   UNL     1       2.507  16.239  21.023  0.00  0.00    +0.000 OA
ATOM     13  N   UNL     1       2.325  14.874  19.195  0.00  0.00    +0.000 N 
ATOM     14  C   UNL     1       1.017  15.298  18.713  0.00  0.00    +0.000 C 
ATOM     15  C   UNL     1       0.659  13.811  18.586  0.00  0.00    +0.000 C 
ATOM     16  C   UNL     1       2.163  13.496  18.734  0.00  0.00    +0.000 C 
BRANCH  11  18
ATOM     17  C   UNL     1       4.866  14.838  21.777  0.00  0.00    +0.000 C 
ATOM     18  C   UNL     1       4.288  14.728  20.572  0.00  0.00    +0.000 C 
ENDBRANCH  11  18
ENDBRANCH   1  15
BRANCH   7  19
ATOM     19  C   UNL     1       1.430   8.765  19.819  0.00  0.00    +0.000 A 
ATOM     20  C   UNL     1       1.551   7.643  20.654  0.00  0.00    +0.000 A 
ATOM     21  C   UNL     1       2.097   6.442  20.183  0.00  0.00    +0.000 A 
ATOM     22  C   UNL     1       2.537   6.347  18.862  0.00  0.00    +0.000 A 
ATOM     23  C   UNL     1       2.482   7.474  18.041  0.00  0.00    +0.000 A 
ATOM     24  C   UNL     1       1.891   8.654  18.501  0.00  0.00    +0.000 A 
BRANCH  22  25
ATOM     25  O   UNL     1       3.047   5.131  18.471  0.00  0.00    +0.000 OA
BRANCH  25  26
ATOM     26  C   UNL     1       4.365   5.034  18.077  0.00  0.00    +0.000 A 
ATOM     27  C   UNL     1       4.581   4.546  16.786  0.00  0.00    +0.000 A 
ATOM     28  C   UNL     1       5.881   4.403  16.294  0.00  0.00    +0.000 A 
ATOM     29  C   UNL     1       6.968   4.746  17.096  0.00  0.00    +0.000 A 
ATOM     30  C   UNL     1       6.750   5.260  18.373  0.00  0.00    +0.000 A 
ATOM     31 CL   UNL     1       8.092   5.667  19.372  0.00  0.00    +0.000 Cl
ATOM     32  C   UNL     1       5.455   5.436  18.855  0.00  0.00    +0.000 A 
ENDBRANCH  25  26
ENDBRANCH  22  25
ENDBRANCH   7  19
BRANCH   6  33
ATOM     33  C   UNL     1       0.318   9.550  22.847  0.00  0.00    +0.000 C 
ATOM     34  N   UNL     1      -0.840   8.858  23.065  0.00  0.00    +0.000 N 
ATOM     35  O   UNL     1       1.230   9.489  23.664  0.00  0.00    +0.000 OA
ATOM     36  H   UNL     1      -1.660   9.050  22.501  0.00  0.00    +0.000 HD
ATOM     37  H   UNL     1      -0.945   8.395  23.956  0.00  0.00    +0.000 HD
ENDBRANCH   6  33
TORSDOF 6
ENDMDL
MODEL 4
REMARK VINA RESULT:      -8.2      2.130      2.660
REMARK  Name = 
REMARK  6 active torsions:
REMARK  status: ('A' for Active; 'I' for Inactive)
REMARK    1  A    between atoms: C_2  and  C_3
REMARK    2  A    between atoms: C_7  and  C_8
REMARK    3  A    between atoms: C_13  and  C_14
REMARK    4  A    between atoms: C_17  and  C_18
REMARK    5  A    between atoms: C_21  and  O_22
REMARK    6  A    between atoms: O_22  and  C_23
REMARK                            x       y       z     vdW  Elec       q    Type
REMARK                         _______ _______ _______ _____ _____    ______ ____
ROOT
ATOM      1  C   UNL     1       1.109  13.015  19.553  0.00  0.00    +0.000 C 
ATOM      2  C   UNL     1       0.554  14.008  20.594  0.00  0.00    +0.000 C 
ATOM      3  C   UNL     1      -0.735  13.482  21.214  0.00  0.00    +0.000 C 
ATOM      4  N   UNL     1      -0.498  12.173  21.820  0.00  0.00    +0.000 N 
ATOM      5  C   UNL     1       0.225  11.259  21.111  0.00  0.00    +0.000 A 
ATOM      6  C   UNL     1       0.337   9.882  21.193  0.00  0.00    +0.000 A 
ATOM      7  C   UNL     1       1.202   9.525  20.097  0.00  0.00    +0.000 A 
ATOM      8  N   UNL     1       1.581  10.622  19.411  0.00  0.00    +0.000 NA
ATOM      9  N   UNL     1       1.017  11.644  20.066  0.00  0.00    +0.000 N 
ATOM     10  H   UNL     1      -1.311  11.825  22.331  0.00  0.00    +0.000 HD
ENDROOT
BRANCH   1  15
ATOM     11  C   UNL     1       2.698  16.620  19.029  0.00  0.00    +0.000 C 
ATOM     12  O   UNL     1       1.840  17.128  18.313  0.00  0.00    +0.000 OA
ATOM     13  N   UNL     1       3.135  15.329  18.879  0.00  0.00    +0.000 N 
ATOM     14  C   UNL     1       2.629  14.360  17.915  0.00  0.00    +0.000 C 
ATOM     15  C   UNL     1       2.529  13.361  19.076  0.00  0.00    +0.000 C 
ATOM     16  C   UNL     1       3.413  14.321  19.902  0.00  0.00    +0.000 C 
BRANCH  11  18
ATOM     17  C   UNL     1       2.714  17.801  21.179  0.00  0.00    +0.000 C 
ATOM     18  C   UNL     1       3.389  17.383  20.100  0.00  0.00    +0.000 C 
ENDBRANCH  11  18
ENDBRANCH   1  15
BRANCH   7  19
ATOM     19  C   UNL     1       1.710   8.210  19.680  0.00  0.00    +0.000 A 
ATOM     20  C   UNL     1       2.193   8.011  18.377  0.00  0.00    +0.000 A 
ATOM     21  C   UNL     1       2.731   6.779  17.982  0.00  0.00    +0.000 A 
ATOM     22  C   UNL     1       2.789   5.720  18.889  0.00  0.00    +0.000 A 
ATOM     23  C   UNL     1       2.253   5.884  20.167  0.00  0.00    +0.000 A 
ATOM     24  C   UNL     1       1.764   7.130  20.571  0.00  0.00    +0.000 A 
BRANCH  22  25
ATOM     25  O   UNL     1       3.343   4.548  18.429  0.00  0.00    +0.000 OA
BRANCH  25  26
ATOM     26  C   UNL     1       4.586   4.564  17.832  0.00  0.00    +0.000 A 
ATOM     27  C   UNL     1       5.659   4.890  18.666  0.00  0.00    +0.000 A 
ATOM     28  C   UNL     1       6.958   4.940  18.156  0.00  0.00    +0.000 A 
ATOM     29  C   UNL     1       7.186   4.668  16.807  0.00  0.00    +0.000 A 
ATOM     30  C   UNL     1       6.119   4.315  15.984  0.00  0.00    +0.000 A 
ATOM     31 CL   UNL     1       6.395   3.997  14.314  0.00  0.00    +0.000 Cl
ATOM     32  C   UNL     1       4.825   4.230  16.495  0.00  0.00    +0.000 A 
ENDBRANCH  25  26
ENDBRANCH  22  25
ENDBRANCH   7  19
BRANCH   6  33
ATOM     33  C   UNL     1      -0.328   9.036  22.166  0.00  0.00    +0.000 C 
ATOM     34  N   UNL     1      -0.137   9.391  23.473  0.00  0.00    +0.000 N 
ATOM     35  O   UNL     1      -1.000   8.047  21.893  0.00  0.00    +0.000 OA
ATOM     36  H   UNL     1       0.562  10.083  23.715  0.00  0.00    +0.000 HD
ATOM     37  H   UNL     1      -0.477   8.757  24.181  0.00  0.00    +0.000 HD
ENDBRANCH   6  33
TORSDOF 6
ENDMDL
MODEL 5
REMARK VINA RESULT:      -8.2      3.683      5.008
REMARK  Name = 
REMARK  6 active torsions:
REMARK  status: ('A' for Active; 'I' for Inactive)
REMARK    1  A    between atoms: C_2  and  C_3
REMARK    2  A    between atoms: C_7  and  C_8
REMARK    3  A    between atoms: C_13  and  C_14
REMARK    4  A    between atoms: C_17  and  C_18
REMARK    5  A    between atoms: C_21  and  O_22
REMARK    6  A    between atoms: O_22  and  C_23
REMARK                            x       y       z     vdW  Elec       q    Type
REMARK                         _______ _______ _______ _____ _____    ______ ____
ROOT
ATOM      1  C   UNL     1      -3.680  11.878  19.511  0.00  0.00    +0.000 C 
ATOM      2  C   UNL     1      -4.076  13.363  19.636  0.00  0.00    +0.000 C 
ATOM      3  C   UNL     1      -3.209  14.071  20.671  0.00  0.00    +0.000 C 
ATOM      4  N   UNL     1      -1.798  13.938  20.314  0.00  0.00    +0.000 N 
ATOM      5  C   UNL     1      -1.350  12.712  19.917  0.00  0.00    +0.000 A 
ATOM      6  C   UNL     1      -0.087  12.148  19.856  0.00  0.00    +0.000 A 
ATOM      7  C   UNL     1      -0.319  10.793  19.425  0.00  0.00    +0.000 A 
ATOM      8  N   UNL     1      -1.635  10.569  19.239  0.00  0.00    +0.000 NA
ATOM      9  N   UNL     1      -2.220  11.745  19.499  0.00  0.00    +0.000 N 
ATOM     10  H   UNL     1      -1.186  14.479  20.929  0.00  0.00    +0.000 HD
ENDROOT
BRANCH   1  15
ATOM     11  C   UNL     1      -7.120  12.772  17.732  0.00  0.00    +0.000 C 
ATOM     12  O   UNL     1      -7.863  12.800  18.708  0.00  0.00    +0.000 OA
ATOM     13  N   UNL     1      -6.146  11.823  17.554  0.00  0.00    +0.000 N 
ATOM     14  C   UNL     1      -5.805  10.761  18.492  0.00  0.00    +0.000 C 
ATOM     15  C   UNL     1      -4.337  11.170  18.314  0.00  0.00    +0.000 C 
ATOM     16  C   UNL     1      -4.774  11.983  17.076  0.00  0.00    +0.000 C 
BRANCH  11  18
ATOM     17  C   UNL     1      -6.923  15.030  16.792  0.00  0.00    +0.000 C 
ATOM     18  C   UNL     1      -7.245  13.741  16.613  0.00  0.00    +0.000 C 
ENDBRANCH  11  18
ENDBRANCH   1  15
BRANCH   7  19
ATOM     19  C   UNL     1       0.636   9.709  19.154  0.00  0.00    +0.000 A 
ATOM     20  C   UNL     1       1.188   9.547  17.873  0.00  0.00    +0.000 A 
ATOM     21  C   UNL     1       2.140   8.552  17.613  0.00  0.00    +0.000 A 
ATOM     22  C   UNL     1       2.553   7.697  18.636  0.00  0.00    +0.000 A 
ATOM     23  C   UNL     1       1.965   7.805  19.896  0.00  0.00    +0.000 A 
ATOM     24  C   UNL     1       1.053   8.830  20.163  0.00  0.00    +0.000 A 
BRANCH  22  25
ATOM     25  O   UNL     1       3.501   6.757  18.304  0.00  0.00    +0.000 OA
BRANCH  25  26
ATOM     26  C   UNL     1       3.321   5.440  18.673  0.00  0.00    +0.000 A 
ATOM     27  C   UNL     1       4.432   4.807  19.233  0.00  0.00    +0.000 A 
ATOM     28  C   UNL     1       4.355   3.470  19.633  0.00  0.00    +0.000 A 
ATOM     29  C   UNL     1       3.164   2.764  19.470  0.00  0.00    +0.000 A 
ATOM     30  C   UNL     1       2.047   3.407  18.938  0.00  0.00    +0.000 A 
ATOM     31 CL   UNL     1       0.581   2.532  18.719  0.00  0.00    +0.000 Cl
ATOM     32  C   UNL     1       2.110   4.749  18.569  0.00  0.00    +0.000 A 
ENDBRANCH  25  26
ENDBRANCH  22  25
ENDBRANCH   7  19
BRANCH   6  33
ATOM     33  C   UNL     1       1.154  12.814  20.203  0.00  0.00    +0.000 C 
ATOM     34  N   UNL     1       1.742  13.514  19.187  0.00  0.00    +0.000 N 
ATOM     35  O   UNL     1       1.694  12.763  21.303  0.00  0.00    +0.000 OA
ATOM     36  H   UNL     1       1.409  13.408  18.236  0.00  0.00    +0.000 HD
ATOM     37  H   UNL     1       2.666  13.886  19.352  0.00  0.00    +0.000 HD
ENDBRANCH   6  33
TORSDOF 6
ENDMDL
MODEL 6
REMARK VINA RESULT:      -8.2      0.828      1.150
REMARK  Name = 
REMARK  6 active torsions:
REMARK  status: ('A' for Active; 'I' for Inactive)
REMARK    1  A    between atoms: C_2  and  C_3
REMARK    2  A    between atoms: C_7  and  C_8
REMARK    3  A    between atoms: C_13  and  C_14
REMARK    4  A    between atoms: C_17  and  C_18
REMARK    5  A    between atoms: C_21  and  O_22
REMARK    6  A    between atoms: O_22  and  C_23
REMARK                            x       y       z     vdW  Elec       q    Type
REMARK                         _______ _______ _______ _____ _____    ______ ____
ROOT
ATOM      1  C   UNL     1      -1.021  13.689  19.850  0.00  0.00    +0.000 C 
ATOM      2  C   UNL     1      -1.401  14.593  21.040  0.00  0.00    +0.000 C 
ATOM      3  C   UNL     1      -2.061  13.782  22.149  0.00  0.00    +0.000 C 
ATOM      4  N   UNL     1      -1.169  12.707  22.578  0.00  0.00    +0.000 N 
ATOM      5  C   UNL     1      -0.537  11.975  21.615  0.00  0.00    +0.000 A 
ATOM      6  C   UNL     1       0.058  10.725  21.625  0.00  0.00    +0.000 A 
ATOM      7  C   UNL     1       0.463  10.509  20.258  0.00  0.00    +0.000 A 
ATOM      8  N   UNL     1       0.131  11.565  19.489  0.00  0.00    +0.000 NA
ATOM      9  N   UNL     1      -0.424  12.441  20.336  0.00  0.00    +0.000 N 
ATOM     10  H   UNL     1      -1.531  12.196  23.386  0.00  0.00    +0.000 HD
ENDROOT
BRANCH   1  15
ATOM     11  C   UNL     1       1.447  16.753  20.420  0.00  0.00    +0.000 C 
ATOM     12  O   UNL     1       0.685  17.540  20.973  0.00  0.00    +0.000 OA
ATOM     13  N   UNL     1       1.083  15.978  19.349  0.00  0.00    +0.000 N 
ATOM     14  C   UNL     1      -0.242  15.921  18.746  0.00  0.00    +0.000 C 
ATOM     15  C   UNL     1      -0.130  14.392  18.812  0.00  0.00    +0.000 C 
ATOM     16  C   UNL     1       1.380  14.572  19.079  0.00  0.00    +0.000 C 
BRANCH  11  18
ATOM     17  C   UNL     1       3.819  17.358  20.262  0.00  0.00    +0.000 C 
ATOM     18  C   UNL     1       2.867  16.605  20.830  0.00  0.00    +0.000 C 
ENDBRANCH  11  18
ENDBRANCH   1  15
BRANCH   7  19
ATOM     19  C   UNL     1       1.168   9.373  19.647  0.00  0.00    +0.000 A 
ATOM     20  C   UNL     1       1.523   9.400  18.290  0.00  0.00    +0.000 A 
ATOM     21  C   UNL     1       2.244   8.349  17.707  0.00  0.00    +0.000 A 
ATOM     22  C   UNL     1       2.616   7.247  18.477  0.00  0.00    +0.000 A 
ATOM     23  C   UNL     1       2.213   7.177  19.811  0.00  0.00    +0.000 A 
ATOM     24  C   UNL     1       1.539   8.251  20.400  0.00  0.00    +0.000 A 
BRANCH  22  25
ATOM     25  O   UNL     1       3.333   6.263  17.835  0.00  0.00    +0.000 OA
BRANCH  25  26
ATOM     26  C   UNL     1       3.222   4.952  18.247  0.00  0.00    +0.000 A 
ATOM     27  C   UNL     1       4.407   4.341  18.663  0.00  0.00    +0.000 A 
ATOM     28  C   UNL     1       4.402   3.012  19.093  0.00  0.00    +0.000 A 
ATOM     29  C   UNL     1       3.210   2.290  19.104  0.00  0.00    +0.000 A 
ATOM     30  C   UNL     1       2.023   2.910  18.718  0.00  0.00    +0.000 A 
ATOM     31 CL   UNL     1       0.552   2.016  18.714  0.00  0.00    +0.000 Cl
ATOM     32  C   UNL     1       2.017   4.246  18.320  0.00  0.00    +0.000 A 
ENDBRANCH  25  26
ENDBRANCH  22  25
ENDBRANCH   7  19
BRANCH   6  33
ATOM     33  C   UNL     1       0.179   9.854  22.779  0.00  0.00    +0.000 C 
ATOM     34  N   UNL     1      -0.970   9.210  23.145  0.00  0.00    +0.000 N 
ATOM     35  O   UNL     1       1.205   9.694  23.431  0.00  0.00    +0.000 OA
ATOM     36  H   UNL     1      -1.856   9.479  22.735  0.00  0.00    +0.000 HD
ATOM     37  H   UNL     1      -0.958   8.696  24.014  0.00  0.00    +0.000 HD
ENDBRANCH   6  33
TORSDOF 6
ENDMDL
MODEL 7
REMARK VINA RESULT:      -8.1      0.719      1.094
REMARK  Name = 
REMARK  6 active torsions:
REMARK  status: ('A' for Active; 'I' for Inactive)
REMARK    1  A    between atoms: C_2  and  C_3
REMARK    2  A    between atoms: C_7  and  C_8
REMARK    3  A    between atoms: C_13  and  C_14
REMARK    4  A    between atoms: C_17  and  C_18
REMARK    5  A    between atoms: C_21  and  O_22
REMARK    6  A    between atoms: O_22  and  C_23
REMARK                            x       y       z     vdW  Elec       q    Type
REMARK                         _______ _______ _______ _____ _____    ______ ____
ROOT
ATOM      1  C   UNL     1      -1.225  13.192  19.594  0.00  0.00    +0.000 C 
ATOM      2  C   UNL     1      -1.662  14.077  20.778  0.00  0.00    +0.000 C 
ATOM      3  C   UNL     1      -2.220  13.227  21.914  0.00  0.00    +0.000 C 
ATOM      4  N   UNL     1      -1.223  12.247  22.339  0.00  0.00    +0.000 N 
ATOM      5  C   UNL     1      -0.547  11.560  21.373  0.00  0.00    +0.000 A 
ATOM      6  C   UNL     1       0.162  10.371  21.389  0.00  0.00    +0.000 A 
ATOM      7  C   UNL     1       0.556  10.170  20.017  0.00  0.00    +0.000 A 
ATOM      8  N   UNL     1       0.112  11.178  19.240  0.00  0.00    +0.000 NA
ATOM      9  N   UNL     1      -0.505  12.013  20.085  0.00  0.00    +0.000 N 
ATOM     10  H   UNL     1      -1.519  11.719  23.162  0.00  0.00    +0.000 HD
ENDROOT
BRANCH   1  15
ATOM     11  C   UNL     1       2.033  15.412  20.101  0.00  0.00    +0.000 C 
ATOM     12  O   UNL     1       1.646  16.156  20.997  0.00  0.00    +0.000 OA
ATOM     13  N   UNL     1       1.253  15.053  19.032  0.00  0.00    +0.000 N 
ATOM     14  C   UNL     1      -0.138  15.434  18.821  0.00  0.00    +0.000 C 
ATOM     15  C   UNL     1      -0.425  13.956  18.525  0.00  0.00    +0.000 C 
ATOM     16  C   UNL     1       1.099  13.745  18.397  0.00  0.00    +0.000 C 
BRANCH  11  18
ATOM     17  C   UNL     1       4.417  15.605  19.553  0.00  0.00    +0.000 C 
ATOM     18  C   UNL     1       3.416  14.872  20.061  0.00  0.00    +0.000 C 
ENDBRANCH  11  18
ENDBRANCH   1  15
BRANCH   7  19
ATOM     19  C   UNL     1       1.351   9.094  19.408  0.00  0.00    +0.000 A 
ATOM     20  C   UNL     1       1.731   7.972  20.162  0.00  0.00    +0.000 A 
ATOM     21  C   UNL     1       2.441   6.913  19.580  0.00  0.00    +0.000 A 
ATOM     22  C   UNL     1       2.788   6.964  18.230  0.00  0.00    +0.000 A 
ATOM     23  C   UNL     1       2.474   8.101  17.486  0.00  0.00    +0.000 A 
ATOM     24  C   UNL     1       1.722   9.132  18.057  0.00  0.00    +0.000 A 
BRANCH  22  25
ATOM     25  O   UNL     1       3.472   5.880  17.731  0.00  0.00    +0.000 OA
BRANCH  25  26
ATOM     26  C   UNL     1       3.215   4.618  18.225  0.00  0.00    +0.000 A 
ATOM     27  C   UNL     1       2.085   3.981  17.708  0.00  0.00    +0.000 A 
ATOM     28  C   UNL     1       1.733   2.702  18.149  0.00  0.00    +0.000 A 
ATOM     29  C   UNL     1       2.511   2.061  19.112  0.00  0.00    +0.000 A 
ATOM     30  C   UNL     1       3.654   2.687  19.605  0.00  0.00    +0.000 A 
ATOM     31 CL   UNL     1       4.606   1.905  20.808  0.00  0.00    +0.000 Cl
ATOM     32  C   UNL     1       4.028   3.948  19.144  0.00  0.00    +0.000 A 
ENDBRANCH  25  26
ENDBRANCH  22  25
ENDBRANCH   7  19
BRANCH   6  33
ATOM     33  C   UNL     1       0.388   9.536  22.553  0.00  0.00    +0.000 C 
ATOM     34  N   UNL     1      -0.713   8.869  23.013  0.00  0.00    +0.000 N 
ATOM     35  O   UNL     1       1.460   9.422  23.137  0.00  0.00    +0.000 OA
ATOM     36  H   UNL     1      -1.633   9.101  22.659  0.00  0.00    +0.000 HD
ATOM     37  H   UNL     1      -0.627   8.379  23.892  0.00  0.00    +0.000 HD
ENDBRANCH   6  33
TORSDOF 6
ENDMDL
MODEL 8
REMARK VINA RESULT:      -8.1      2.054      2.494
REMARK  Name = 
REMARK  6 active torsions:
REMARK  status: ('A' for Active; 'I' for Inactive)
REMARK    1  A    between atoms: C_2  and  C_3
REMARK    2  A    between atoms: C_7  and  C_8
REMARK    3  A    between atoms: C_13  and  C_14
REMARK    4  A    between atoms: C_17  and  C_18
REMARK    5  A    between atoms: C_21  and  O_22
REMARK    6  A    between atoms: O_22  and  C_23
REMARK                            x       y       z     vdW  Elec       q    Type
REMARK                         _______ _______ _______ _____ _____    ______ ____
ROOT
ATOM      1  C   UNL     1      -1.102  13.216  19.847  0.00  0.00    +0.000 C 
ATOM      2  C   UNL     1      -1.388  14.151  21.039  0.00  0.00    +0.000 C 
ATOM      3  C   UNL     1      -1.864  13.356  22.250  0.00  0.00    +0.000 C 
ATOM      4  N   UNL     1      -0.867  12.349  22.607  0.00  0.00    +0.000 N 
ATOM      5  C   UNL     1      -0.315  11.608  21.603  0.00  0.00    +0.000 A 
ATOM      6  C   UNL     1       0.346  10.393  21.587  0.00  0.00    +0.000 A 
ATOM      7  C   UNL     1       0.597  10.137  20.191  0.00  0.00    +0.000 A 
ATOM      8  N   UNL     1       0.117  11.140  19.429  0.00  0.00    +0.000 NA
ATOM      9  N   UNL     1      -0.382  12.023  20.303  0.00  0.00    +0.000 N 
ATOM     10  H   UNL     1      -1.101  11.856  23.472  0.00  0.00    +0.000 HD
ENDROOT
BRANCH   1  15
ATOM     11  C   UNL     1       2.282  15.297  19.962  0.00  0.00    +0.000 C 
ATOM     12  O   UNL     1       2.020  16.079  20.871  0.00  0.00    +0.000 OA
ATOM     13  N   UNL     1       1.384  14.948  18.987  0.00  0.00    +0.000 N 
ATOM     14  C   UNL     1      -0.004  15.387  18.905  0.00  0.00    +0.000 C 
ATOM     15  C   UNL     1      -0.383  13.917  18.682  0.00  0.00    +0.000 C 
ATOM     16  C   UNL     1       1.110  13.634  18.408  0.00  0.00    +0.000 C 
BRANCH  11  18
ATOM     17  C   UNL     1       4.522  15.241  18.962  0.00  0.00    +0.000 C 
ATOM     18  C   UNL     1       3.630  14.694  19.800  0.00  0.00    +0.000 C 
ENDBRANCH  11  18
ENDBRANCH   1  15
BRANCH   7  19
ATOM     19  C   UNL     1       1.288   9.013  19.542  0.00  0.00    +0.000 A 
ATOM     20  C   UNL     1       1.626   9.073  18.181  0.00  0.00    +0.000 A 
ATOM     21  C   UNL     1       2.333   8.033  17.562  0.00  0.00    +0.000 A 
ATOM     22  C   UNL     1       2.708   6.910  18.299  0.00  0.00    +0.000 A 
ATOM     23  C   UNL     1       2.321   6.808  19.636  0.00  0.00    +0.000 A 
ATOM     24  C   UNL     1       1.661   7.870  20.261  0.00  0.00    +0.000 A 
BRANCH  22  25
ATOM     25  O   UNL     1       3.410   5.939  17.623  0.00  0.00    +0.000 OA
BRANCH  25  26
ATOM     26  C   UNL     1       4.787   5.908  17.700  0.00  0.00    +0.000 A 
ATOM     27  C   UNL     1       5.357   4.651  17.914  0.00  0.00    +0.000 A 
ATOM     28  C   UNL     1       6.744   4.514  18.014  0.00  0.00    +0.000 A 
ATOM     29  C   UNL     1       7.563   5.636  17.905  0.00  0.00    +0.000 A 
ATOM     30  C   UNL     1       6.994   6.886  17.662  0.00  0.00    +0.000 A 
ATOM     31 CL   UNL     1       8.001   8.276  17.545  0.00  0.00    +0.000 Cl
ATOM     32  C   UNL     1       5.613   7.022  17.528  0.00  0.00    +0.000 A 
ENDBRANCH  25  26
ENDBRANCH  22  25
ENDBRANCH   7  19
BRANCH   6  33
ATOM     33  C   UNL     1       0.654   9.582  22.750  0.00  0.00    +0.000 C 
ATOM     34  N   UNL     1      -0.428   9.032  23.379  0.00  0.00    +0.000 N 
ATOM     35  O   UNL     1       1.781   9.393  23.196  0.00  0.00    +0.000 OA
ATOM     36  H   UNL     1      -1.365   9.333  23.136  0.00  0.00    +0.000 HD
ATOM     37  H   UNL     1      -0.268   8.567  24.260  0.00  0.00    +0.000 HD
ENDBRANCH   6  33
TORSDOF 6
ENDMDL
MODEL 9
REMARK VINA RESULT:      -8.1      1.772      2.190
REMARK  Name = 
REMARK  6 active torsions:
REMARK  status: ('A' for Active; 'I' for Inactive)
REMARK    1  A    between atoms: C_2  and  C_3
REMARK    2  A    between atoms: C_7  and  C_8
REMARK    3  A    between atoms: C_13  and  C_14
REMARK    4  A    between atoms: C_17  and  C_18
REMARK    5  A    between atoms: C_21  and  O_22
REMARK    6  A    between atoms: O_22  and  C_23
REMARK                            x       y       z     vdW  Elec       q    Type
REMARK                         _______ _______ _______ _____ _____    ______ ____
ROOT
ATOM      1  C   UNL     1      -0.383  13.578  19.791  0.00  0.00    +0.000 C 
ATOM      2  C   UNL     1      -0.672  14.553  20.950  0.00  0.00    +0.000 C 
ATOM      3  C   UNL     1      -1.429  13.853  22.073  0.00  0.00    +0.000 C 
ATOM      4  N   UNL     1      -0.667  12.698  22.543  0.00  0.00    +0.000 N 
ATOM      5  C   UNL     1      -0.112  11.872  21.609  0.00  0.00    +0.000 A 
ATOM      6  C   UNL     1       0.339  10.565  21.661  0.00  0.00    +0.000 A 
ATOM      7  C   UNL     1       0.731  10.265  20.307  0.00  0.00    +0.000 A 
ATOM      8  N   UNL     1       0.528  11.329  19.505  0.00  0.00    +0.000 NA
ATOM      9  N   UNL     1       0.065  12.286  20.320  0.00  0.00    +0.000 N 
ATOM     10  H   UNL     1      -1.093  12.254  23.360  0.00  0.00    +0.000 HD
ENDROOT
BRANCH   1  15
ATOM     11  C   UNL     1       3.011  15.546  20.429  0.00  0.00    +0.000 C 
ATOM     12  O   UNL     1       2.612  16.414  21.198  0.00  0.00    +0.000 OA
ATOM     13  N   UNL     1       2.311  15.140  19.322  0.00  0.00    +0.000 N 
ATOM     14  C   UNL     1       0.993  15.617  18.922  0.00  0.00    +0.000 C 
ATOM     15  C   UNL     1       0.591  14.146  18.745  0.00  0.00    +0.000 C 
ATOM     16  C   UNL     1       2.092  13.789  18.808  0.00  0.00    +0.000 C 
BRANCH  11  18
ATOM     17  C   UNL     1       5.434  15.424  20.056  0.00  0.00    +0.000 C 
ATOM     18  C   UNL     1       4.331  14.885  20.596  0.00  0.00    +0.000 C 
ENDBRANCH  11  18
ENDBRANCH   1  15
BRANCH   7  19
ATOM     19  C   UNL     1       1.311   9.040  19.737  0.00  0.00    +0.000 A 
ATOM     20  C   UNL     1       1.633   8.970  18.373  0.00  0.00    +0.000 A 
ATOM     21  C   UNL     1       2.236   7.830  17.827  0.00  0.00    +0.000 A 
ATOM     22  C   UNL     1       2.523   6.734  18.642  0.00  0.00    +0.000 A 
ATOM     23  C   UNL     1       2.149   6.765  19.985  0.00  0.00    +0.000 A 
ATOM     24  C   UNL     1       1.594   7.924  20.536  0.00  0.00    +0.000 A 
BRANCH  22  25
ATOM     25  O   UNL     1       3.128   5.658  18.033  0.00  0.00    +0.000 OA
BRANCH  25  26
ATOM     26  C   UNL     1       4.483   5.686  17.778  0.00  0.00    +0.000 A 
ATOM     27  C   UNL     1       4.848   5.750  16.431  0.00  0.00    +0.000 A 
ATOM     28  C   UNL     1       6.197   5.776  16.067  0.00  0.00    +0.000 A 
ATOM     29  C   UNL     1       7.183   5.734  17.051  0.00  0.00    +0.000 A 
ATOM     30  C   UNL     1       6.817   5.700  18.396  0.00  0.00    +0.000 A 
ATOM     31 CL   UNL     1       8.033   5.630  19.612  0.00  0.00    +0.000 Cl
ATOM     32  C   UNL     1       5.473   5.709  18.765  0.00  0.00    +0.000 A 
ENDBRANCH  25  26
ENDBRANCH  22  25
ENDBRANCH   7  19
BRANCH   6  33
ATOM     33  C   UNL     1       0.350   9.720  22.841  0.00  0.00    +0.000 C 
ATOM     34  N   UNL     1      -0.840   9.116  23.136  0.00  0.00    +0.000 N 
ATOM     35  O   UNL     1       1.321   9.548  23.571  0.00  0.00    +0.000 OA
ATOM     36  H   UNL     1      -1.686   9.398  22.655  0.00  0.00    +0.000 HD
ATOM     37  H   UNL     1      -0.907   8.623  24.014  0.00  0.00    +0.000 HD
ENDBRANCH   6  33
TORSDOF 6
ENDMDL
