MODEL 1
REMARK VINA RESULT:      -8.1      0.000      0.000
REMARK  Name = 
REMARK  4 active torsions:
REMARK  status: ('A' for Active; 'I' for Inactive)
REMARK    1  A    between atoms: O_1  and  C_2
REMARK    2  A    between atoms: C_8  and  C_9
REMARK    3  A    between atoms: C_9  and  C_10
REMARK    4  A    between atoms: C_17  and  N_18
REMARK                            x       y       z     vdW  Elec       q    Type
REMARK                         _______ _______ _______ _____ _____    ______ ____
ROOT
ATOM      1  C   UNL     1       1.298   3.024  19.496  0.00  0.00    +0.000 A 
ATOM      2  C   UNL     1       2.056   1.973  19.004  0.00  0.00    +0.000 A 
ATOM      3  C   UNL     1       3.013   2.234  18.028  0.00  0.00    +0.000 A 
ATOM      4  C   UNL     1       3.256   3.548  17.592  0.00  0.00    +0.000 A 
ATOM      5  C   UNL     1       2.601   4.630  18.218  0.00  0.00    +0.000 A 
ATOM      6  C   UNL     1       1.547   4.335  19.099  0.00  0.00    +0.000 A 
ATOM      7  C   UNL     1       3.052   6.080  17.964  0.00  0.00    +0.000 C 
ATOM      8  C   UNL     1       4.494   6.137  17.324  0.00  0.00    +0.000 C 
ATOM      9  C   UNL     1       4.488   5.196  16.112  0.00  0.00    +0.000 C 
ATOM     10  C   UNL     1       4.261   3.742  16.486  0.00  0.00    +0.000 C 
ENDROOT
BRANCH   8  11
ATOM     11  N   UNL     1       5.665   6.089  18.235  0.00  0.00    +0.000 NA
ATOM     12  C   UNL     1       6.780   6.960  17.839  0.00  0.00    +0.000 C 
ATOM     13  C   UNL     1       7.777   6.052  17.144  0.00  0.00    +0.000 C 
ATOM     14  C   UNL     1       7.628   4.735  17.881  0.00  0.00    +0.000 C 
ATOM     15  C   UNL     1       6.279   4.812  18.592  0.00  0.00    +0.000 C 
ENDBRANCH   8  11
BRANCH   1  16
ATOM     16  O   UNL     1       0.306   2.817  20.408  0.00  0.00    +0.000 OA
ATOM     17  H   UNL     1      -0.504   2.579  19.930  0.00  0.00    +0.000 HD
ENDBRANCH   1  16
BRANCH   7  18
ATOM     18  C   UNL     1       2.881   7.001  19.211  0.00  0.00    +0.000 C 
BRANCH  18  19
ATOM     19  C   UNL     1       1.925   8.176  19.159  0.00  0.00    +0.000 A 
ATOM     20  C   UNL     1       1.588   8.847  17.977  0.00  0.00    +0.000 A 
ATOM     21  C   UNL     1       0.701   9.929  17.995  0.00  0.00    +0.000 A 
ATOM     22  C   UNL     1       0.103  10.328  19.190  0.00  0.00    +0.000 A 
ATOM     23  C   UNL     1       0.387   9.629  20.353  0.00  0.00    +0.000 A 
ATOM     24  F   UNL     1      -0.209   9.985  21.497  0.00  0.00    +0.000 F 
ATOM     25  C   UNL     1       1.281   8.562  20.347  0.00  0.00    +0.000 A 
ENDBRANCH  18  19
ENDBRANCH   7  18
TORSDOF 4
ENDMDL
MODEL 2
REMARK VINA RESULT:      -7.7      0.996      1.414
REMARK  Name = 
REMARK  4 active torsions:
REMARK  status: ('A' for Active; 'I' for Inactive)
REMARK    1  A    between atoms: O_1  and  C_2
REMARK    2  A    between atoms: C_8  and  C_9
REMARK    3  A    between atoms: C_9  and  C_10
REMARK    4  A    between atoms: C_17  and  N_18
REMARK                            x       y       z     vdW  Elec       q    Type
REMARK                         _______ _______ _______ _____ _____    ______ ____
ROOT
ATOM      1  C   UNL     1       1.533   2.929  20.413  0.00  0.00    +0.000 A 
ATOM      2  C   UNL     1       2.197   1.861  19.831  0.00  0.00    +0.000 A 
ATOM      3  C   UNL     1       2.954   2.084  18.684  0.00  0.00    +0.000 A 
ATOM      4  C   UNL     1       3.099   3.380  18.159  0.00  0.00    +0.000 A 
ATOM      5  C   UNL     1       2.560   4.484  18.853  0.00  0.00    +0.000 A 
ATOM      6  C   UNL     1       1.691   4.223  19.925  0.00  0.00    +0.000 A 
ATOM      7  C   UNL     1       2.941   5.924  18.462  0.00  0.00    +0.000 C 
ATOM      8  C   UNL     1       4.239   5.959  17.564  0.00  0.00    +0.000 C 
ATOM      9  C   UNL     1       4.018   4.970  16.412  0.00  0.00    +0.000 C 
ATOM     10  C   UNL     1       3.879   3.531  16.879  0.00  0.00    +0.000 C 
ENDROOT
BRANCH   8  11
ATOM     11  N   UNL     1       5.558   5.951  18.242  0.00  0.00    +0.000 NA
ATOM     12  C   UNL     1       6.562   6.834  17.632  0.00  0.00    +0.000 C 
ATOM     13  C   UNL     1       7.433   5.931  16.780  0.00  0.00    +0.000 C 
ATOM     14  C   UNL     1       7.452   4.627  17.554  0.00  0.00    +0.000 C 
ATOM     15  C   UNL     1       6.256   4.694  18.502  0.00  0.00    +0.000 C 
ENDBRANCH   8  11
BRANCH   1  16
ATOM     16  O   UNL     1       0.730   2.757  21.500  0.00  0.00    +0.000 OA
ATOM     17  H   UNL     1       0.214   1.943  21.375  0.00  0.00    +0.000 HD
ENDBRANCH   1  16
BRANCH   7  18
ATOM     18  C   UNL     1       2.994   6.895  19.681  0.00  0.00    +0.000 C 
BRANCH  18  19
ATOM     19  C   UNL     1       1.873   7.888  19.908  0.00  0.00    +0.000 A 
ATOM     20  C   UNL     1       1.133   7.961  21.096  0.00  0.00    +0.000 A 
ATOM     21  C   UNL     1       0.104   8.899  21.242  0.00  0.00    +0.000 A 
ATOM     22  C   UNL     1      -0.170   9.807  20.221  0.00  0.00    +0.000 A 
ATOM     23  C   UNL     1       0.598   9.778  19.068  0.00  0.00    +0.000 A 
ATOM     24  F   UNL     1       0.362  10.669  18.097  0.00  0.00    +0.000 F 
ATOM     25  C   UNL     1       1.613   8.839  18.906  0.00  0.00    +0.000 A 
ENDBRANCH  18  19
ENDBRANCH   7  18
TORSDOF 4
ENDMDL
MODEL 3
REMARK VINA RESULT:      -7.5      2.476      4.267
REMARK  Name = 
REMARK  4 active torsions:
REMARK  status: ('A' for Active; 'I' for Inactive)
REMARK    1  A    between atoms: O_1  and  C_2
REMARK    2  A    between atoms: C_8  and  C_9
REMARK    3  A    between atoms: C_9  and  C_10
REMARK    4  A    between atoms: C_17  and  N_18
REMARK                            x       y       z     vdW  Elec       q    Type
REMARK                         _______ _______ _______ _____ _____    ______ ____
ROOT
ATOM      1  C   UNL     1       5.512   5.488  15.339  0.00  0.00    +0.000 A 
ATOM      2  C   UNL     1       5.768   4.135  15.494  0.00  0.00    +0.000 A 
ATOM      3  C   UNL     1       5.487   3.533  16.717  0.00  0.00    +0.000 A 
ATOM      4  C   UNL     1       4.894   4.266  17.760  0.00  0.00    +0.000 A 
ATOM      5  C   UNL     1       4.482   5.597  17.538  0.00  0.00    +0.000 A 
ATOM      6  C   UNL     1       4.896   6.222  16.350  0.00  0.00    +0.000 A 
ATOM      7  C   UNL     1       3.583   6.325  18.554  0.00  0.00    +0.000 C 
ATOM      8  C   UNL     1       2.892   5.312  19.549  0.00  0.00    +0.000 C 
ATOM      9  C   UNL     1       3.998   4.419  20.126  0.00  0.00    +0.000 C 
ATOM     10  C   UNL     1       4.682   3.562  19.075  0.00  0.00    +0.000 C 
ENDROOT
BRANCH   8  11
ATOM     11  N   UNL     1       1.629   4.663  19.119  0.00  0.00    +0.000 NA
ATOM     12  C   UNL     1       0.858   4.049  20.210  0.00  0.00    +0.000 C 
ATOM     13  C   UNL     1       1.182   2.569  20.152  0.00  0.00    +0.000 C 
ATOM     14  C   UNL     1       1.376   2.308  18.670  0.00  0.00    +0.000 C 
ATOM     15  C   UNL     1       1.627   3.677  18.041  0.00  0.00    +0.000 C 
ENDBRANCH   8  11
BRANCH   1  16
ATOM     16  O   UNL     1       5.824   6.141  14.184  0.00  0.00    +0.000 OA
ATOM     17  H   UNL     1       5.150   6.822  14.026  0.00  0.00    +0.000 HD
ENDBRANCH   1  16
BRANCH   7  18
ATOM     18  C   UNL     1       2.590   7.326  17.887  0.00  0.00    +0.000 C 
BRANCH  18  19
ATOM     19  C   UNL     1       1.950   8.422  18.714  0.00  0.00    +0.000 A 
ATOM     20  C   UNL     1       1.548   9.656  18.185  0.00  0.00    +0.000 A 
ATOM     21  C   UNL     1       0.966  10.630  19.003  0.00  0.00    +0.000 A 
ATOM     22  C   UNL     1       0.736  10.370  20.353  0.00  0.00    +0.000 A 
ATOM     23  C   UNL     1       1.078   9.129  20.868  0.00  0.00    +0.000 A 
ATOM     24  F   UNL     1       0.829   8.860  22.156  0.00  0.00    +0.000 F 
ATOM     25  C   UNL     1       1.672   8.159  20.066  0.00  0.00    +0.000 A 
ENDBRANCH  18  19
ENDBRANCH   7  18
TORSDOF 4
ENDMDL
MODEL 4
REMARK VINA RESULT:      -7.5      2.541      4.402
REMARK  Name = 
REMARK  4 active torsions:
REMARK  status: ('A' for Active; 'I' for Inactive)
REMARK    1  A    between atoms: O_1  and  C_2
REMARK    2  A    between atoms: C_8  and  C_9
REMARK    3  A    between atoms: C_9  and  C_10
REMARK    4  A    between atoms: C_17  and  N_18
REMARK                            x       y       z     vdW  Elec       q    Type
REMARK                         _______ _______ _______ _____ _____    ______ ____
ROOT
ATOM      1  C   UNL     1       5.554   5.445  15.364  0.00  0.00    +0.000 A 
ATOM      2  C   UNL     1       5.763   4.081  15.495  0.00  0.00    +0.000 A 
ATOM      3  C   UNL     1       5.457   3.468  16.707  0.00  0.00    +0.000 A 
ATOM      4  C   UNL     1       4.886   4.201  17.761  0.00  0.00    +0.000 A 
ATOM      5  C   UNL     1       4.520   5.550  17.562  0.00  0.00    +0.000 A 
ATOM      6  C   UNL     1       4.960   6.181  16.386  0.00  0.00    +0.000 A 
ATOM      7  C   UNL     1       3.642   6.289  18.588  0.00  0.00    +0.000 C 
ATOM      8  C   UNL     1       2.914   5.283  19.562  0.00  0.00    +0.000 C 
ATOM      9  C   UNL     1       3.987   4.342  20.127  0.00  0.00    +0.000 C 
ATOM     10  C   UNL     1       4.645   3.481  19.062  0.00  0.00    +0.000 C 
ENDROOT
BRANCH   8  11
ATOM     11  N   UNL     1       1.631   4.685  19.117  0.00  0.00    +0.000 NA
ATOM     12  C   UNL     1       0.847   4.057  20.189  0.00  0.00    +0.000 C 
ATOM     13  C   UNL     1       1.128   2.570  20.080  0.00  0.00    +0.000 C 
ATOM     14  C   UNL     1       1.309   2.354  18.589  0.00  0.00    +0.000 C 
ATOM     15  C   UNL     1       1.597   3.737  18.006  0.00  0.00    +0.000 C 
ENDBRANCH   8  11
BRANCH   1  16
ATOM     16  O   UNL     1       5.892   6.108  14.222  0.00  0.00    +0.000 OA
ATOM     17  H   UNL     1       5.168   6.713  13.994  0.00  0.00    +0.000 HD
ENDBRANCH   1  16
BRANCH   7  18
ATOM     18  C   UNL     1       2.687   7.335  17.936  0.00  0.00    +0.000 C 
BRANCH  18  19
ATOM     19  C   UNL     1       1.886   8.278  18.810  0.00  0.00    +0.000 A 
ATOM     20  C   UNL     1       1.777   8.139  20.200  0.00  0.00    +0.000 A 
ATOM     21  C   UNL     1       1.017   9.041  20.953  0.00  0.00    +0.000 A 
ATOM     22  C   UNL     1       0.391  10.121  20.333  0.00  0.00    +0.000 A 
ATOM     23  C   UNL     1       0.544  10.297  18.966  0.00  0.00    +0.000 A 
ATOM     24  F   UNL     1      -0.026  11.351  18.370  0.00  0.00    +0.000 F 
ATOM     25  C   UNL     1       1.285   9.396  18.207  0.00  0.00    +0.000 A 
ENDBRANCH  18  19
ENDBRANCH   7  18
TORSDOF 4
ENDMDL
MODEL 5
REMARK VINA RESULT:      -7.3      2.335      4.322
REMARK  Name = 
REMARK  4 active torsions:
REMARK  status: ('A' for Active; 'I' for Inactive)
REMARK    1  A    between atoms: O_1  and  C_2
REMARK    2  A    between atoms: C_8  and  C_9
REMARK    3  A    between atoms: C_9  and  C_10
REMARK    4  A    between atoms: C_17  and  N_18
REMARK                            x       y       z     vdW  Elec       q    Type
REMARK                         _______ _______ _______ _____ _____    ______ ____
ROOT
ATOM      1  C   UNL     1       6.789   6.374  17.372  0.00  0.00    +0.000 A 
ATOM      2  C   UNL     1       7.222   5.060  17.452  0.00  0.00    +0.000 A 
ATOM      3  C   UNL     1       6.508   4.164  18.241  0.00  0.00    +0.000 A 
ATOM      4  C   UNL     1       5.330   4.562  18.896  0.00  0.00    +0.000 A 
ATOM      5  C   UNL     1       4.804   5.852  18.674  0.00  0.00    +0.000 A 
ATOM      6  C   UNL     1       5.608   6.778  17.988  0.00  0.00    +0.000 A 
ATOM      7  C   UNL     1       3.383   6.217  19.143  0.00  0.00    +0.000 C 
ATOM      8  C   UNL     1       2.529   4.929  19.466  0.00  0.00    +0.000 C 
ATOM      9  C   UNL     1       3.364   4.059  20.415  0.00  0.00    +0.000 C 
ATOM     10  C   UNL     1       4.649   3.552  19.784  0.00  0.00    +0.000 C 
ENDROOT
BRANCH   8  11
ATOM     11  N   UNL     1       1.827   4.257  18.344  0.00  0.00    +0.000 NA
ATOM     12  C   UNL     1       0.852   3.238  18.759  0.00  0.00    +0.000 C 
ATOM     13  C   UNL     1       1.562   1.908  18.597  0.00  0.00    +0.000 C 
ATOM     14  C   UNL     1       2.464   2.133  17.398  0.00  0.00    +0.000 C 
ATOM     15  C   UNL     1       2.581   3.649  17.251  0.00  0.00    +0.000 C 
ENDBRANCH   8  11
BRANCH   1  16
ATOM     16  O   UNL     1       7.484   7.309  16.664  0.00  0.00    +0.000 OA
ATOM     17  H   UNL     1       7.828   6.889  15.859  0.00  0.00    +0.000 HD
ENDBRANCH   1  16
BRANCH   7  18
ATOM     18  C   UNL     1       2.665   7.225  18.194  0.00  0.00    +0.000 C 
BRANCH  18  19
ATOM     19  C   UNL     1       1.893   8.393  18.774  0.00  0.00    +0.000 A 
ATOM     20  C   UNL     1       1.440   9.476  18.010  0.00  0.00    +0.000 A 
ATOM     21  C   UNL     1       0.734  10.527  18.607  0.00  0.00    +0.000 A 
ATOM     22  C   UNL     1       0.433  10.490  19.967  0.00  0.00    +0.000 A 
ATOM     23  C   UNL     1       0.829   9.391  20.716  0.00  0.00    +0.000 A 
ATOM     24  F   UNL     1       0.514   9.333  22.016  0.00  0.00    +0.000 F 
ATOM     25  C   UNL     1       1.544   8.348  20.135  0.00  0.00    +0.000 A 
ENDBRANCH  18  19
ENDBRANCH   7  18
TORSDOF 4
ENDMDL
MODEL 6
REMARK VINA RESULT:      -7.2      1.038      1.468
REMARK  Name = 
REMARK  4 active torsions:
REMARK  status: ('A' for Active; 'I' for Inactive)
REMARK    1  A    between atoms: O_1  and  C_2
REMARK    2  A    between atoms: C_8  and  C_9
REMARK    3  A    between atoms: C_9  and  C_10
REMARK    4  A    between atoms: C_17  and  N_18
REMARK                            x       y       z     vdW  Elec       q    Type
REMARK                         _______ _______ _______ _____ _____    ______ ____
ROOT
ATOM      1  C   UNL     1       1.739   2.978  18.718  0.00  0.00    +0.000 A 
ATOM      2  C   UNL     1       2.564   2.140  17.985  0.00  0.00    +0.000 A 
ATOM      3  C   UNL     1       3.500   2.704  17.123  0.00  0.00    +0.000 A 
ATOM      4  C   UNL     1       3.654   4.099  17.041  0.00  0.00    +0.000 A 
ATOM      5  C   UNL     1       2.929   4.939  17.913  0.00  0.00    +0.000 A 
ATOM      6  C   UNL     1       1.899   4.360  18.673  0.00  0.00    +0.000 A 
ATOM      7  C   UNL     1       3.282   6.432  18.046  0.00  0.00    +0.000 C 
ATOM      8  C   UNL     1       4.716   6.744  17.463  0.00  0.00    +0.000 C 
ATOM      9  C   UNL     1       4.770   6.148  16.051  0.00  0.00    +0.000 C 
ATOM     10  C   UNL     1       4.642   4.634  16.037  0.00  0.00    +0.000 C 
ENDROOT
BRANCH   8  11
ATOM     11  N   UNL     1       5.889   6.541  18.349  0.00  0.00    +0.000 NA
ATOM     12  C   UNL     1       7.189   6.720  17.689  0.00  0.00    +0.000 C 
ATOM     13  C   UNL     1       7.678   5.320  17.371  0.00  0.00    +0.000 C 
ATOM     14  C   UNL     1       7.143   4.489  18.521  0.00  0.00    +0.000 C 
ATOM     15  C   UNL     1       6.021   5.320  19.141  0.00  0.00    +0.000 C 
ENDBRANCH   8  11
BRANCH   1  16
ATOM     16  O   UNL     1       0.765   2.480  19.531  0.00  0.00    +0.000 OA
ATOM     17  H   UNL     1       0.138   3.195  19.731  0.00  0.00    +0.000 HD
ENDBRANCH   1  16
BRANCH   7  18
ATOM     18  C   UNL     1       3.052   6.990  19.483  0.00  0.00    +0.000 C 
BRANCH  18  19
ATOM     19  C   UNL     1       1.918   7.959  19.747  0.00  0.00    +0.000 A 
ATOM     20  C   UNL     1       1.245   8.048  20.972  0.00  0.00    +0.000 A 
ATOM     21  C   UNL     1       0.201   8.963  21.152  0.00  0.00    +0.000 A 
ATOM     22  C   UNL     1      -0.156   9.833  20.123  0.00  0.00    +0.000 A 
ATOM     23  C   UNL     1       0.546   9.790  18.929  0.00  0.00    +0.000 A 
ATOM     24  F   UNL     1       0.231  10.646  17.948  0.00  0.00    +0.000 F 
ATOM     25  C   UNL     1       1.575   8.873  18.735  0.00  0.00    +0.000 A 
ENDBRANCH  18  19
ENDBRANCH   7  18
TORSDOF 4
ENDMDL
MODEL 7
REMARK VINA RESULT:      -7.2      3.507      7.784
REMARK  Name = 
REMARK  4 active torsions:
REMARK  status: ('A' for Active; 'I' for Inactive)
REMARK    1  A    between atoms: O_1  and  C_2
REMARK    2  A    between atoms: C_8  and  C_9
REMARK    3  A    between atoms: C_9  and  C_10
REMARK    4  A    between atoms: C_17  and  N_18
REMARK                            x       y       z     vdW  Elec       q    Type
REMARK                         _______ _______ _______ _____ _____    ______ ____
ROOT
ATOM      1  C   UNL     1      -2.480  10.193  16.695  0.00  0.00    +0.000 A 
ATOM      2  C   UNL     1      -3.194  11.293  17.143  0.00  0.00    +0.000 A 
ATOM      3  C   UNL     1      -2.854  11.863  18.366  0.00  0.00    +0.000 A 
ATOM      4  C   UNL     1      -1.764  11.376  19.107  0.00  0.00    +0.000 A 
ATOM      5  C   UNL     1      -0.939  10.367  18.566  0.00  0.00    +0.000 A 
ATOM      6  C   UNL     1      -1.379   9.717  17.400  0.00  0.00    +0.000 A 
ATOM      7  C   UNL     1       0.412  10.017  19.217  0.00  0.00    +0.000 C 
ATOM      8  C   UNL     1       0.890  11.150  20.208  0.00  0.00    +0.000 C 
ATOM      9  C   UNL     1      -0.277  11.441  21.160  0.00  0.00    +0.000 C 
ATOM     10  C   UNL     1      -1.499  12.002  20.452  0.00  0.00    +0.000 C 
ENDROOT
BRANCH   8  11
ATOM     11  N   UNL     1       1.630  12.306  19.643  0.00  0.00    +0.000 NA
ATOM     12  C   UNL     1       2.105  13.273  20.642  0.00  0.00    +0.000 C 
ATOM     13  C   UNL     1       1.098  14.406  20.620  0.00  0.00    +0.000 C 
ATOM     14  C   UNL     1       0.660  14.461  19.169  0.00  0.00    +0.000 C 
ATOM     15  C   UNL     1       1.049  13.110  18.571  0.00  0.00    +0.000 C 
ENDBRANCH   8  11
BRANCH   1  16
ATOM     16  O   UNL     1      -2.809   9.558  15.534  0.00  0.00    +0.000 OA
ATOM     17  H   UNL     1      -2.157   9.800  14.857  0.00  0.00    +0.000 HD
ENDBRANCH   1  16
BRANCH   7  18
ATOM     18  C   UNL     1       1.497   9.587  18.184  0.00  0.00    +0.000 C 
BRANCH  18  19
ATOM     19  C   UNL     1       2.232   8.274  18.359  0.00  0.00    +0.000 A 
ATOM     20  C   UNL     1       3.243   7.832  17.496  0.00  0.00    +0.000 A 
ATOM     21  C   UNL     1       3.881   6.605  17.710  0.00  0.00    +0.000 A 
ATOM     22  C   UNL     1       3.549   5.822  18.814  0.00  0.00    +0.000 A 
ATOM     23  C   UNL     1       2.590   6.283  19.704  0.00  0.00    +0.000 A 
ATOM     24  F   UNL     1       2.291   5.552  20.785  0.00  0.00    +0.000 F 
ATOM     25  C   UNL     1       1.939   7.494  19.492  0.00  0.00    +0.000 A 
ENDBRANCH  18  19
ENDBRANCH   7  18
TORSDOF 4
ENDMDL
MODEL 8
REMARK VINA RESULT:      -7.1      3.709      7.931
REMARK  Name = 
REMARK  4 active torsions:
REMARK  status: ('A' for Active; 'I' for Inactive)
REMARK    1  A    between atoms: O_1  and  C_2
REMARK    2  A    between atoms: C_8  and  C_9
REMARK    3  A    between atoms: C_9  and  C_10
REMARK    4  A    between atoms: C_17  and  N_18
REMARK                            x       y       z     vdW  Elec       q    Type
REMARK                         _______ _______ _______ _____ _____    ______ ____
ROOT
ATOM      1  C   UNL     1      -2.483  10.177  16.689  0.00  0.00    +0.000 A 
ATOM      2  C   UNL     1      -3.192  11.284  17.127  0.00  0.00    +0.000 A 
ATOM      3  C   UNL     1      -2.856  11.857  18.350  0.00  0.00    +0.000 A 
ATOM      4  C   UNL     1      -1.774  11.365  19.101  0.00  0.00    +0.000 A 
ATOM      5  C   UNL     1      -0.953  10.349  18.569  0.00  0.00    +0.000 A 
ATOM      6  C   UNL     1      -1.389   9.697  17.404  0.00  0.00    +0.000 A 
ATOM      7  C   UNL     1       0.391   9.992  19.231  0.00  0.00    +0.000 C 
ATOM      8  C   UNL     1       0.871  11.125  20.220  0.00  0.00    +0.000 C 
ATOM      9  C   UNL     1      -0.301  11.429  21.163  0.00  0.00    +0.000 C 
ATOM     10  C   UNL     1      -1.514  11.996  20.445  0.00  0.00    +0.000 C 
ENDROOT
BRANCH   8  11
ATOM     11  N   UNL     1       1.623  12.273  19.655  0.00  0.00    +0.000 NA
ATOM     12  C   UNL     1       2.053  13.267  20.648  0.00  0.00    +0.000 C 
ATOM     13  C   UNL     1       1.040  14.392  20.563  0.00  0.00    +0.000 C 
ATOM     14  C   UNL     1       0.656  14.409  19.095  0.00  0.00    +0.000 C 
ATOM     15  C   UNL     1       1.075  13.048  18.544  0.00  0.00    +0.000 C 
ENDBRANCH   8  11
BRANCH   1  16
ATOM     16  O   UNL     1      -2.809   9.540  15.528  0.00  0.00    +0.000 OA
ATOM     17  H   UNL     1      -2.516   8.617  15.593  0.00  0.00    +0.000 HD
ENDBRANCH   1  16
BRANCH   7  18
ATOM     18  C   UNL     1       1.480   9.550  18.206  0.00  0.00    +0.000 C 
BRANCH  18  19
ATOM     19  C   UNL     1       2.255   8.267  18.431  0.00  0.00    +0.000 A 
ATOM     20  C   UNL     1       2.052   7.424  19.531  0.00  0.00    +0.000 A 
ATOM     21  C   UNL     1       2.804   6.253  19.684  0.00  0.00    +0.000 A 
ATOM     22  C   UNL     1       3.738   5.886  18.717  0.00  0.00    +0.000 A 
ATOM     23  C   UNL     1       3.900   6.687  17.597  0.00  0.00    +0.000 A 
ATOM     24  F   UNL     1       4.772   6.323  16.648  0.00  0.00    +0.000 F 
ATOM     25  C   UNL     1       3.169   7.861  17.443  0.00  0.00    +0.000 A 
ENDBRANCH  18  19
ENDBRANCH   7  18
TORSDOF 4
ENDMDL
MODEL 9
REMARK VINA RESULT:      -7.1      2.754      5.784
REMARK  Name = 
REMARK  4 active torsions:
REMARK  status: ('A' for Active; 'I' for Inactive)
REMARK    1  A    between atoms: O_1  and  C_2
REMARK    2  A    between atoms: C_8  and  C_9
REMARK    3  A    between atoms: C_9  and  C_10
REMARK    4  A    between atoms: C_17  and  N_18
REMARK                            x       y       z     vdW  Elec       q    Type
REMARK                         _______ _______ _______ _____ _____    ______ ____
ROOT
ATOM      1  C   UNL     1       2.085   2.743  18.237  0.00  0.00    +0.000 A 
ATOM      2  C   UNL     1       0.960   2.698  19.046  0.00  0.00    +0.000 A 
ATOM      3  C   UNL     1       0.726   3.746  19.931  0.00  0.00    +0.000 A 
ATOM      4  C   UNL     1       1.578   4.864  19.964  0.00  0.00    +0.000 A 
ATOM      5  C   UNL     1       2.623   4.980  19.022  0.00  0.00    +0.000 A 
ATOM      6  C   UNL     1       2.921   3.856  18.234  0.00  0.00    +0.000 A 
ATOM      7  C   UNL     1       3.385   6.306  18.847  0.00  0.00    +0.000 C 
ATOM      8  C   UNL     1       2.600   7.516  19.489  0.00  0.00    +0.000 C 
ATOM      9  C   UNL     1       2.243   7.113  20.926  0.00  0.00    +0.000 C 
ATOM     10  C   UNL     1       1.297   5.926  20.995  0.00  0.00    +0.000 C 
ENDROOT
BRANCH   8  11
ATOM     11  N   UNL     1       1.553   8.181  18.674  0.00  0.00    +0.000 NA
ATOM     12  C   UNL     1       2.069   8.981  17.555  0.00  0.00    +0.000 C 
ATOM     13  C   UNL     1       2.052  10.418  18.041  0.00  0.00    +0.000 C 
ATOM     14  C   UNL     1       0.840  10.468  18.951  0.00  0.00    +0.000 C 
ATOM     15  C   UNL     1       0.533   9.014  19.307  0.00  0.00    +0.000 C 
ENDBRANCH   8  11
BRANCH   1  16
ATOM     16  O   UNL     1       2.394   1.716  17.396  0.00  0.00    +0.000 OA
ATOM     17  H   UNL     1       3.142   1.225  17.774  0.00  0.00    +0.000 HD
ENDBRANCH   1  16
BRANCH   7  18
ATOM     18  C   UNL     1       3.840   6.562  17.378  0.00  0.00    +0.000 C 
BRANCH  18  19
ATOM     19  C   UNL     1       5.040   5.825  16.818  0.00  0.00    +0.000 A 
ATOM     20  C   UNL     1       5.212   5.551  15.455  0.00  0.00    +0.000 A 
ATOM     21  C   UNL     1       6.342   4.861  15.000  0.00  0.00    +0.000 A 
ATOM     22  C   UNL     1       7.337   4.474  15.896  0.00  0.00    +0.000 A 
ATOM     23  C   UNL     1       7.199   4.794  17.238  0.00  0.00    +0.000 A 
ATOM     24  F   UNL     1       8.167   4.455  18.099  0.00  0.00    +0.000 F 
ATOM     25  C   UNL     1       6.072   5.466  17.702  0.00  0.00    +0.000 A 
ENDBRANCH  18  19
ENDBRANCH   7  18
TORSDOF 4
ENDMDL
