MODEL 1
REMARK VINA RESULT:      -8.8      0.000      0.000
REMARK  Name = 
REMARK  11 active torsions:
REMARK  status: ('A' for Active; 'I' for Inactive)
REMARK    1  A    between atoms: C_1  and  C_2
REMARK    2  A    between atoms: N_4  and  C1*_5
REMARK    3  A    between atoms: C4*_7  and  C5*_8
REMARK    4  A    between atoms: C5*_8  and  O5*_9
REMARK    5  A    between atoms: C3*_10  and  O3*_11
REMARK    6  A    between atoms: C2*_12  and  O2*_13
REMARK    7  A    between atoms: N_16  and  C_17
REMARK    8  A    between atoms: C_17  and  C_18
REMARK    9  A    between atoms: C_18  and  O_20
REMARK   10  A    between atoms: O_20  and  C_21
REMARK   11  A    between atoms: C_21  and  C_22
REMARK                            x       y       z     vdW  Elec       q    Type
REMARK                         _______ _______ _______ _____ _____    ______ ____
ROOT
ATOM      1  C   UNL     1       6.270   3.732  14.087  0.00  0.00    +0.000 C 
ATOM      2  C   UNL     1       5.954   4.183  15.475  0.00  0.00    +0.000 A 
ATOM      3  C   UNL     1       4.937   3.741  16.208  0.00  0.00    +0.000 A 
ATOM      4  N   UNL     1       4.709   4.180  17.493  0.00  0.00    +0.000 N 
ATOM      5  C   UNL     1       5.577   5.056  18.146  0.00  0.00    +0.000 A 
ATOM      6  O   UNL     1       5.399   5.425  19.300  0.00  0.00    +0.000 OA
ATOM      7  N   UNL     1       6.674   5.487  17.409  0.00  0.00    +0.000 N 
ATOM      8  C   UNL     1       6.823   5.231  16.062  0.00  0.00    +0.000 A 
ATOM      9  O   UNL     1       7.621   5.831  15.338  0.00  0.00    +0.000 OA
ENDROOT
BRANCH   4  10
ATOM     10  C1* UNL     1       3.593   3.586  18.229  0.00  0.00    +0.000 C 
ATOM     11  O4* UNL     1       2.560   4.550  18.470  0.00  0.00    +0.000 OA
ATOM     12  C4* UNL     1       1.995   4.283  19.781  0.00  0.00    +0.000 C 
ATOM     13  C3* UNL     1       2.643   2.992  20.298  0.00  0.00    +0.000 C 
ATOM     14  C2* UNL     1       3.971   2.938  19.564  0.00  0.00    +0.000 C 
BRANCH  13  15
ATOM     15  O3* UNL     1       1.882   1.825  19.923  0.00  0.00    +0.000 OA
ATOM     16  H3* UNL     1       1.598   1.354  20.727  0.00  0.00    +0.000 HD
ENDBRANCH  13  15
BRANCH  14  17
ATOM     17  O2* UNL     1       4.449   1.602  19.386  0.00  0.00    +0.000 OA
ATOM     18  H2* UNL     1       5.381   1.602  19.686  0.00  0.00    +0.000 HD
ENDBRANCH  14  17
BRANCH  12  19
ATOM     19  C5* UNL     1       2.252   5.498  20.675  0.00  0.00    +0.000 C 
BRANCH  19  20
ATOM     20  O5* UNL     1       2.834   6.559  19.915  0.00  0.00    +0.000 OA
ATOM     21  H5* UNL     1       3.745   6.664  20.249  0.00  0.00    +0.000 HD
ENDBRANCH  19  20
ENDBRANCH  12  19
ENDBRANCH   4  10
BRANCH   7  22
ATOM     22  C   UNL     1       7.648   6.358  18.074  0.00  0.00    +0.000 C 
BRANCH  22  23
ATOM     23  C   UNL     1       7.579   7.853  17.805  0.00  0.00    +0.000 C 
ATOM     24  O   UNL     1       6.673   8.356  17.130  0.00  0.00    +0.000 OA
BRANCH  23  25
ATOM     25  O   UNL     1       8.567   8.574  18.403  0.00  0.00    +0.000 OA
BRANCH  25  26
ATOM     26  C   UNL     1       8.566   9.958  18.008  0.00  0.00    +0.000 C 
BRANCH  26  27
ATOM     27  C   UNL     1       9.588  10.738  18.791  0.00  0.00    +0.000 A 
ATOM     28  C   UNL     1       9.434  10.948  20.167  0.00  0.00    +0.000 A 
ATOM     29  C   UNL     1      10.362  11.718  20.871  0.00  0.00    +0.000 A 
ATOM     30  C   UNL     1      11.458  12.265  20.202  0.00  0.00    +0.000 A 
ATOM     31  C   UNL     1      11.626  12.040  18.836  0.00  0.00    +0.000 A 
ATOM     32  C   UNL     1      10.696  11.280  18.133  0.00  0.00    +0.000 A 
ENDBRANCH  26  27
ENDBRANCH  25  26
ENDBRANCH  23  25
ENDBRANCH  22  23
ENDBRANCH   7  22
TORSDOF 10
ENDMDL
MODEL 2
REMARK VINA RESULT:      -8.3      1.109      1.897
REMARK  Name = 
REMARK  11 active torsions:
REMARK  status: ('A' for Active; 'I' for Inactive)
REMARK    1  A    between atoms: C_1  and  C_2
REMARK    2  A    between atoms: N_4  and  C1*_5
REMARK    3  A    between atoms: C4*_7  and  C5*_8
REMARK    4  A    between atoms: C5*_8  and  O5*_9
REMARK    5  A    between atoms: C3*_10  and  O3*_11
REMARK    6  A    between atoms: C2*_12  and  O2*_13
REMARK    7  A    between atoms: N_16  and  C_17
REMARK    8  A    between atoms: C_17  and  C_18
REMARK    9  A    between atoms: C_18  and  O_20
REMARK   10  A    between atoms: O_20  and  C_21
REMARK   11  A    between atoms: C_21  and  C_22
REMARK                            x       y       z     vdW  Elec       q    Type
REMARK                         _______ _______ _______ _____ _____    ______ ____
ROOT
ATOM      1  C   UNL     1       5.842   3.558  14.863  0.00  0.00    +0.000 C 
ATOM      2  C   UNL     1       5.829   4.188  16.217  0.00  0.00    +0.000 A 
ATOM      3  C   UNL     1       4.986   3.872  17.196  0.00  0.00    +0.000 A 
ATOM      4  N   UNL     1       5.036   4.474  18.434  0.00  0.00    +0.000 N 
ATOM      5  C   UNL     1       6.027   5.397  18.773  0.00  0.00    +0.000 A 
ATOM      6  O   UNL     1       6.097   5.911  19.882  0.00  0.00    +0.000 OA
ATOM      7  N   UNL     1       6.946   5.698  17.775  0.00  0.00    +0.000 N 
ATOM      8  C   UNL     1       6.807   5.272  16.471  0.00  0.00    +0.000 A 
ATOM      9  O   UNL     1       7.437   5.752  15.525  0.00  0.00    +0.000 OA
ENDROOT
BRANCH   4  10
ATOM     10  C1* UNL     1       4.098   4.012  19.456  0.00  0.00    +0.000 C 
ATOM     11  O4* UNL     1       3.710   2.651  19.226  0.00  0.00    +0.000 OA
ATOM     12  C4* UNL     1       2.313   2.515  19.597  0.00  0.00    +0.000 C 
ATOM     13  C3* UNL     1       1.877   3.850  20.215  0.00  0.00    +0.000 C 
ATOM     14  C2* UNL     1       2.830   4.858  19.600  0.00  0.00    +0.000 C 
BRANCH  13  15
ATOM     15  O3* UNL     1       2.076   3.866  21.644  0.00  0.00    +0.000 OA
ATOM     16  H3* UNL     1       2.598   3.086  21.904  0.00  0.00    +0.000 HD
ENDBRANCH  13  15
BRANCH  14  17
ATOM     17  O2* UNL     1       3.047   5.995  20.440  0.00  0.00    +0.000 OA
ATOM     18  H2* UNL     1       2.186   6.457  20.503  0.00  0.00    +0.000 HD
ENDBRANCH  14  17
BRANCH  12  19
ATOM     19  C5* UNL     1       1.517   2.129  18.348  0.00  0.00    +0.000 C 
BRANCH  19  20
ATOM     20  O5* UNL     1       2.400   1.721  17.302  0.00  0.00    +0.000 OA
ATOM     21  H5* UNL     1       1.854   1.657  16.495  0.00  0.00    +0.000 HD
ENDBRANCH  19  20
ENDBRANCH  12  19
ENDBRANCH   4  10
BRANCH   7  22
ATOM     22  C   UNL     1       8.042   6.613  18.106  0.00  0.00    +0.000 C 
BRANCH  22  23
ATOM     23  C   UNL     1       7.870   8.089  17.785  0.00  0.00    +0.000 C 
ATOM     24  O   UNL     1       7.040   8.487  16.959  0.00  0.00    +0.000 OA
BRANCH  23  25
ATOM     25  O   UNL     1       8.671   8.916  18.511  0.00  0.00    +0.000 OA
BRANCH  25  26
ATOM     26  C   UNL     1       8.556  10.296  18.116  0.00  0.00    +0.000 C 
BRANCH  26  27
ATOM     27  C   UNL     1       9.696  11.107  18.670  0.00  0.00    +0.000 A 
ATOM     28  C   UNL     1      10.097  10.967  20.004  0.00  0.00    +0.000 A 
ATOM     29  C   UNL     1      11.120  11.765  20.521  0.00  0.00    +0.000 A 
ATOM     30  C   UNL     1      11.758  12.693  19.696  0.00  0.00    +0.000 A 
ATOM     31  C   UNL     1      11.376  12.820  18.361  0.00  0.00    +0.000 A 
ATOM     32  C   UNL     1      10.350  12.032  17.849  0.00  0.00    +0.000 A 
ENDBRANCH  26  27
ENDBRANCH  25  26
ENDBRANCH  23  25
ENDBRANCH  22  23
ENDBRANCH   7  22
TORSDOF 10
ENDMDL
MODEL 3
REMARK VINA RESULT:      -8.0      0.866      1.166
REMARK  Name = 
REMARK  11 active torsions:
REMARK  status: ('A' for Active; 'I' for Inactive)
REMARK    1  A    between atoms: C_1  and  C_2
REMARK    2  A    between atoms: N_4  and  C1*_5
REMARK    3  A    between atoms: C4*_7  and  C5*_8
REMARK    4  A    between atoms: C5*_8  and  O5*_9
REMARK    5  A    between atoms: C3*_10  and  O3*_11
REMARK    6  A    between atoms: C2*_12  and  O2*_13
REMARK    7  A    between atoms: N_16  and  C_17
REMARK    8  A    between atoms: C_17  and  C_18
REMARK    9  A    between atoms: C_18  and  O_20
REMARK   10  A    between atoms: O_20  and  C_21
REMARK   11  A    between atoms: C_21  and  C_22
REMARK                            x       y       z     vdW  Elec       q    Type
REMARK                         _______ _______ _______ _____ _____    ______ ____
ROOT
ATOM      1  C   UNL     1       6.338   3.729  13.674  0.00  0.00    +0.000 C 
ATOM      2  C   UNL     1       5.961   4.147  15.058  0.00  0.00    +0.000 A 
ATOM      3  C   UNL     1       4.910   3.692  15.731  0.00  0.00    +0.000 A 
ATOM      4  N   UNL     1       4.624   4.100  17.016  0.00  0.00    +0.000 N 
ATOM      5  C   UNL     1       5.465   4.955  17.729  0.00  0.00    +0.000 A 
ATOM      6  O   UNL     1       5.235   5.296  18.882  0.00  0.00    +0.000 OA
ATOM      7  N   UNL     1       6.596   5.398  17.054  0.00  0.00    +0.000 N 
ATOM      8  C   UNL     1       6.806   5.175  15.710  0.00  0.00    +0.000 A 
ATOM      9  O   UNL     1       7.639   5.789  15.038  0.00  0.00    +0.000 OA
ENDROOT
BRANCH   4  10
ATOM     10  C1* UNL     1       3.474   3.493  17.685  0.00  0.00    +0.000 C 
ATOM     11  O4* UNL     1       2.580   4.495  18.188  0.00  0.00    +0.000 OA
ATOM     12  C4* UNL     1       2.039   4.020  19.449  0.00  0.00    +0.000 C 
ATOM     13  C3* UNL     1       2.541   2.583  19.643  0.00  0.00    +0.000 C 
ATOM     14  C2* UNL     1       3.821   2.536  18.828  0.00  0.00    +0.000 C 
BRANCH  13  15
ATOM     15  O3* UNL     1       1.625   1.618  19.085  0.00  0.00    +0.000 OA
ATOM     16  H3* UNL     1       0.788   1.644  19.584  0.00  0.00    +0.000 HD
ENDBRANCH  13  15
BRANCH  14  17
ATOM     17  O2* UNL     1       4.119   1.224  18.345  0.00  0.00    +0.000 OA
ATOM     18  H2* UNL     1       3.300   0.896  17.918  0.00  0.00    +0.000 HD
ENDBRANCH  14  17
BRANCH  12  19
ATOM     19  C5* UNL     1       2.483   4.978  20.557  0.00  0.00    +0.000 C 
BRANCH  19  20
ATOM     20  O5* UNL     1       2.857   6.240  20.002  0.00  0.00    +0.000 OA
ATOM     21  H5* UNL     1       3.020   6.081  19.052  0.00  0.00    +0.000 HD
ENDBRANCH  19  20
ENDBRANCH  12  19
ENDBRANCH   4  10
BRANCH   7  22
ATOM     22  C   UNL     1       7.542   6.247  17.785  0.00  0.00    +0.000 C 
BRANCH  22  23
ATOM     23  C   UNL     1       7.444   7.754  17.607  0.00  0.00    +0.000 C 
ATOM     24  O   UNL     1       6.364   8.319  17.397  0.00  0.00    +0.000 OA
BRANCH  23  25
ATOM     25  O   UNL     1       8.629   8.411  17.741  0.00  0.00    +0.000 OA
BRANCH  25  26
ATOM     26  C   UNL     1       8.661   9.276  18.891  0.00  0.00    +0.000 C 
BRANCH  26  27
ATOM     27  C   UNL     1       9.227  10.624  18.529  0.00  0.00    +0.000 A 
ATOM     28  C   UNL     1      10.530  10.980  18.897  0.00  0.00    +0.000 A 
ATOM     29  C   UNL     1      11.023  12.252  18.603  0.00  0.00    +0.000 A 
ATOM     30  C   UNL     1      10.218  13.166  17.921  0.00  0.00    +0.000 A 
ATOM     31  C   UNL     1       8.928  12.808  17.534  0.00  0.00    +0.000 A 
ATOM     32  C   UNL     1       8.433  11.543  17.836  0.00  0.00    +0.000 A 
ENDBRANCH  26  27
ENDBRANCH  25  26
ENDBRANCH  23  25
ENDBRANCH  22  23
ENDBRANCH   7  22
TORSDOF 10
ENDMDL
MODEL 4
REMARK VINA RESULT:      -8.0      1.134      1.302
REMARK  Name = 
REMARK  11 active torsions:
REMARK  status: ('A' for Active; 'I' for Inactive)
REMARK    1  A    between atoms: C_1  and  C_2
REMARK    2  A    between atoms: N_4  and  C1*_5
REMARK    3  A    between atoms: C4*_7  and  C5*_8
REMARK    4  A    between atoms: C5*_8  and  O5*_9
REMARK    5  A    between atoms: C3*_10  and  O3*_11
REMARK    6  A    between atoms: C2*_12  and  O2*_13
REMARK    7  A    between atoms: N_16  and  C_17
REMARK    8  A    between atoms: C_17  and  C_18
REMARK    9  A    between atoms: C_18  and  O_20
REMARK   10  A    between atoms: O_20  and  C_21
REMARK   11  A    between atoms: C_21  and  C_22
REMARK                            x       y       z     vdW  Elec       q    Type
REMARK                         _______ _______ _______ _____ _____    ______ ____
ROOT
ATOM      1  C   UNL     1       6.248   3.767  13.856  0.00  0.00    +0.000 C 
ATOM      2  C   UNL     1       5.660   4.258  15.138  0.00  0.00    +0.000 A 
ATOM      3  C   UNL     1       4.631   3.700  15.767  0.00  0.00    +0.000 A 
ATOM      4  N   UNL     1       4.144   4.187  16.961  0.00  0.00    +0.000 N 
ATOM      5  C   UNL     1       4.750   5.248  17.634  0.00  0.00    +0.000 A 
ATOM      6  O   UNL     1       4.344   5.665  18.711  0.00  0.00    +0.000 OA
ATOM      7  N   UNL     1       5.860   5.809  17.012  0.00  0.00    +0.000 N 
ATOM      8  C   UNL     1       6.249   5.483  15.730  0.00  0.00    +0.000 A 
ATOM      9  O   UNL     1       7.037   6.158  15.064  0.00  0.00    +0.000 OA
ENDROOT
BRANCH   4  10
ATOM     10  C1* UNL     1       3.043   3.463  17.595  0.00  0.00    +0.000 C 
ATOM     11  O4* UNL     1       2.000   4.359  18.002  0.00  0.00    +0.000 OA
ATOM     12  C4* UNL     1       1.451   3.868  19.253  0.00  0.00    +0.000 C 
ATOM     13  C3* UNL     1       2.120   2.517  19.542  0.00  0.00    +0.000 C 
ATOM     14  C2* UNL     1       3.442   2.606  18.799  0.00  0.00    +0.000 C 
BRANCH  13  15
ATOM     15  O3* UNL     1       1.370   1.420  18.982  0.00  0.00    +0.000 OA
ATOM     16  H3* UNL     1       1.327   0.695  19.632  0.00  0.00    +0.000 HD
ENDBRANCH  13  15
BRANCH  14  17
ATOM     17  O2* UNL     1       3.934   1.325  18.396  0.00  0.00    +0.000 OA
ATOM     18  H2* UNL     1       3.740   0.712  19.135  0.00  0.00    +0.000 HD
ENDBRANCH  14  17
BRANCH  12  19
ATOM     19  C5* UNL     1       1.702   4.920  20.336  0.00  0.00    +0.000 C 
BRANCH  19  20
ATOM     20  O5* UNL     1       2.264   4.310  21.500  0.00  0.00    +0.000 OA
ATOM     21  H5* UNL     1       1.551   3.771  21.894  0.00  0.00    +0.000 HD
ENDBRANCH  19  20
ENDBRANCH  12  19
ENDBRANCH   4  10
BRANCH   7  22
ATOM     22  C   UNL     1       6.568   6.885  17.713  0.00  0.00    +0.000 C 
BRANCH  22  23
ATOM     23  C   UNL     1       7.777   6.519  18.559  0.00  0.00    +0.000 C 
ATOM     24  O   UNL     1       7.999   5.357  18.917  0.00  0.00    +0.000 OA
BRANCH  23  25
ATOM     25  O   UNL     1       8.598   7.568  18.843  0.00  0.00    +0.000 OA
BRANCH  25  26
ATOM     26  C   UNL     1       8.261   8.757  18.104  0.00  0.00    +0.000 C 
BRANCH  26  27
ATOM     27  C   UNL     1       9.025   9.944  18.627  0.00  0.00    +0.000 A 
ATOM     28  C   UNL     1       9.115  10.195  20.001  0.00  0.00    +0.000 A 
ATOM     29  C   UNL     1       9.781  11.329  20.469  0.00  0.00    +0.000 A 
ATOM     30  C   UNL     1      10.375  12.207  19.562  0.00  0.00    +0.000 A 
ATOM     31  C   UNL     1      10.307  11.950  18.193  0.00  0.00    +0.000 A 
ATOM     32  C   UNL     1       9.634  10.824  17.726  0.00  0.00    +0.000 A 
ENDBRANCH  26  27
ENDBRANCH  25  26
ENDBRANCH  23  25
ENDBRANCH  22  23
ENDBRANCH   7  22
TORSDOF 10
ENDMDL
MODEL 5
REMARK VINA RESULT:      -8.0      0.753      1.052
REMARK  Name = 
REMARK  11 active torsions:
REMARK  status: ('A' for Active; 'I' for Inactive)
REMARK    1  A    between atoms: C_1  and  C_2
REMARK    2  A    between atoms: N_4  and  C1*_5
REMARK    3  A    between atoms: C4*_7  and  C5*_8
REMARK    4  A    between atoms: C5*_8  and  O5*_9
REMARK    5  A    between atoms: C3*_10  and  O3*_11
REMARK    6  A    between atoms: C2*_12  and  O2*_13
REMARK    7  A    between atoms: N_16  and  C_17
REMARK    8  A    between atoms: C_17  and  C_18
REMARK    9  A    between atoms: C_18  and  O_20
REMARK   10  A    between atoms: O_20  and  C_21
REMARK   11  A    between atoms: C_21  and  C_22
REMARK                            x       y       z     vdW  Elec       q    Type
REMARK                         _______ _______ _______ _____ _____    ______ ____
ROOT
ATOM      1  C   UNL     1       6.307   3.902  14.158  0.00  0.00    +0.000 C 
ATOM      2  C   UNL     1       5.983   4.331  15.552  0.00  0.00    +0.000 A 
ATOM      3  C   UNL     1       4.949   3.893  16.263  0.00  0.00    +0.000 A 
ATOM      4  N   UNL     1       4.713   4.310  17.554  0.00  0.00    +0.000 N 
ATOM      5  C   UNL     1       5.588   5.157  18.235  0.00  0.00    +0.000 A 
ATOM      6  O   UNL     1       5.402   5.506  19.393  0.00  0.00    +0.000 OA
ATOM      7  N   UNL     1       6.702   5.582  17.519  0.00  0.00    +0.000 N 
ATOM      8  C   UNL     1       6.863   5.350  16.170  0.00  0.00    +0.000 A 
ATOM      9  O   UNL     1       7.681   5.950  15.467  0.00  0.00    +0.000 OA
ENDROOT
BRANCH   4  10
ATOM     10  C1* UNL     1       3.578   3.722  18.264  0.00  0.00    +0.000 C 
ATOM     11  O4* UNL     1       2.490   4.651  18.362  0.00  0.00    +0.000 OA
ATOM     12  C4* UNL     1       1.852   4.459  19.653  0.00  0.00    +0.000 C 
ATOM     13  C3* UNL     1       2.520   3.244  20.311  0.00  0.00    +0.000 C 
ATOM     14  C2* UNL     1       3.894   3.198  19.667  0.00  0.00    +0.000 C 
BRANCH  13  15
ATOM     15  O3* UNL     1       1.835   2.017  19.983  0.00  0.00    +0.000 OA
ATOM     16  H3* UNL     1       1.037   1.937  20.537  0.00  0.00    +0.000 HD
ENDBRANCH  13  15
BRANCH  14  17
ATOM     17  O2* UNL     1       4.439   1.877  19.627  0.00  0.00    +0.000 OA
ATOM     18  H2* UNL     1       5.379   1.960  19.888  0.00  0.00    +0.000 HD
ENDBRANCH  14  17
BRANCH  12  19
ATOM     19  C5* UNL     1       1.998   5.751  20.461  0.00  0.00    +0.000 C 
BRANCH  19  20
ATOM     20  O5* UNL     1       2.980   6.601  19.866  0.00  0.00    +0.000 OA
ATOM     21  H5* UNL     1       2.895   7.466  20.309  0.00  0.00    +0.000 HD
ENDBRANCH  19  20
ENDBRANCH  12  19
ENDBRANCH   4  10
BRANCH   7  22
ATOM     22  C   UNL     1       7.683   6.422  18.214  0.00  0.00    +0.000 C 
BRANCH  22  23
ATOM     23  C   UNL     1       7.762   7.894  17.844  0.00  0.00    +0.000 C 
ATOM     24  O   UNL     1       6.843   8.470  17.250  0.00  0.00    +0.000 OA
BRANCH  23  25
ATOM     25  O   UNL     1       8.900   8.515  18.259  0.00  0.00    +0.000 OA
BRANCH  25  26
ATOM     26  C   UNL     1       8.641   9.682  19.061  0.00  0.00    +0.000 C 
BRANCH  26  27
ATOM     27  C   UNL     1       9.414  10.866  18.545  0.00  0.00    +0.000 A 
ATOM     28  C   UNL     1       8.757  11.956  17.962  0.00  0.00    +0.000 A 
ATOM     29  C   UNL     1       9.490  13.024  17.439  0.00  0.00    +0.000 A 
ATOM     30  C   UNL     1      10.883  13.011  17.516  0.00  0.00    +0.000 A 
ATOM     31  C   UNL     1      11.540  11.937  18.116  0.00  0.00    +0.000 A 
ATOM     32  C   UNL     1      10.810  10.869  18.628  0.00  0.00    +0.000 A 
ENDBRANCH  26  27
ENDBRANCH  25  26
ENDBRANCH  23  25
ENDBRANCH  22  23
ENDBRANCH   7  22
TORSDOF 10
ENDMDL
MODEL 6
REMARK VINA RESULT:      -7.9      4.334      7.051
REMARK  Name = 
REMARK  11 active torsions:
REMARK  status: ('A' for Active; 'I' for Inactive)
REMARK    1  A    between atoms: C_1  and  C_2
REMARK    2  A    between atoms: N_4  and  C1*_5
REMARK    3  A    between atoms: C4*_7  and  C5*_8
REMARK    4  A    between atoms: C5*_8  and  O5*_9
REMARK    5  A    between atoms: C3*_10  and  O3*_11
REMARK    6  A    between atoms: C2*_12  and  O2*_13
REMARK    7  A    between atoms: N_16  and  C_17
REMARK    8  A    between atoms: C_17  and  C_18
REMARK    9  A    between atoms: C_18  and  O_20
REMARK   10  A    between atoms: O_20  and  C_21
REMARK   11  A    between atoms: C_21  and  C_22
REMARK                            x       y       z     vdW  Elec       q    Type
REMARK                         _______ _______ _______ _____ _____    ______ ____
ROOT
ATOM      1  C   UNL     1       1.439   3.607  21.376  0.00  0.00    +0.000 C 
ATOM      2  C   UNL     1       1.908   4.688  20.457  0.00  0.00    +0.000 A 
ATOM      3  C   UNL     1       1.676   5.985  20.626  0.00  0.00    +0.000 A 
ATOM      4  N   UNL     1       2.154   6.939  19.754  0.00  0.00    +0.000 N 
ATOM      5  C   UNL     1       2.983   6.616  18.680  0.00  0.00    +0.000 A 
ATOM      6  O   UNL     1       3.438   7.462  17.920  0.00  0.00    +0.000 OA
ATOM      7  N   UNL     1       3.275   5.266  18.521  0.00  0.00    +0.000 N 
ATOM      8  C   UNL     1       2.655   4.272  19.247  0.00  0.00    +0.000 A 
ATOM      9  O   UNL     1       2.683   3.079  18.933  0.00  0.00    +0.000 OA
ENDROOT
BRANCH   4  10
ATOM     10  C1* UNL     1       1.888   8.343  20.066  0.00  0.00    +0.000 C 
ATOM     11  O4* UNL     1       1.691   8.533  21.473  0.00  0.00    +0.000 OA
ATOM     12  C4* UNL     1       0.669   9.550  21.649  0.00  0.00    +0.000 C 
ATOM     13  C3* UNL     1       0.331  10.097  20.256  0.00  0.00    +0.000 C 
ATOM     14  C2* UNL     1       0.697   8.955  19.324  0.00  0.00    +0.000 C 
BRANCH  13  15
ATOM     15  O3* UNL     1       1.155  11.230  19.913  0.00  0.00    +0.000 OA
ATOM     16  H3* UNL     1       1.511  11.626  20.730  0.00  0.00    +0.000 HD
ENDBRANCH  13  15
BRANCH  14  17
ATOM     17  O2* UNL     1       1.065   9.407  18.018  0.00  0.00    +0.000 OA
ATOM     18  H2* UNL     1       0.238   9.435  17.494  0.00  0.00    +0.000 HD
ENDBRANCH  14  17
BRANCH  12  19
ATOM     19  C5* UNL     1      -0.526   8.914  22.364  0.00  0.00    +0.000 C 
BRANCH  19  20
ATOM     20  O5* UNL     1      -0.995   9.773  23.405  0.00  0.00    +0.000 OA
ATOM     21  H5* UNL     1      -0.204  10.053  23.903  0.00  0.00    +0.000 HD
ENDBRANCH  19  20
ENDBRANCH  12  19
ENDBRANCH   4  10
BRANCH   7  22
ATOM     22  C   UNL     1       4.194   4.886  17.443  0.00  0.00    +0.000 C 
BRANCH  22  23
ATOM     23  C   UNL     1       5.639   4.578  17.804  0.00  0.00    +0.000 C 
ATOM     24  O   UNL     1       6.074   4.729  18.951  0.00  0.00    +0.000 OA
BRANCH  23  25
ATOM     25  O   UNL     1       6.379   4.088  16.772  0.00  0.00    +0.000 OA
BRANCH  25  26
ATOM     26  C   UNL     1       6.964   5.124  15.962  0.00  0.00    +0.000 C 
BRANCH  26  27
ATOM     27  C   UNL     1       6.891   4.765  14.502  0.00  0.00    +0.000 A 
ATOM     28  C   UNL     1       5.980   3.808  14.040  0.00  0.00    +0.000 A 
ATOM     29  C   UNL     1       5.960   3.446  12.692  0.00  0.00    +0.000 A 
ATOM     30  C   UNL     1       6.842   4.055  11.798  0.00  0.00    +0.000 A 
ATOM     31  C   UNL     1       7.736   5.025  12.250  0.00  0.00    +0.000 A 
ATOM     32  C   UNL     1       7.762   5.379  13.595  0.00  0.00    +0.000 A 
ENDBRANCH  26  27
ENDBRANCH  25  26
ENDBRANCH  23  25
ENDBRANCH  22  23
ENDBRANCH   7  22
TORSDOF 10
ENDMDL
MODEL 7
REMARK VINA RESULT:      -7.8      1.078      1.928
REMARK  Name = 
REMARK  11 active torsions:
REMARK  status: ('A' for Active; 'I' for Inactive)
REMARK    1  A    between atoms: C_1  and  C_2
REMARK    2  A    between atoms: N_4  and  C1*_5
REMARK    3  A    between atoms: C4*_7  and  C5*_8
REMARK    4  A    between atoms: C5*_8  and  O5*_9
REMARK    5  A    between atoms: C3*_10  and  O3*_11
REMARK    6  A    between atoms: C2*_12  and  O2*_13
REMARK    7  A    between atoms: N_16  and  C_17
REMARK    8  A    between atoms: C_17  and  C_18
REMARK    9  A    between atoms: C_18  and  O_20
REMARK   10  A    between atoms: O_20  and  C_21
REMARK   11  A    between atoms: C_21  and  C_22
REMARK                            x       y       z     vdW  Elec       q    Type
REMARK                         _______ _______ _______ _____ _____    ______ ____
ROOT
ATOM      1  C   UNL     1       5.818   3.310  14.771  0.00  0.00    +0.000 C 
ATOM      2  C   UNL     1       5.614   4.032  16.062  0.00  0.00    +0.000 A 
ATOM      3  C   UNL     1       4.583   3.852  16.882  0.00  0.00    +0.000 A 
ATOM      4  N   UNL     1       4.459   4.534  18.072  0.00  0.00    +0.000 N 
ATOM      5  C   UNL     1       5.449   5.399  18.540  0.00  0.00    +0.000 A 
ATOM      6  O   UNL     1       5.361   5.984  19.612  0.00  0.00    +0.000 OA
ATOM      7  N   UNL     1       6.558   5.558  17.717  0.00  0.00    +0.000 N 
ATOM      8  C   UNL     1       6.621   5.053  16.436  0.00  0.00    +0.000 A 
ATOM      9  O   UNL     1       7.453   5.415  15.600  0.00  0.00    +0.000 OA
ENDROOT
BRANCH   4  10
ATOM     10  C1* UNL     1       3.313   4.219  18.924  0.00  0.00    +0.000 C 
ATOM     11  O4* UNL     1       3.729   3.927  20.265  0.00  0.00    +0.000 OA
ATOM     12  C4* UNL     1       2.872   2.874  20.780  0.00  0.00    +0.000 C 
ATOM     13  C3* UNL     1       1.788   2.616  19.724  0.00  0.00    +0.000 C 
ATOM     14  C2* UNL     1       2.437   3.066  18.428  0.00  0.00    +0.000 C 
BRANCH  13  15
ATOM     15  O3* UNL     1       0.622   3.436  19.945  0.00  0.00    +0.000 OA
ATOM     16  H3* UNL     1       0.131   3.095  20.714  0.00  0.00    +0.000 HD
ENDBRANCH  13  15
BRANCH  14  17
ATOM     17  O2* UNL     1       1.482   3.508  17.459  0.00  0.00    +0.000 OA
ATOM     18  H2* UNL     1       0.712   3.839  17.965  0.00  0.00    +0.000 HD
ENDBRANCH  14  17
BRANCH  12  19
ATOM     19  C5* UNL     1       3.738   1.649  21.081  0.00  0.00    +0.000 C 
BRANCH  19  20
ATOM     20  O5* UNL     1       5.083   1.876  20.654  0.00  0.00    +0.000 OA
ATOM     21  H5* UNL     1       5.094   2.766  20.253  0.00  0.00    +0.000 HD
ENDBRANCH  19  20
ENDBRANCH  12  19
ENDBRANCH   4  10
BRANCH   7  22
ATOM     22  C   UNL     1       7.652   6.408  18.196  0.00  0.00    +0.000 C 
BRANCH  22  23
ATOM     23  C   UNL     1       7.664   7.870  17.781  0.00  0.00    +0.000 C 
ATOM     24  O   UNL     1       6.900   8.311  16.914  0.00  0.00    +0.000 OA
BRANCH  23  25
ATOM     25  O   UNL     1       8.550   8.640  18.471  0.00  0.00    +0.000 OA
BRANCH  25  26
ATOM     26  C   UNL     1       8.361  10.049  18.244  0.00  0.00    +0.000 C 
BRANCH  26  27
ATOM     27  C   UNL     1       9.558  10.830  18.718  0.00  0.00    +0.000 A 
ATOM     28  C   UNL     1      10.534  11.269  17.816  0.00  0.00    +0.000 A 
ATOM     29  C   UNL     1      11.666  11.945  18.275  0.00  0.00    +0.000 A 
ATOM     30  C   UNL     1      11.814  12.201  19.639  0.00  0.00    +0.000 A 
ATOM     31  C   UNL     1      10.833  11.786  20.538  0.00  0.00    +0.000 A 
ATOM     32  C   UNL     1       9.709  11.102  20.082  0.00  0.00    +0.000 A 
ENDBRANCH  26  27
ENDBRANCH  25  26
ENDBRANCH  23  25
ENDBRANCH  22  23
ENDBRANCH   7  22
TORSDOF 10
ENDMDL
MODEL 8
REMARK VINA RESULT:      -7.7      0.987      1.316
REMARK  Name = 
REMARK  11 active torsions:
REMARK  status: ('A' for Active; 'I' for Inactive)
REMARK    1  A    between atoms: C_1  and  C_2
REMARK    2  A    between atoms: N_4  and  C1*_5
REMARK    3  A    between atoms: C4*_7  and  C5*_8
REMARK    4  A    between atoms: C5*_8  and  O5*_9
REMARK    5  A    between atoms: C3*_10  and  O3*_11
REMARK    6  A    between atoms: C2*_12  and  O2*_13
REMARK    7  A    between atoms: N_16  and  C_17
REMARK    8  A    between atoms: C_17  and  C_18
REMARK    9  A    between atoms: C_18  and  O_20
REMARK   10  A    between atoms: O_20  and  C_21
REMARK   11  A    between atoms: C_21  and  C_22
REMARK                            x       y       z     vdW  Elec       q    Type
REMARK                         _______ _______ _______ _____ _____    ______ ____
ROOT
ATOM      1  C   UNL     1       5.816   3.533  14.002  0.00  0.00    +0.000 C 
ATOM      2  C   UNL     1       5.500   4.194  15.303  0.00  0.00    +0.000 A 
ATOM      3  C   UNL     1       4.619   3.746  16.191  0.00  0.00    +0.000 A 
ATOM      4  N   UNL     1       4.385   4.389  17.387  0.00  0.00    +0.000 N 
ATOM      5  C   UNL     1       5.116   5.508  17.785  0.00  0.00    +0.000 A 
ATOM      6  O   UNL     1       4.937   6.066  18.860  0.00  0.00    +0.000 OA
ATOM      7  N   UNL     1       6.078   5.958  16.887  0.00  0.00    +0.000 N 
ATOM      8  C   UNL     1       6.198   5.466  15.605  0.00  0.00    +0.000 A 
ATOM      9  O   UNL     1       6.837   6.032  14.714  0.00  0.00    +0.000 OA
ENDROOT
BRANCH   4  10
ATOM     10  C1* UNL     1       3.434   3.779  18.315  0.00  0.00    +0.000 C 
ATOM     11  O4* UNL     1       2.271   4.602  18.481  0.00  0.00    +0.000 OA
ATOM     12  C4* UNL     1       1.845   4.500  19.866  0.00  0.00    +0.000 C 
ATOM     13  C3* UNL     1       2.732   3.441  20.535  0.00  0.00    +0.000 C 
ATOM     14  C2* UNL     1       3.999   3.456  19.700  0.00  0.00    +0.000 C 
BRANCH  13  15
ATOM     15  O3* UNL     1       2.153   2.123  20.440  0.00  0.00    +0.000 OA
ATOM     16  H3* UNL     1       1.213   2.202  20.195  0.00  0.00    +0.000 HD
ENDBRANCH  13  15
BRANCH  14  17
ATOM     17  O2* UNL     1       4.681   2.199  19.712  0.00  0.00    +0.000 OA
ATOM     18  H2* UNL     1       5.308   2.220  18.960  0.00  0.00    +0.000 HD
ENDBRANCH  14  17
BRANCH  12  19
ATOM     19  C5* UNL     1       1.953   5.885  20.508  0.00  0.00    +0.000 C 
BRANCH  19  20
ATOM     20  O5* UNL     1       2.337   6.856  19.533  0.00  0.00    +0.000 OA
ATOM     21  H5* UNL     1       1.660   6.817  18.831  0.00  0.00    +0.000 HD
ENDBRANCH  19  20
ENDBRANCH  12  19
ENDBRANCH   4  10
BRANCH   7  22
ATOM     22  C   UNL     1       6.915   7.092  17.290  0.00  0.00    +0.000 C 
BRANCH  22  23
ATOM     23  C   UNL     1       7.935   6.878  18.397  0.00  0.00    +0.000 C 
ATOM     24  O   UNL     1       8.218   5.750  18.817  0.00  0.00    +0.000 OA
BRANCH  23  25
ATOM     25  O   UNL     1       8.525   8.021  18.841  0.00  0.00    +0.000 OA
BRANCH  25  26
ATOM     26  C   UNL     1       8.310   9.140  17.961  0.00  0.00    +0.000 C 
BRANCH  26  27
ATOM     27  C   UNL     1       8.914  10.394  18.535  0.00  0.00    +0.000 A 
ATOM     28  C   UNL     1       8.848  11.608  17.841  0.00  0.00    +0.000 A 
ATOM     29  C   UNL     1       9.459  12.751  18.359  0.00  0.00    +0.000 A 
ATOM     30  C   UNL     1      10.122  12.686  19.586  0.00  0.00    +0.000 A 
ATOM     31  C   UNL     1      10.171  11.485  20.291  0.00  0.00    +0.000 A 
ATOM     32  C   UNL     1       9.570  10.343  19.769  0.00  0.00    +0.000 A 
ENDBRANCH  26  27
ENDBRANCH  25  26
ENDBRANCH  23  25
ENDBRANCH  22  23
ENDBRANCH   7  22
TORSDOF 10
ENDMDL
MODEL 9
REMARK VINA RESULT:      -7.6      3.893      7.552
REMARK  Name = 
REMARK  11 active torsions:
REMARK  status: ('A' for Active; 'I' for Inactive)
REMARK    1  A    between atoms: C_1  and  C_2
REMARK    2  A    between atoms: N_4  and  C1*_5
REMARK    3  A    between atoms: C4*_7  and  C5*_8
REMARK    4  A    between atoms: C5*_8  and  O5*_9
REMARK    5  A    between atoms: C3*_10  and  O3*_11
REMARK    6  A    between atoms: C2*_12  and  O2*_13
REMARK    7  A    between atoms: N_16  and  C_17
REMARK    8  A    between atoms: C_17  and  C_18
REMARK    9  A    between atoms: C_18  and  O_20
REMARK   10  A    between atoms: O_20  and  C_21
REMARK   11  A    between atoms: C_21  and  C_22
REMARK                            x       y       z     vdW  Elec       q    Type
REMARK                         _______ _______ _______ _____ _____    ______ ____
ROOT
ATOM      1  C   UNL     1       0.965   2.365  18.907  0.00  0.00    +0.000 C 
ATOM      2  C   UNL     1       1.995   3.444  18.976  0.00  0.00    +0.000 A 
ATOM      3  C   UNL     1       3.202   3.383  18.423  0.00  0.00    +0.000 A 
ATOM      4  N   UNL     1       4.104   4.421  18.503  0.00  0.00    +0.000 N 
ATOM      5  C   UNL     1       3.783   5.641  19.099  0.00  0.00    +0.000 A 
ATOM      6  O   UNL     1       4.567   6.580  19.146  0.00  0.00    +0.000 OA
ATOM      7  N   UNL     1       2.505   5.737  19.637  0.00  0.00    +0.000 N 
ATOM      8  C   UNL     1       1.654   4.659  19.754  0.00  0.00    +0.000 A 
ATOM      9  O   UNL     1       0.651   4.655  20.473  0.00  0.00    +0.000 OA
ENDROOT
BRANCH   4  10
ATOM     10  C1* UNL     1       5.383   4.269  17.811  0.00  0.00    +0.000 C 
ATOM     11  O4* UNL     1       6.463   4.124  18.743  0.00  0.00    +0.000 OA
ATOM     12  C4* UNL     1       7.620   4.811  18.197  0.00  0.00    +0.000 C 
ATOM     13  C3* UNL     1       7.243   5.281  16.786  0.00  0.00    +0.000 C 
ATOM     14  C2* UNL     1       5.730   5.399  16.839  0.00  0.00    +0.000 C 
BRANCH  13  15
ATOM     15  O3* UNL     1       7.575   4.293  15.788  0.00  0.00    +0.000 OA
ATOM     16  H3* UNL     1       7.319   4.626  14.909  0.00  0.00    +0.000 HD
ENDBRANCH  13  15
BRANCH  14  17
ATOM     17  O2* UNL     1       5.117   5.205  15.562  0.00  0.00    +0.000 OA
ATOM     18  H2* UNL     1       5.132   4.240  15.395  0.00  0.00    +0.000 HD
ENDBRANCH  14  17
BRANCH  12  19
ATOM     19  C5* UNL     1       7.994   5.955  19.144  0.00  0.00    +0.000 C 
BRANCH  19  20
ATOM     20  O5* UNL     1       7.930   5.516  20.502  0.00  0.00    +0.000 OA
ATOM     21  H5* UNL     1       7.336   4.742  20.509  0.00  0.00    +0.000 HD
ENDBRANCH  19  20
ENDBRANCH  12  19
ENDBRANCH   4  10
BRANCH   7  22
ATOM     22  C   UNL     1       2.100   7.022  20.217  0.00  0.00    +0.000 C 
BRANCH  22  23
ATOM     23  C   UNL     1       1.712   8.149  19.273  0.00  0.00    +0.000 C 
ATOM     24  O   UNL     1       1.968   8.106  18.064  0.00  0.00    +0.000 OA
BRANCH  23  25
ATOM     25  O   UNL     1       1.033   9.168  19.868  0.00  0.00    +0.000 OA
BRANCH  25  26
ATOM     26  C   UNL     1       0.958  10.346  19.044  0.00  0.00    +0.000 C 
BRANCH  26  27
ATOM     27  C   UNL     1      -0.475  10.705  18.756  0.00  0.00    +0.000 A 
ATOM     28  C   UNL     1      -1.130  11.698  19.495  0.00  0.00    +0.000 A 
ATOM     29  C   UNL     1      -2.475  11.984  19.254  0.00  0.00    +0.000 A 
ATOM     30  C   UNL     1      -3.164  11.288  18.260  0.00  0.00    +0.000 A 
ATOM     31  C   UNL     1      -2.510  10.314  17.507  0.00  0.00    +0.000 A 
ATOM     32  C   UNL     1      -1.171  10.022  17.754  0.00  0.00    +0.000 A 
ENDBRANCH  26  27
ENDBRANCH  25  26
ENDBRANCH  23  25
ENDBRANCH  22  23
ENDBRANCH   7  22
TORSDOF 10
ENDMDL
