MODEL 1
REMARK VINA RESULT:      -9.4      0.000      0.000
REMARK  Name = 
REMARK  8 active torsions:
REMARK  status: ('A' for Active; 'I' for Inactive)
REMARK    1  A    between atoms: C_1  and  C_2
REMARK    2  A    between atoms: C_4  and  C_5
REMARK    3  A    between atoms: C_8  and  N_9
REMARK    4  A    between atoms: C_10  and  C_12
REMARK    5  A    between atoms: C_12  and  C_13
REMARK    6  A    between atoms: C_12  and  C_14
REMARK    7  A    between atoms: C_18  and  C_19
REMARK    8  A    between atoms: C_23  and  C_24
REMARK                            x       y       z     vdW  Elec       q    Type
REMARK                         _______ _______ _______ _____ _____    ______ ____
ROOT
ATOM      1  N   UNL     1       3.104   6.055  18.868  0.00  0.00    +0.000 N 
ATOM      2  C   UNL     1       2.547   4.789  19.004  0.00  0.00    +0.000 C 
ATOM      3  O   UNL     1       1.367   4.559  19.264  0.00  0.00    +0.000 OA
ATOM      4  H   UNL     1       4.087   6.120  18.624  0.00  0.00    +0.000 HD
ENDROOT
BRANCH   1   8
ATOM      5  C   UNL     1       0.965   9.723  19.246  0.00  0.00    +0.000 A 
ATOM      6  C   UNL     1       1.151   8.885  20.346  0.00  0.00    +0.000 A 
ATOM      7  C   UNL     1       1.859   7.689  20.232  0.00  0.00    +0.000 A 
ATOM      8  C   UNL     1       2.402   7.275  19.014  0.00  0.00    +0.000 A 
ATOM      9  C   UNL     1       2.237   8.105  17.906  0.00  0.00    +0.000 A 
ATOM     10  C   UNL     1       1.527   9.312  18.023  0.00  0.00    +0.000 A 
BRANCH   5  14
ATOM     11  C   UNL     1      -3.398  12.203  19.495  0.00  0.00    +0.000 C 
ATOM     12  C   UNL     1      -1.900  12.179  19.481  0.00  0.00    +0.000 A 
ATOM     13  C   UNL     1      -1.207  10.979  19.398  0.00  0.00    +0.000 A 
ATOM     14  C   UNL     1       0.195  10.976  19.368  0.00  0.00    +0.000 A 
ATOM     15  C   UNL     1       0.835  12.215  19.437  0.00  0.00    +0.000 A 
ATOM     16  C   UNL     1       0.073  13.367  19.528  0.00  0.00    +0.000 A 
ATOM     17  N   UNL     1      -1.273  13.376  19.551  0.00  0.00    +0.000 NA
ENDBRANCH   5  14
ENDBRANCH   1   8
BRANCH   2  18
ATOM     18  C   UNL     1       3.516   3.625  18.783  0.00  0.00    +0.000 C 
ATOM     19  C   UNL     1       2.800   2.614  17.867  0.00  0.00    +0.000 C 
BRANCH  18  20
ATOM     20  C   UNL     1       4.835   4.105  18.189  0.00  0.00    +0.000 A 
ATOM     21  C   UNL     1       5.844   4.633  19.007  0.00  0.00    +0.000 A 
ATOM     22  C   UNL     1       7.037   5.093  18.447  0.00  0.00    +0.000 A 
ATOM     23  C   UNL     1       7.235   5.039  17.069  0.00  0.00    +0.000 A 
ATOM     24  C   UNL     1       6.254   4.511  16.211  0.00  0.00    +0.000 A 
ATOM     25  C   UNL     1       5.066   4.043  16.805  0.00  0.00    +0.000 A 
BRANCH  24  26
ATOM     26  C   UNL     1       6.462   4.441  14.747  0.00  0.00    +0.000 A 
ATOM     27  C   UNL     1       7.627   4.955  14.145  0.00  0.00    +0.000 A 
ATOM     28  C   UNL     1       7.807   4.933  12.759  0.00  0.00    +0.000 A 
ATOM     29  C   UNL     1       6.827   4.381  11.940  0.00  0.00    +0.000 A 
ATOM     30  C   UNL     1       5.672   3.841  12.507  0.00  0.00    +0.000 A 
ATOM     31  C   UNL     1       5.496   3.874  13.897  0.00  0.00    +0.000 A 
BRANCH  30  32
ATOM     32  C   UNL     1       4.660   3.264  11.680  0.00  0.00    +0.000 C 
ATOM     33  N   UNL     1       3.833   2.804  11.011  0.00  0.00    +0.000 NA
ENDBRANCH  30  32
ENDBRANCH  24  26
ENDBRANCH  18  20
ENDBRANCH   2  18
TORSDOF 6
ENDMDL
MODEL 2
REMARK VINA RESULT:      -9.3      1.043      1.153
REMARK  Name = 
REMARK  8 active torsions:
REMARK  status: ('A' for Active; 'I' for Inactive)
REMARK    1  A    between atoms: C_1  and  C_2
REMARK    2  A    between atoms: C_4  and  C_5
REMARK    3  A    between atoms: C_8  and  N_9
REMARK    4  A    between atoms: C_10  and  C_12
REMARK    5  A    between atoms: C_12  and  C_13
REMARK    6  A    between atoms: C_12  and  C_14
REMARK    7  A    between atoms: C_18  and  C_19
REMARK    8  A    between atoms: C_23  and  C_24
REMARK                            x       y       z     vdW  Elec       q    Type
REMARK                         _______ _______ _______ _____ _____    ______ ____
ROOT
ATOM      1  N   UNL     1       2.967   6.120  19.628  0.00  0.00    +0.000 N 
ATOM      2  C   UNL     1       2.690   5.072  18.757  0.00  0.00    +0.000 C 
ATOM      3  O   UNL     1       1.722   5.017  18.000  0.00  0.00    +0.000 OA
ATOM      4  H   UNL     1       3.812   6.066  20.185  0.00  0.00    +0.000 HD
ENDROOT
BRANCH   1   8
ATOM      5  C   UNL     1       0.558   9.614  20.034  0.00  0.00    +0.000 A 
ATOM      6  C   UNL     1       0.688   8.706  21.086  0.00  0.00    +0.000 A 
ATOM      7  C   UNL     1       1.483   7.567  20.964  0.00  0.00    +0.000 A 
ATOM      8  C   UNL     1       2.173   7.281  19.784  0.00  0.00    +0.000 A 
ATOM      9  C   UNL     1       2.066   8.183  18.727  0.00  0.00    +0.000 A 
ATOM     10  C   UNL     1       1.268   9.333  18.853  0.00  0.00    +0.000 A 
BRANCH   5  14
ATOM     11  C   UNL     1      -2.052  12.880  22.821  0.00  0.00    +0.000 C 
ATOM     12  C   UNL     1      -1.568  12.379  21.494  0.00  0.00    +0.000 A 
ATOM     13  C   UNL     1      -0.733  11.273  21.413  0.00  0.00    +0.000 A 
ATOM     14  C   UNL     1      -0.302  10.806  20.162  0.00  0.00    +0.000 A 
ATOM     15  C   UNL     1      -0.742  11.505  19.037  0.00  0.00    +0.000 A 
ATOM     16  C   UNL     1      -1.567  12.605  19.203  0.00  0.00    +0.000 A 
ATOM     17  N   UNL     1      -1.987  13.054  20.400  0.00  0.00    +0.000 NA
ENDBRANCH   5  14
ENDBRANCH   1   8
BRANCH   2  18
ATOM     18  C   UNL     1       3.714   3.934  18.764  0.00  0.00    +0.000 C 
ATOM     19  C   UNL     1       3.106   2.780  17.943  0.00  0.00    +0.000 C 
BRANCH  18  20
ATOM     20  C   UNL     1       5.056   4.390  18.207  0.00  0.00    +0.000 A 
ATOM     21  C   UNL     1       6.039   4.930  19.048  0.00  0.00    +0.000 A 
ATOM     22  C   UNL     1       7.256   5.368  18.521  0.00  0.00    +0.000 A 
ATOM     23  C   UNL     1       7.503   5.281  17.153  0.00  0.00    +0.000 A 
ATOM     24  C   UNL     1       6.549   4.739  16.272  0.00  0.00    +0.000 A 
ATOM     25  C   UNL     1       5.336   4.294  16.834  0.00  0.00    +0.000 A 
BRANCH  24  26
ATOM     26  C   UNL     1       6.808   4.634  14.819  0.00  0.00    +0.000 A 
ATOM     27  C   UNL     1       7.819   5.391  14.196  0.00  0.00    +0.000 A 
ATOM     28  C   UNL     1       8.037   5.330  12.816  0.00  0.00    +0.000 A 
ATOM     29  C   UNL     1       7.255   4.494  12.027  0.00  0.00    +0.000 A 
ATOM     30  C   UNL     1       6.261   3.712  12.616  0.00  0.00    +0.000 A 
ATOM     31  C   UNL     1       6.044   3.785  13.999  0.00  0.00    +0.000 A 
BRANCH  30  32
ATOM     32  C   UNL     1       5.454   2.843  11.819  0.00  0.00    +0.000 C 
ATOM     33  N   UNL     1       4.797   2.145  11.167  0.00  0.00    +0.000 NA
ENDBRANCH  30  32
ENDBRANCH  24  26
ENDBRANCH  18  20
ENDBRANCH   2  18
TORSDOF 6
ENDMDL
MODEL 3
REMARK VINA RESULT:      -9.2      0.550      1.007
REMARK  Name = 
REMARK  8 active torsions:
REMARK  status: ('A' for Active; 'I' for Inactive)
REMARK    1  A    between atoms: C_1  and  C_2
REMARK    2  A    between atoms: C_4  and  C_5
REMARK    3  A    between atoms: C_8  and  N_9
REMARK    4  A    between atoms: C_10  and  C_12
REMARK    5  A    between atoms: C_12  and  C_13
REMARK    6  A    between atoms: C_12  and  C_14
REMARK    7  A    between atoms: C_18  and  C_19
REMARK    8  A    between atoms: C_23  and  C_24
REMARK                            x       y       z     vdW  Elec       q    Type
REMARK                         _______ _______ _______ _____ _____    ______ ____
ROOT
ATOM      1  N   UNL     1       3.065   6.171  19.530  0.00  0.00    +0.000 N 
ATOM      2  C   UNL     1       2.735   5.023  18.819  0.00  0.00    +0.000 C 
ATOM      3  O   UNL     1       1.709   4.869  18.159  0.00  0.00    +0.000 OA
ATOM      4  H   UNL     1       3.955   6.191  20.016  0.00  0.00    +0.000 HD
ENDROOT
BRANCH   1   8
ATOM      5  C   UNL     1       0.679   9.690  19.840  0.00  0.00    +0.000 A 
ATOM      6  C   UNL     1       1.353   9.382  18.658  0.00  0.00    +0.000 A 
ATOM      7  C   UNL     1       2.127   8.228  18.546  0.00  0.00    +0.000 A 
ATOM      8  C   UNL     1       2.267   7.337  19.612  0.00  0.00    +0.000 A 
ATOM      9  C   UNL     1       1.590   7.620  20.797  0.00  0.00    +0.000 A 
ATOM     10  C   UNL     1       0.808   8.782  20.907  0.00  0.00    +0.000 A 
BRANCH   5  14
ATOM     11  C   UNL     1      -3.588  12.256  19.164  0.00  0.00    +0.000 C 
ATOM     12  C   UNL     1      -2.167  12.170  19.631  0.00  0.00    +0.000 A 
ATOM     13  C   UNL     1      -1.455  10.983  19.533  0.00  0.00    +0.000 A 
ATOM     14  C   UNL     1      -0.120  10.925  19.960  0.00  0.00    +0.000 A 
ATOM     15  C   UNL     1       0.431  12.096  20.483  0.00  0.00    +0.000 A 
ATOM     16  C   UNL     1      -0.348  13.238  20.556  0.00  0.00    +0.000 A 
ATOM     17  N   UNL     1      -1.628  13.300  20.143  0.00  0.00    +0.000 NA
ENDBRANCH   5  14
ENDBRANCH   1   8
BRANCH   2  18
ATOM     18  C   UNL     1       3.776   3.902  18.877  0.00  0.00    +0.000 C 
ATOM     19  C   UNL     1       3.162   2.684  18.160  0.00  0.00    +0.000 C 
BRANCH  18  20
ATOM     20  C   UNL     1       5.094   4.333  18.248  0.00  0.00    +0.000 A 
ATOM     21  C   UNL     1       6.137   4.839  19.038  0.00  0.00    +0.000 A 
ATOM     22  C   UNL     1       7.331   5.255  18.445  0.00  0.00    +0.000 A 
ATOM     23  C   UNL     1       7.497   5.180  17.064  0.00  0.00    +0.000 A 
ATOM     24  C   UNL     1       6.481   4.673  16.234  0.00  0.00    +0.000 A 
ATOM     25  C   UNL     1       5.292   4.249  16.860  0.00  0.00    +0.000 A 
BRANCH  24  26
ATOM     26  C   UNL     1       6.653   4.580  14.768  0.00  0.00    +0.000 A 
ATOM     27  C   UNL     1       7.779   5.131  14.123  0.00  0.00    +0.000 A 
ATOM     28  C   UNL     1       7.923   5.086  12.734  0.00  0.00    +0.000 A 
ATOM     29  C   UNL     1       6.948   4.475  11.954  0.00  0.00    +0.000 A 
ATOM     30  C   UNL     1       5.833   3.898  12.562  0.00  0.00    +0.000 A 
ATOM     31  C   UNL     1       5.691   3.953  13.956  0.00  0.00    +0.000 A 
BRANCH  30  32
ATOM     32  C   UNL     1       4.826   3.260  11.775  0.00  0.00    +0.000 C 
ATOM     33  N   UNL     1       4.005   2.738  11.145  0.00  0.00    +0.000 NA
ENDBRANCH  30  32
ENDBRANCH  24  26
ENDBRANCH  18  20
ENDBRANCH   2  18
TORSDOF 6
ENDMDL
MODEL 4
REMARK VINA RESULT:      -9.1      0.626      1.215
REMARK  Name = 
REMARK  8 active torsions:
REMARK  status: ('A' for Active; 'I' for Inactive)
REMARK    1  A    between atoms: C_1  and  C_2
REMARK    2  A    between atoms: C_4  and  C_5
REMARK    3  A    between atoms: C_8  and  N_9
REMARK    4  A    between atoms: C_10  and  C_12
REMARK    5  A    between atoms: C_12  and  C_13
REMARK    6  A    between atoms: C_12  and  C_14
REMARK    7  A    between atoms: C_18  and  C_19
REMARK    8  A    between atoms: C_23  and  C_24
REMARK                            x       y       z     vdW  Elec       q    Type
REMARK                         _______ _______ _______ _____ _____    ______ ____
ROOT
ATOM      1  N   UNL     1       2.844   6.284  18.598  0.00  0.00    +0.000 N 
ATOM      2  C   UNL     1       2.682   5.106  19.318  0.00  0.00    +0.000 C 
ATOM      3  O   UNL     1       1.949   4.969  20.297  0.00  0.00    +0.000 OA
ATOM      4  H   UNL     1       3.457   6.268  17.790  0.00  0.00    +0.000 HD
ENDROOT
BRANCH   1   8
ATOM      5  C   UNL     1       0.867   9.975  19.398  0.00  0.00    +0.000 A 
ATOM      6  C   UNL     1       1.107   9.054  20.418  0.00  0.00    +0.000 A 
ATOM      7  C   UNL     1       1.762   7.850  20.166  0.00  0.00    +0.000 A 
ATOM      8  C   UNL     1       2.197   7.510  18.883  0.00  0.00    +0.000 A 
ATOM      9  C   UNL     1       1.978   8.423  17.853  0.00  0.00    +0.000 A 
ATOM     10  C   UNL     1       1.322   9.638  18.110  0.00  0.00    +0.000 A 
BRANCH   5  14
ATOM     11  C   UNL     1       0.351  14.944  18.855  0.00  0.00    +0.000 C 
ATOM     12  C   UNL     1      -0.100  13.630  19.418  0.00  0.00    +0.000 A 
ATOM     13  C   UNL     1       0.577  12.456  19.118  0.00  0.00    +0.000 A 
ATOM     14  C   UNL     1       0.152  11.238  19.667  0.00  0.00    +0.000 A 
ATOM     15  C   UNL     1      -0.966  11.273  20.502  0.00  0.00    +0.000 A 
ATOM     16  C   UNL     1      -1.593  12.484  20.745  0.00  0.00    +0.000 A 
ATOM     17  N   UNL     1      -1.185  13.656  20.224  0.00  0.00    +0.000 NA
ENDBRANCH   5  14
ENDBRANCH   1   8
BRANCH   2  18
ATOM     18  C   UNL     1       3.484   3.911  18.798  0.00  0.00    +0.000 C 
ATOM     19  C   UNL     1       2.598   3.196  17.759  0.00  0.00    +0.000 C 
BRANCH  18  20
ATOM     20  C   UNL     1       4.818   4.350  18.209  0.00  0.00    +0.000 A 
ATOM     21  C   UNL     1       5.822   4.892  19.025  0.00  0.00    +0.000 A 
ATOM     22  C   UNL     1       7.031   5.315  18.469  0.00  0.00    +0.000 A 
ATOM     23  C   UNL     1       7.250   5.210  17.097  0.00  0.00    +0.000 A 
ATOM     24  C   UNL     1       6.275   4.666  16.242  0.00  0.00    +0.000 A 
ATOM     25  C   UNL     1       5.071   4.237  16.832  0.00  0.00    +0.000 A 
BRANCH  24  26
ATOM     26  C   UNL     1       6.505   4.543  14.785  0.00  0.00    +0.000 A 
ATOM     27  C   UNL     1       7.674   5.046  14.180  0.00  0.00    +0.000 A 
ATOM     28  C   UNL     1       7.874   4.972  12.799  0.00  0.00    +0.000 A 
ATOM     29  C   UNL     1       6.913   4.379  11.989  0.00  0.00    +0.000 A 
ATOM     30  C   UNL     1       5.755   3.848  12.558  0.00  0.00    +0.000 A 
ATOM     31  C   UNL     1       5.558   3.932  13.944  0.00  0.00    +0.000 A 
BRANCH  30  32
ATOM     32  C   UNL     1       4.761   3.228  11.741  0.00  0.00    +0.000 C 
ATOM     33  N   UNL     1       3.955   2.733  11.071  0.00  0.00    +0.000 NA
ENDBRANCH  30  32
ENDBRANCH  24  26
ENDBRANCH  18  20
ENDBRANCH   2  18
TORSDOF 6
ENDMDL
MODEL 5
REMARK VINA RESULT:      -9.0      1.422      1.454
REMARK  Name = 
REMARK  8 active torsions:
REMARK  status: ('A' for Active; 'I' for Inactive)
REMARK    1  A    between atoms: C_1  and  C_2
REMARK    2  A    between atoms: C_4  and  C_5
REMARK    3  A    between atoms: C_8  and  N_9
REMARK    4  A    between atoms: C_10  and  C_12
REMARK    5  A    between atoms: C_12  and  C_13
REMARK    6  A    between atoms: C_12  and  C_14
REMARK    7  A    between atoms: C_18  and  C_19
REMARK    8  A    between atoms: C_23  and  C_24
REMARK                            x       y       z     vdW  Elec       q    Type
REMARK                         _______ _______ _______ _____ _____    ______ ____
ROOT
ATOM      1  N   UNL     1       2.522   6.421  18.897  0.00  0.00    +0.000 N 
ATOM      2  C   UNL     1       2.837   5.246  19.568  0.00  0.00    +0.000 C 
ATOM      3  O   UNL     1       2.678   5.054  20.773  0.00  0.00    +0.000 OA
ATOM      4  H   UNL     1       2.672   6.453  17.894  0.00  0.00    +0.000 HD
ENDROOT
BRANCH   1   8
ATOM      5  C   UNL     1       0.852   9.932  20.645  0.00  0.00    +0.000 A 
ATOM      6  C   UNL     1       1.033   8.773  21.399  0.00  0.00    +0.000 A 
ATOM      7  C   UNL     1       1.588   7.624  20.837  0.00  0.00    +0.000 A 
ATOM      8  C   UNL     1       1.977   7.582  19.496  0.00  0.00    +0.000 A 
ATOM      9  C   UNL     1       1.816   8.736  18.730  0.00  0.00    +0.000 A 
ATOM     10  C   UNL     1       1.260   9.894  19.299  0.00  0.00    +0.000 A 
BRANCH   5  14
ATOM     11  C   UNL     1      -2.703  12.160  23.412  0.00  0.00    +0.000 C 
ATOM     12  C   UNL     1      -1.469  12.220  22.564  0.00  0.00    +0.000 A 
ATOM     13  C   UNL     1      -0.903  11.062  22.046  0.00  0.00    +0.000 A 
ATOM     14  C   UNL     1       0.242  11.138  21.240  0.00  0.00    +0.000 A 
ATOM     15  C   UNL     1       0.771  12.408  21.004  0.00  0.00    +0.000 A 
ATOM     16  C   UNL     1       0.153  13.514  21.565  0.00  0.00    +0.000 A 
ATOM     17  N   UNL     1      -0.949  13.447  22.335  0.00  0.00    +0.000 NA
ENDBRANCH   5  14
ENDBRANCH   1   8
BRANCH   2  18
ATOM     18  C   UNL     1       3.401   4.127  18.690  0.00  0.00    +0.000 C 
ATOM     19  C   UNL     1       2.389   3.899  17.550  0.00  0.00    +0.000 C 
BRANCH  18  20
ATOM     20  C   UNL     1       4.788   4.478  18.165  0.00  0.00    +0.000 A 
ATOM     21  C   UNL     1       5.793   4.930  19.032  0.00  0.00    +0.000 A 
ATOM     22  C   UNL     1       7.051   5.273  18.533  0.00  0.00    +0.000 A 
ATOM     23  C   UNL     1       7.320   5.178  17.170  0.00  0.00    +0.000 A 
ATOM     24  C   UNL     1       6.345   4.722  16.265  0.00  0.00    +0.000 A 
ATOM     25  C   UNL     1       5.088   4.372  16.797  0.00  0.00    +0.000 A 
BRANCH  24  26
ATOM     26  C   UNL     1       6.625   4.608  14.816  0.00  0.00    +0.000 A 
ATOM     27  C   UNL     1       7.720   5.269  14.225  0.00  0.00    +0.000 A 
ATOM     28  C   UNL     1       7.963   5.202  12.850  0.00  0.00    +0.000 A 
ATOM     29  C   UNL     1       7.120   4.457  12.033  0.00  0.00    +0.000 A 
ATOM     30  C   UNL     1       6.041   3.771  12.589  0.00  0.00    +0.000 A 
ATOM     31  C   UNL     1       5.799   3.849  13.968  0.00  0.00    +0.000 A 
BRANCH  30  32
ATOM     32  C   UNL     1       5.170   2.996  11.763  0.00  0.00    +0.000 C 
ATOM     33  N   UNL     1       4.471   2.363  11.090  0.00  0.00    +0.000 NA
ENDBRANCH  30  32
ENDBRANCH  24  26
ENDBRANCH  18  20
ENDBRANCH   2  18
TORSDOF 6
ENDMDL
MODEL 6
REMARK VINA RESULT:      -8.9      5.566      8.524
REMARK  Name = 
REMARK  8 active torsions:
REMARK  status: ('A' for Active; 'I' for Inactive)
REMARK    1  A    between atoms: C_1  and  C_2
REMARK    2  A    between atoms: C_4  and  C_5
REMARK    3  A    between atoms: C_8  and  N_9
REMARK    4  A    between atoms: C_10  and  C_12
REMARK    5  A    between atoms: C_12  and  C_13
REMARK    6  A    between atoms: C_12  and  C_14
REMARK    7  A    between atoms: C_18  and  C_19
REMARK    8  A    between atoms: C_23  and  C_24
REMARK                            x       y       z     vdW  Elec       q    Type
REMARK                         _______ _______ _______ _____ _____    ______ ____
ROOT
ATOM      1  N   UNL     1       7.534   8.157  17.218  0.00  0.00    +0.000 N 
ATOM      2  C   UNL     1       7.402   6.891  17.777  0.00  0.00    +0.000 C 
ATOM      3  O   UNL     1       7.786   6.569  18.900  0.00  0.00    +0.000 OA
ATOM      4  H   UNL     1       7.153   8.311  16.291  0.00  0.00    +0.000 HD
ENDROOT
BRANCH   1   8
ATOM      5  C   UNL     1       9.297  11.543  19.115  0.00  0.00    +0.000 A 
ATOM      6  C   UNL     1       9.537  10.252  19.586  0.00  0.00    +0.000 A 
ATOM      7  C   UNL     1       8.973   9.139  18.964  0.00  0.00    +0.000 A 
ATOM      8  C   UNL     1       8.137   9.269  17.852  0.00  0.00    +0.000 A 
ATOM      9  C   UNL     1       7.897  10.550  17.360  0.00  0.00    +0.000 A 
ATOM     10  C   UNL     1       8.470  11.671  17.985  0.00  0.00    +0.000 A 
BRANCH   5  14
ATOM     11  C   UNL     1       9.318  14.918  22.838  0.00  0.00    +0.000 C 
ATOM     12  C   UNL     1       9.893  14.352  21.576  0.00  0.00    +0.000 A 
ATOM     13  C   UNL     1       9.340  13.225  20.983  0.00  0.00    +0.000 A 
ATOM     14  C   UNL     1       9.880  12.719  19.792  0.00  0.00    +0.000 A 
ATOM     15  C   UNL     1      10.982  13.388  19.259  0.00  0.00    +0.000 A 
ATOM     16  C   UNL     1      11.482  14.500  19.915  0.00  0.00    +0.000 A 
ATOM     17  N   UNL     1      10.964  14.993  21.055  0.00  0.00    +0.000 NA
ENDBRANCH   5  14
ENDBRANCH   1   8
BRANCH   2  18
ATOM     18  C   UNL     1       6.698   5.861  16.891  0.00  0.00    +0.000 C 
ATOM     19  C   UNL     1       7.533   4.567  16.958  0.00  0.00    +0.000 C 
BRANCH  18  20
ATOM     20  C   UNL     1       5.258   5.638  17.334  0.00  0.00    +0.000 A 
ATOM     21  C   UNL     1       4.685   4.358  17.305  0.00  0.00    +0.000 A 
ATOM     22  C   UNL     1       3.356   4.172  17.690  0.00  0.00    +0.000 A 
ATOM     23  C   UNL     1       2.582   5.256  18.099  0.00  0.00    +0.000 A 
ATOM     24  C   UNL     1       3.117   6.556  18.152  0.00  0.00    +0.000 A 
ATOM     25  C   UNL     1       4.464   6.712  17.770  0.00  0.00    +0.000 A 
BRANCH  24  26
ATOM     26  C   UNL     1       2.304   7.710  18.595  0.00  0.00    +0.000 A 
ATOM     27  C   UNL     1       1.803   8.653  17.676  0.00  0.00    +0.000 A 
ATOM     28  C   UNL     1       1.074   9.770  18.095  0.00  0.00    +0.000 A 
ATOM     29  C   UNL     1       0.817   9.963  19.447  0.00  0.00    +0.000 A 
ATOM     30  C   UNL     1       1.278   9.036  20.382  0.00  0.00    +0.000 A 
ATOM     31  C   UNL     1       2.015   7.922  19.955  0.00  0.00    +0.000 A 
BRANCH  30  32
ATOM     32  C   UNL     1       1.016   9.217  21.775  0.00  0.00    +0.000 C 
ATOM     33  N   UNL     1       0.795   9.363  22.903  0.00  0.00    +0.000 NA
ENDBRANCH  30  32
ENDBRANCH  24  26
ENDBRANCH  18  20
ENDBRANCH   2  18
TORSDOF 6
ENDMDL
MODEL 7
REMARK VINA RESULT:      -8.9      5.772      7.963
REMARK  Name = 
REMARK  8 active torsions:
REMARK  status: ('A' for Active; 'I' for Inactive)
REMARK    1  A    between atoms: C_1  and  C_2
REMARK    2  A    between atoms: C_4  and  C_5
REMARK    3  A    between atoms: C_8  and  N_9
REMARK    4  A    between atoms: C_10  and  C_12
REMARK    5  A    between atoms: C_12  and  C_13
REMARK    6  A    between atoms: C_12  and  C_14
REMARK    7  A    between atoms: C_18  and  C_19
REMARK    8  A    between atoms: C_23  and  C_24
REMARK                            x       y       z     vdW  Elec       q    Type
REMARK                         _______ _______ _______ _____ _____    ______ ____
ROOT
ATOM      1  N   UNL     1       8.819   8.442  18.860  0.00  0.00    +0.000 N 
ATOM      2  C   UNL     1       7.981   7.702  18.035  0.00  0.00    +0.000 C 
ATOM      3  O   UNL     1       7.235   8.173  17.177  0.00  0.00    +0.000 OA
ATOM      4  H   UNL     1       9.411   7.939  19.513  0.00  0.00    +0.000 HD
ENDROOT
BRANCH   1   8
ATOM      5  C   UNL     1       9.233  12.685  18.861  0.00  0.00    +0.000 A 
ATOM      6  C   UNL     1       8.741  12.013  17.742  0.00  0.00    +0.000 A 
ATOM      7  C   UNL     1       8.592  10.626  17.738  0.00  0.00    +0.000 A 
ATOM      8  C   UNL     1       8.939   9.852  18.848  0.00  0.00    +0.000 A 
ATOM      9  C   UNL     1       9.421  10.507  19.980  0.00  0.00    +0.000 A 
ATOM     10  C   UNL     1       9.565  11.905  19.984  0.00  0.00    +0.000 A 
BRANCH   5  14
ATOM     11  C   UNL     1       7.703  17.311  20.086  0.00  0.00    +0.000 C 
ATOM     12  C   UNL     1       8.677  16.381  19.428  0.00  0.00    +0.000 A 
ATOM     13  C   UNL     1       8.498  15.006  19.486  0.00  0.00    +0.000 A 
ATOM     14  C   UNL     1       9.409  14.151  18.850  0.00  0.00    +0.000 A 
ATOM     15  C   UNL     1      10.482  14.746  18.184  0.00  0.00    +0.000 A 
ATOM     16  C   UNL     1      10.595  16.126  18.181  0.00  0.00    +0.000 A 
ATOM     17  N   UNL     1       9.720  16.951  18.785  0.00  0.00    +0.000 NA
ENDBRANCH   5  14
ENDBRANCH   1   8
BRANCH   2  18
ATOM     18  C   UNL     1       8.046   6.186  18.234  0.00  0.00    +0.000 C 
ATOM     19  C   UNL     1       7.892   5.926  19.745  0.00  0.00    +0.000 C 
BRANCH  18  20
ATOM     20  C   UNL     1       6.978   5.471  17.416  0.00  0.00    +0.000 A 
ATOM     21  C   UNL     1       7.169   5.211  16.052  0.00  0.00    +0.000 A 
ATOM     22  C   UNL     1       6.171   4.579  15.309  0.00  0.00    +0.000 A 
ATOM     23  C   UNL     1       4.972   4.206  15.912  0.00  0.00    +0.000 A 
ATOM     24  C   UNL     1       4.740   4.439  17.279  0.00  0.00    +0.000 A 
ATOM     25  C   UNL     1       5.769   5.067  18.007  0.00  0.00    +0.000 A 
BRANCH  24  26
ATOM     26  C   UNL     1       3.473   4.036  17.930  0.00  0.00    +0.000 A 
ATOM     27  C   UNL     1       2.264   3.974  17.210  0.00  0.00    +0.000 A 
ATOM     28  C   UNL     1       1.057   3.639  17.830  0.00  0.00    +0.000 A 
ATOM     29  C   UNL     1       1.034   3.342  19.188  0.00  0.00    +0.000 A 
ATOM     30  C   UNL     1       2.217   3.370  19.926  0.00  0.00    +0.000 A 
ATOM     31  C   UNL     1       3.423   3.715  19.298  0.00  0.00    +0.000 A 
BRANCH  30  32
ATOM     32  C   UNL     1       2.211   3.061  21.321  0.00  0.00    +0.000 C 
ATOM     33  N   UNL     1       2.202   2.802  22.450  0.00  0.00    +0.000 NA
ENDBRANCH  30  32
ENDBRANCH  24  26
ENDBRANCH  18  20
ENDBRANCH   2  18
TORSDOF 6
ENDMDL
MODEL 8
REMARK VINA RESULT:      -8.8      3.187     10.935
REMARK  Name = 
REMARK  8 active torsions:
REMARK  status: ('A' for Active; 'I' for Inactive)
REMARK    1  A    between atoms: C_1  and  C_2
REMARK    2  A    between atoms: C_4  and  C_5
REMARK    3  A    between atoms: C_8  and  N_9
REMARK    4  A    between atoms: C_10  and  C_12
REMARK    5  A    between atoms: C_12  and  C_13
REMARK    6  A    between atoms: C_12  and  C_14
REMARK    7  A    between atoms: C_18  and  C_19
REMARK    8  A    between atoms: C_23  and  C_24
REMARK                            x       y       z     vdW  Elec       q    Type
REMARK                         _______ _______ _______ _____ _____    ______ ____
ROOT
ATOM      1  N   UNL     1       0.423  11.011  21.013  0.00  0.00    +0.000 N 
ATOM      2  C   UNL     1      -0.445  10.942  22.095  0.00  0.00    +0.000 C 
ATOM      3  O   UNL     1      -0.838   9.903  22.624  0.00  0.00    +0.000 OA
ATOM      4  H   UNL     1       0.698  11.929  20.680  0.00  0.00    +0.000 HD
ENDROOT
BRANCH   1   8
ATOM      5  C   UNL     1       2.144   7.696  18.960  0.00  0.00    +0.000 A 
ATOM      6  C   UNL     1       1.891   7.637  20.330  0.00  0.00    +0.000 A 
ATOM      7  C   UNL     1       1.319   8.714  21.007  0.00  0.00    +0.000 A 
ATOM      8  C   UNL     1       0.984   9.897  20.344  0.00  0.00    +0.000 A 
ATOM      9  C   UNL     1       1.216   9.969  18.972  0.00  0.00    +0.000 A 
ATOM     10  C   UNL     1       1.789   8.882  18.291  0.00  0.00    +0.000 A 
BRANCH   5  14
ATOM     11  C   UNL     1       2.275   2.839  17.676  0.00  0.00    +0.000 C 
ATOM     12  C   UNL     1       2.847   4.223  17.638  0.00  0.00    +0.000 A 
ATOM     13  C   UNL     1       2.213   5.275  18.286  0.00  0.00    +0.000 A 
ATOM     14  C   UNL     1       2.772   6.560  18.254  0.00  0.00    +0.000 A 
ATOM     15  C   UNL     1       3.962   6.719  17.544  0.00  0.00    +0.000 A 
ATOM     16  C   UNL     1       4.528   5.622  16.915  0.00  0.00    +0.000 A 
ATOM     17  N   UNL     1       3.999   4.385  16.947  0.00  0.00    +0.000 NA
ENDBRANCH   5  14
ENDBRANCH   1   8
BRANCH   2  18
ATOM     18  C   UNL     1      -0.901  12.294  22.650  0.00  0.00    +0.000 C 
ATOM     19  C   UNL     1      -0.087  13.377  21.915  0.00  0.00    +0.000 C 
BRANCH  18  20
ATOM     20  C   UNL     1      -2.402  12.489  22.478  0.00  0.00    +0.000 A 
ATOM     21  C   UNL     1      -3.236  12.672  23.590  0.00  0.00    +0.000 A 
ATOM     22  C   UNL     1      -4.614  12.823  23.420  0.00  0.00    +0.000 A 
ATOM     23  C   UNL     1      -5.175  12.785  22.146  0.00  0.00    +0.000 A 
ATOM     24  C   UNL     1      -4.376  12.612  21.001  0.00  0.00    +0.000 A 
ATOM     25  C   UNL     1      -2.989  12.474  21.202  0.00  0.00    +0.000 A 
BRANCH  24  26
ATOM     26  C   UNL     1      -4.964  12.581  19.644  0.00  0.00    +0.000 A 
ATOM     27  C   UNL     1      -6.203  13.191  19.365  0.00  0.00    +0.000 A 
ATOM     28  C   UNL     1      -6.784  13.125  18.095  0.00  0.00    +0.000 A 
ATOM     29  C   UNL     1      -6.129  12.457  17.066  0.00  0.00    +0.000 A 
ATOM     30  C   UNL     1      -4.889  11.862  17.302  0.00  0.00    +0.000 A 
ATOM     31  C   UNL     1      -4.317  11.926  18.581  0.00  0.00    +0.000 A 
BRANCH  30  32
ATOM     32  C   UNL     1      -4.201  11.178  16.254  0.00  0.00    +0.000 C 
ATOM     33  N   UNL     1      -3.638  10.618  15.410  0.00  0.00    +0.000 NA
ENDBRANCH  30  32
ENDBRANCH  24  26
ENDBRANCH  18  20
ENDBRANCH   2  18
TORSDOF 6
ENDMDL
MODEL 9
REMARK VINA RESULT:      -8.7      2.283      3.634
REMARK  Name = 
REMARK  8 active torsions:
REMARK  status: ('A' for Active; 'I' for Inactive)
REMARK    1  A    between atoms: C_1  and  C_2
REMARK    2  A    between atoms: C_4  and  C_5
REMARK    3  A    between atoms: C_8  and  N_9
REMARK    4  A    between atoms: C_10  and  C_12
REMARK    5  A    between atoms: C_12  and  C_13
REMARK    6  A    between atoms: C_12  and  C_14
REMARK    7  A    between atoms: C_18  and  C_19
REMARK    8  A    between atoms: C_23  and  C_24
REMARK                            x       y       z     vdW  Elec       q    Type
REMARK                         _______ _______ _______ _____ _____    ______ ____
ROOT
ATOM      1  N   UNL     1       2.417   6.242  20.456  0.00  0.00    +0.000 N 
ATOM      2  C   UNL     1       1.616   5.121  20.635  0.00  0.00    +0.000 C 
ATOM      3  O   UNL     1       0.392   5.097  20.513  0.00  0.00    +0.000 OA
ATOM      4  H   UNL     1       3.420   6.133  20.558  0.00  0.00    +0.000 HD
ENDROOT
BRANCH   1   8
ATOM      5  C   UNL     1       1.022  10.151  19.481  0.00  0.00    +0.000 A 
ATOM      6  C   UNL     1       1.627   9.344  18.517  0.00  0.00    +0.000 A 
ATOM      7  C   UNL     1       2.076   8.061  18.826  0.00  0.00    +0.000 A 
ATOM      8  C   UNL     1       1.948   7.533  20.112  0.00  0.00    +0.000 A 
ATOM      9  C   UNL     1       1.334   8.319  21.086  0.00  0.00    +0.000 A 
ATOM     10  C   UNL     1       0.878   9.610  20.772  0.00  0.00    +0.000 A 
BRANCH   5  14
ATOM     11  C   UNL     1       1.942  15.035  18.741  0.00  0.00    +0.000 C 
ATOM     12  C   UNL     1       1.001  13.870  18.803  0.00  0.00    +0.000 A 
ATOM     13  C   UNL     1       1.466  12.593  19.083  0.00  0.00    +0.000 A 
ATOM     14  C   UNL     1       0.569  11.517  19.153  0.00  0.00    +0.000 A 
ATOM     15  C   UNL     1      -0.779  11.797  18.923  0.00  0.00    +0.000 A 
ATOM     16  C   UNL     1      -1.162  13.097  18.640  0.00  0.00    +0.000 A 
ATOM     17  N   UNL     1      -0.306  14.134  18.576  0.00  0.00    +0.000 NA
ENDBRANCH   5  14
ENDBRANCH   1   8
BRANCH   2  18
ATOM     18  C   UNL     1       2.367   3.836  20.991  0.00  0.00    +0.000 C 
ATOM     19  C   UNL     1       1.357   2.905  21.689  0.00  0.00    +0.000 C 
BRANCH  18  20
ATOM     20  C   UNL     1       2.983   3.192  19.755  0.00  0.00    +0.000 A 
ATOM     21  C   UNL     1       2.713   1.855  19.430  0.00  0.00    +0.000 A 
ATOM     22  C   UNL     1       3.304   1.269  18.309  0.00  0.00    +0.000 A 
ATOM     23  C   UNL     1       4.174   2.003  17.506  0.00  0.00    +0.000 A 
ATOM     24  C   UNL     1       4.468   3.349  17.790  0.00  0.00    +0.000 A 
ATOM     25  C   UNL     1       3.848   3.917  18.919  0.00  0.00    +0.000 A 
BRANCH  24  26
ATOM     26  C   UNL     1       5.383   4.138  16.936  0.00  0.00    +0.000 A 
ATOM     27  C   UNL     1       5.740   3.704  15.644  0.00  0.00    +0.000 A 
ATOM     28  C   UNL     1       6.640   4.423  14.851  0.00  0.00    +0.000 A 
ATOM     29  C   UNL     1       7.195   5.605  15.330  0.00  0.00    +0.000 A 
ATOM     30  C   UNL     1       6.843   6.076  16.595  0.00  0.00    +0.000 A 
ATOM     31  C   UNL     1       5.946   5.345  17.387  0.00  0.00    +0.000 A 
BRANCH  30  32
ATOM     32  C   UNL     1       7.399   7.292  17.097  0.00  0.00    +0.000 C 
ATOM     33  N   UNL     1       7.858   8.275  17.507  0.00  0.00    +0.000 NA
ENDBRANCH  30  32
ENDBRANCH  24  26
ENDBRANCH  18  20
ENDBRANCH   2  18
TORSDOF 6
ENDMDL
