MODEL 1
REMARK VINA RESULT:      -8.8      0.000      0.000
REMARK  Name = 
REMARK  4 active torsions:
REMARK  status: ('A' for Active; 'I' for Inactive)
REMARK    1  A    between atoms: N_1  and  C_2
REMARK    2  A    between atoms: C_4  and  C_5
REMARK    3  A    between atoms: C_7  and  C_8
REMARK    4  A    between atoms: C_13  and  C_14
REMARK                            x       y       z     vdW  Elec       q    Type
REMARK                         _______ _______ _______ _____ _____    ______ ____
ROOT
ATOM      1  C   UNL     1       0.157   9.294  22.298  0.00  0.00    +0.000 A 
ATOM      2  N   UNL     1       0.623   8.159  21.762  0.00  0.00    +0.000 NA
ATOM      3  C   UNL     1       1.298   8.273  20.609  0.00  0.00    +0.000 A 
ATOM      4  N   UNL     1       1.517   9.431  19.974  0.00  0.00    +0.000 NA
ATOM      5  C   UNL     1       1.032  10.539  20.525  0.00  0.00    +0.000 A 
ATOM      6  N   UNL     1       1.234  11.694  19.890  0.00  0.00    +0.000 NA
ATOM      7  C   UNL     1       0.738  12.854  20.401  0.00  0.00    +0.000 A 
ATOM      8  C   UNL     1       0.927  14.085  19.755  0.00  0.00    +0.000 A 
ATOM      9 CL   UNL     1       1.818  14.178  18.272  0.00  0.00    +0.000 Cl
ATOM     10  C   UNL     1       0.411  15.281  20.263  0.00  0.00    +0.000 A 
ATOM     11  C   UNL     1      -0.315  15.263  21.442  0.00  0.00    +0.000 A 
ATOM     12  C   UNL     1      -0.510  14.050  22.101  0.00  0.00    +0.000 A 
ATOM     13 CL   UNL     1      -1.436  14.080  23.567  0.00  0.00    +0.000 Cl
ATOM     14  C   UNL     1       0.006  12.844  21.607  0.00  0.00    +0.000 A 
ATOM     15  N   UNL     1      -0.193  11.683  22.260  0.00  0.00    +0.000 NA
ATOM     16  C   UNL     1       0.323  10.546  21.721  0.00  0.00    +0.000 A 
ENDROOT
BRANCH   3  17
ATOM     17  C   UNL     1       1.853   7.040  20.011  0.00  0.00    +0.000 A 
ATOM     18  C   UNL     1       1.439   5.768  20.453  0.00  0.00    +0.000 A 
ATOM     19  C   UNL     1       1.948   4.581  19.899  0.00  0.00    +0.000 A 
ATOM     20  C   UNL     1       2.910   4.668  18.883  0.00  0.00    +0.000 A 
ATOM     21  C   UNL     1       3.357   5.910  18.417  0.00  0.00    +0.000 A 
ATOM     22  C   UNL     1       2.818   7.082  18.984  0.00  0.00    +0.000 A 
BRANCH  19  23
ATOM     23  C   UNL     1       1.469   3.231  20.379  0.00  0.00    +0.000 C 
ATOM     24  F   UNL     1       1.168   3.198  21.707  0.00  0.00    +0.000 F 
ATOM     25  F   UNL     1       0.342   2.826  19.731  0.00  0.00    +0.000 F 
ATOM     26  F   UNL     1       2.391   2.252  20.178  0.00  0.00    +0.000 F 
ENDBRANCH  19  23
BRANCH  21  27
ATOM     27  C   UNL     1       4.394   6.007  17.322  0.00  0.00    +0.000 C 
ATOM     28  F   UNL     1       4.240   7.106  16.531  0.00  0.00    +0.000 F 
ATOM     29  F   UNL     1       5.663   6.075  17.809  0.00  0.00    +0.000 F 
ATOM     30  F   UNL     1       4.367   4.937  16.482  0.00  0.00    +0.000 F 
ENDBRANCH  21  27
ENDBRANCH   3  17
BRANCH   1  31
ATOM     31  N   UNL     1      -0.435   9.180  23.565  0.00  0.00    +0.000 N 
ATOM     32  H   UNL     1      -1.415   8.933  23.493  0.00  0.00    +0.000 HD
ATOM     33  H   UNL     1      -0.222   9.970  24.168  0.00  0.00    +0.000 HD
ENDBRANCH   1  31
TORSDOF 4
ENDMDL
MODEL 2
REMARK VINA RESULT:      -8.8      0.020      3.139
REMARK  Name = 
REMARK  4 active torsions:
REMARK  status: ('A' for Active; 'I' for Inactive)
REMARK    1  A    between atoms: N_1  and  C_2
REMARK    2  A    between atoms: C_4  and  C_5
REMARK    3  A    between atoms: C_7  and  C_8
REMARK    4  A    between atoms: C_13  and  C_14
REMARK                            x       y       z     vdW  Elec       q    Type
REMARK                         _______ _______ _______ _____ _____    ______ ____
ROOT
ATOM      1  C   UNL     1       0.157   9.297  22.300  0.00  0.00    +0.000 A 
ATOM      2  N   UNL     1       0.622   8.162  21.764  0.00  0.00    +0.000 NA
ATOM      3  C   UNL     1       1.295   8.274  20.609  0.00  0.00    +0.000 A 
ATOM      4  N   UNL     1       1.513   9.431  19.973  0.00  0.00    +0.000 NA
ATOM      5  C   UNL     1       1.029  10.540  20.523  0.00  0.00    +0.000 A 
ATOM      6  N   UNL     1       1.230  11.694  19.886  0.00  0.00    +0.000 NA
ATOM      7  C   UNL     1       0.737  12.854  20.397  0.00  0.00    +0.000 A 
ATOM      8  C   UNL     1       0.924  14.084  19.749  0.00  0.00    +0.000 A 
ATOM      9 CL   UNL     1       1.813  14.175  18.264  0.00  0.00    +0.000 Cl
ATOM     10  C   UNL     1       0.411  15.282  20.257  0.00  0.00    +0.000 A 
ATOM     11  C   UNL     1      -0.313  15.266  21.438  0.00  0.00    +0.000 A 
ATOM     12  C   UNL     1      -0.507  14.054  22.098  0.00  0.00    +0.000 A 
ATOM     13 CL   UNL     1      -1.429  14.086  23.567  0.00  0.00    +0.000 Cl
ATOM     14  C   UNL     1       0.007  12.847  21.604  0.00  0.00    +0.000 A 
ATOM     15  N   UNL     1      -0.191  11.687  22.259  0.00  0.00    +0.000 NA
ATOM     16  C   UNL     1       0.323  10.549  21.721  0.00  0.00    +0.000 A 
ENDROOT
BRANCH   3  17
ATOM     17  C   UNL     1       1.847   7.039  20.012  0.00  0.00    +0.000 A 
ATOM     18  C   UNL     1       2.806   7.096  18.981  0.00  0.00    +0.000 A 
ATOM     19  C   UNL     1       3.349   5.938  18.400  0.00  0.00    +0.000 A 
ATOM     20  C   UNL     1       2.911   4.685  18.853  0.00  0.00    +0.000 A 
ATOM     21  C   UNL     1       1.955   4.580  19.872  0.00  0.00    +0.000 A 
ATOM     22  C   UNL     1       1.439   5.760  20.443  0.00  0.00    +0.000 A 
BRANCH  19  23
ATOM     23  C   UNL     1       4.390   6.029  17.310  0.00  0.00    +0.000 C 
ATOM     24  F   UNL     1       4.384   4.968  16.456  0.00  0.00    +0.000 F 
ATOM     25  F   UNL     1       4.224   7.135  16.533  0.00  0.00    +0.000 F 
ATOM     26  F   UNL     1       5.655   6.105  17.806  0.00  0.00    +0.000 F 
ENDBRANCH  19  23
BRANCH  21  27
ATOM     27  C   UNL     1       1.481   3.232  20.362  0.00  0.00    +0.000 C 
ATOM     28  F   UNL     1       2.403   2.243  20.189  0.00  0.00    +0.000 F 
ATOM     29  F   UNL     1       1.182   3.233  21.689  0.00  0.00    +0.000 F 
ATOM     30  F   UNL     1       0.358   2.808  19.720  0.00  0.00    +0.000 F 
ENDBRANCH  21  27
ENDBRANCH   3  17
BRANCH   1  31
ATOM     31  N   UNL     1      -0.432   9.186  23.568  0.00  0.00    +0.000 N 
ATOM     32  H   UNL     1      -1.311   9.688  23.612  0.00  0.00    +0.000 HD
ATOM     33  H   UNL     1       0.224   9.376  24.322  0.00  0.00    +0.000 HD
ENDBRANCH   1  31
TORSDOF 4
ENDMDL
MODEL 3
REMARK VINA RESULT:      -8.7      0.751      1.068
REMARK  Name = 
REMARK  4 active torsions:
REMARK  status: ('A' for Active; 'I' for Inactive)
REMARK    1  A    between atoms: N_1  and  C_2
REMARK    2  A    between atoms: C_4  and  C_5
REMARK    3  A    between atoms: C_7  and  C_8
REMARK    4  A    between atoms: C_13  and  C_14
REMARK                            x       y       z     vdW  Elec       q    Type
REMARK                         _______ _______ _______ _____ _____    ______ ____
ROOT
ATOM      1  C   UNL     1      -0.015   8.973  21.895  0.00  0.00    +0.000 A 
ATOM      2  N   UNL     1       0.521   7.811  21.502  0.00  0.00    +0.000 NA
ATOM      3  C   UNL     1       1.347   7.857  20.447  0.00  0.00    +0.000 A 
ATOM      4  N   UNL     1       1.650   8.974  19.774  0.00  0.00    +0.000 NA
ATOM      5  C   UNL     1       1.092  10.110  20.181  0.00  0.00    +0.000 A 
ATOM      6  N   UNL     1       1.378  11.224  19.506  0.00  0.00    +0.000 NA
ATOM      7  C   UNL     1       0.816  12.409  19.869  0.00  0.00    +0.000 A 
ATOM      8  C   UNL     1       1.090  13.598  19.176  0.00  0.00    +0.000 A 
ATOM      9 CL   UNL     1       2.176  13.605  17.825  0.00  0.00    +0.000 Cl
ATOM     10  C   UNL     1       0.509  14.820  19.531  0.00  0.00    +0.000 A 
ATOM     11  C   UNL     1      -0.371  14.870  20.599  0.00  0.00    +0.000 A 
ATOM     12  C   UNL     1      -0.653  13.700  21.302  0.00  0.00    +0.000 A 
ATOM     13 CL   UNL     1      -1.770  13.814  22.623  0.00  0.00    +0.000 Cl
ATOM     14  C   UNL     1      -0.073  12.470  20.961  0.00  0.00    +0.000 A 
ATOM     15  N   UNL     1      -0.359  11.351  21.655  0.00  0.00    +0.000 NA
ATOM     16  C   UNL     1       0.227  10.187  21.267  0.00  0.00    +0.000 A 
ENDROOT
BRANCH   3  17
ATOM     17  C   UNL     1       1.979   6.593  20.012  0.00  0.00    +0.000 A 
ATOM     18  C   UNL     1       1.684   5.374  20.653  0.00  0.00    +0.000 A 
ATOM     19  C   UNL     1       2.268   4.160  20.256  0.00  0.00    +0.000 A 
ATOM     20  C   UNL     1       3.186   4.165  19.196  0.00  0.00    +0.000 A 
ATOM     21  C   UNL     1       3.515   5.354  18.533  0.00  0.00    +0.000 A 
ATOM     22  C   UNL     1       2.902   6.554  18.946  0.00  0.00    +0.000 A 
BRANCH  19  23
ATOM     23  C   UNL     1       1.916   2.865  20.949  0.00  0.00    +0.000 C 
ATOM     24  F   UNL     1       0.709   2.891  21.579  0.00  0.00    +0.000 F 
ATOM     25  F   UNL     1       1.860   1.817  20.081  0.00  0.00    +0.000 F 
ATOM     26  F   UNL     1       2.828   2.518  21.897  0.00  0.00    +0.000 F 
ENDBRANCH  19  23
BRANCH  21  27
ATOM     27  C   UNL     1       4.504   5.364  17.391  0.00  0.00    +0.000 C 
ATOM     28  F   UNL     1       5.797   5.233  17.799  0.00  0.00    +0.000 F 
ATOM     29  F   UNL     1       4.290   4.353  16.505  0.00  0.00    +0.000 F 
ATOM     30  F   UNL     1       4.457   6.516  16.669  0.00  0.00    +0.000 F 
ENDBRANCH  21  27
ENDBRANCH   3  17
BRANCH   1  31
ATOM     31  N   UNL     1      -0.774   8.935  23.075  0.00  0.00    +0.000 N 
ATOM     32  H   UNL     1      -0.290   8.432  23.809  0.00  0.00    +0.000 HD
ATOM     33  H   UNL     1      -1.738   8.656  22.910  0.00  0.00    +0.000 HD
ENDBRANCH   1  31
TORSDOF 4
ENDMDL
MODEL 4
REMARK VINA RESULT:      -8.6      1.650      4.272
REMARK  Name = 
REMARK  4 active torsions:
REMARK  status: ('A' for Active; 'I' for Inactive)
REMARK    1  A    between atoms: N_1  and  C_2
REMARK    2  A    between atoms: C_4  and  C_5
REMARK    3  A    between atoms: C_7  and  C_8
REMARK    4  A    between atoms: C_13  and  C_14
REMARK                            x       y       z     vdW  Elec       q    Type
REMARK                         _______ _______ _______ _____ _____    ______ ____
ROOT
ATOM      1  C   UNL     1       2.187  11.113  18.122  0.00  0.00    +0.000 A 
ATOM      2  N   UNL     1       2.597   9.872  17.830  0.00  0.00    +0.000 NA
ATOM      3  C   UNL     1       2.148   8.889  18.625  0.00  0.00    +0.000 A 
ATOM      4  N   UNL     1       1.341   9.078  19.675  0.00  0.00    +0.000 NA
ATOM      5  C   UNL     1       0.961  10.322  19.947  0.00  0.00    +0.000 A 
ATOM      6  N   UNL     1       0.169  10.518  21.002  0.00  0.00    +0.000 NA
ATOM      7  C   UNL     1      -0.230  11.775  21.335  0.00  0.00    +0.000 A 
ATOM      8  C   UNL     1      -1.058  12.018  22.442  0.00  0.00    +0.000 A 
ATOM      9 CL   UNL     1      -1.620  10.709  23.430  0.00  0.00    +0.000 Cl
ATOM     10  C   UNL     1      -1.464  13.306  22.803  0.00  0.00    +0.000 A 
ATOM     11  C   UNL     1      -1.039  14.389  22.051  0.00  0.00    +0.000 A 
ATOM     12  C   UNL     1      -0.219  14.169  20.946  0.00  0.00    +0.000 A 
ATOM     13 CL   UNL     1       0.295  15.559  20.045  0.00  0.00    +0.000 Cl
ATOM     14  C   UNL     1       0.191  12.882  20.569  0.00  0.00    +0.000 A 
ATOM     15  N   UNL     1       0.983  12.691  19.496  0.00  0.00    +0.000 NA
ATOM     16  C   UNL     1       1.356  11.420  19.190  0.00  0.00    +0.000 A 
ENDROOT
BRANCH   3  17
ATOM     17  C   UNL     1       2.558   7.505  18.305  0.00  0.00    +0.000 A 
ATOM     18  C   UNL     1       3.617   7.247  17.412  0.00  0.00    +0.000 A 
ATOM     19  C   UNL     1       4.028   5.942  17.095  0.00  0.00    +0.000 A 
ATOM     20  C   UNL     1       3.352   4.860  17.677  0.00  0.00    +0.000 A 
ATOM     21  C   UNL     1       2.289   5.067  18.566  0.00  0.00    +0.000 A 
ATOM     22  C   UNL     1       1.910   6.389  18.873  0.00  0.00    +0.000 A 
BRANCH  19  23
ATOM     23  C   UNL     1       5.180   5.697  16.149  0.00  0.00    +0.000 C 
ATOM     24  F   UNL     1       5.198   4.442  15.622  0.00  0.00    +0.000 F 
ATOM     25  F   UNL     1       5.161   6.548  15.086  0.00  0.00    +0.000 F 
ATOM     26  F   UNL     1       6.389   5.871  16.748  0.00  0.00    +0.000 F 
ENDBRANCH  19  23
BRANCH  21  27
ATOM     27  C   UNL     1       1.559   3.904  19.194  0.00  0.00    +0.000 C 
ATOM     28  F   UNL     1       0.770   3.226  18.313  0.00  0.00    +0.000 F 
ATOM     29  F   UNL     1       2.405   2.978  19.723  0.00  0.00    +0.000 F 
ATOM     30  F   UNL     1       0.737   4.289  20.208  0.00  0.00    +0.000 F 
ENDBRANCH  21  27
ENDBRANCH   3  17
BRANCH   1  31
ATOM     31  N   UNL     1       2.557  12.115  17.212  0.00  0.00    +0.000 N 
ATOM     32  H   UNL     1       2.418  11.813  16.254  0.00  0.00    +0.000 HD
ATOM     33  H   UNL     1       3.468  12.516  17.421  0.00  0.00    +0.000 HD
ENDBRANCH   1  31
TORSDOF 4
ENDMDL
MODEL 5
REMARK VINA RESULT:      -8.6      1.649      3.036
REMARK  Name = 
REMARK  4 active torsions:
REMARK  status: ('A' for Active; 'I' for Inactive)
REMARK    1  A    between atoms: N_1  and  C_2
REMARK    2  A    between atoms: C_4  and  C_5
REMARK    3  A    between atoms: C_7  and  C_8
REMARK    4  A    between atoms: C_13  and  C_14
REMARK                            x       y       z     vdW  Elec       q    Type
REMARK                         _______ _______ _______ _____ _____    ______ ____
ROOT
ATOM      1  C   UNL     1       2.171  11.103  18.144  0.00  0.00    +0.000 A 
ATOM      2  N   UNL     1       2.578   9.863  17.844  0.00  0.00    +0.000 NA
ATOM      3  C   UNL     1       2.134   8.876  18.636  0.00  0.00    +0.000 A 
ATOM      4  N   UNL     1       1.332   9.060  19.692  0.00  0.00    +0.000 NA
ATOM      5  C   UNL     1       0.954  10.303  19.972  0.00  0.00    +0.000 A 
ATOM      6  N   UNL     1       0.167  10.494  21.032  0.00  0.00    +0.000 NA
ATOM      7  C   UNL     1      -0.229  11.749  21.374  0.00  0.00    +0.000 A 
ATOM      8  C   UNL     1      -1.051  11.986  22.486  0.00  0.00    +0.000 A 
ATOM      9 CL   UNL     1      -1.608  10.673  23.470  0.00  0.00    +0.000 Cl
ATOM     10  C   UNL     1      -1.455  13.273  22.856  0.00  0.00    +0.000 A 
ATOM     11  C   UNL     1      -1.033  14.360  22.108  0.00  0.00    +0.000 A 
ATOM     12  C   UNL     1      -0.220  14.145  20.997  0.00  0.00    +0.000 A 
ATOM     13 CL   UNL     1       0.290  15.539  20.101  0.00  0.00    +0.000 Cl
ATOM     14  C   UNL     1       0.188  12.860  20.611  0.00  0.00    +0.000 A 
ATOM     15  N   UNL     1       0.974  12.674  19.533  0.00  0.00    +0.000 NA
ATOM     16  C   UNL     1       1.345  11.404  19.219  0.00  0.00    +0.000 A 
ENDROOT
BRANCH   3  17
ATOM     17  C   UNL     1       2.542   7.494  18.307  0.00  0.00    +0.000 A 
ATOM     18  C   UNL     1       1.891   6.386  18.886  0.00  0.00    +0.000 A 
ATOM     19  C   UNL     1       2.258   5.063  18.588  0.00  0.00    +0.000 A 
ATOM     20  C   UNL     1       3.314   4.840  17.694  0.00  0.00    +0.000 A 
ATOM     21  C   UNL     1       3.995   5.910  17.099  0.00  0.00    +0.000 A 
ATOM     22  C   UNL     1       3.595   7.224  17.409  0.00  0.00    +0.000 A 
BRANCH  19  23
ATOM     23  C   UNL     1       1.528   3.895  19.208  0.00  0.00    +0.000 C 
ATOM     24  F   UNL     1       0.823   3.151  18.312  0.00  0.00    +0.000 F 
ATOM     25  F   UNL     1       2.378   3.029  19.826  0.00  0.00    +0.000 F 
ATOM     26  F   UNL     1       0.635   4.286  20.157  0.00  0.00    +0.000 F 
ENDBRANCH  19  23
BRANCH  21  27
ATOM     27  C   UNL     1       5.134   5.672  16.136  0.00  0.00    +0.000 C 
ATOM     28  F   UNL     1       5.164   6.566  15.108  0.00  0.00    +0.000 F 
ATOM     29  F   UNL     1       6.353   5.755  16.736  0.00  0.00    +0.000 F 
ATOM     30  F   UNL     1       5.080   4.442  15.556  0.00  0.00    +0.000 F 
ENDBRANCH  21  27
ENDBRANCH   3  17
BRANCH   1  31
ATOM     31  N   UNL     1       2.536  12.109  17.238  0.00  0.00    +0.000 N 
ATOM     32  H   UNL     1       3.509  12.369  17.347  0.00  0.00    +0.000 HD
ATOM     33  H   UNL     1       1.872  12.879  17.221  0.00  0.00    +0.000 HD
ENDBRANCH   1  31
TORSDOF 4
ENDMDL
MODEL 6
REMARK VINA RESULT:      -8.5      1.506      2.957
REMARK  Name = 
REMARK  4 active torsions:
REMARK  status: ('A' for Active; 'I' for Inactive)
REMARK    1  A    between atoms: N_1  and  C_2
REMARK    2  A    between atoms: C_4  and  C_5
REMARK    3  A    between atoms: C_7  and  C_8
REMARK    4  A    between atoms: C_13  and  C_14
REMARK                            x       y       z     vdW  Elec       q    Type
REMARK                         _______ _______ _______ _____ _____    ______ ____
ROOT
ATOM      1  C   UNL     1       2.070  11.120  18.260  0.00  0.00    +0.000 A 
ATOM      2  N   UNL     1       2.506   9.862  18.117  0.00  0.00    +0.000 NA
ATOM      3  C   UNL     1       2.020   8.956  18.979  0.00  0.00    +0.000 A 
ATOM      4  N   UNL     1       1.152   9.237  19.958  0.00  0.00    +0.000 NA
ATOM      5  C   UNL     1       0.747  10.497  20.082  0.00  0.00    +0.000 A 
ATOM      6  N   UNL     1      -0.108  10.785  21.066  0.00  0.00    +0.000 NA
ATOM      7  C   UNL     1      -0.535  12.063  21.249  0.00  0.00    +0.000 A 
ATOM      8  C   UNL     1      -1.428  12.402  22.277  0.00  0.00    +0.000 A 
ATOM      9 CL   UNL     1      -2.035  11.190  23.357  0.00  0.00    +0.000 Cl
ATOM     10  C   UNL     1      -1.865  13.714  22.484  0.00  0.00    +0.000 A 
ATOM     11  C   UNL     1      -1.406  14.724  21.654  0.00  0.00    +0.000 A 
ATOM     12  C   UNL     1      -0.522  14.406  20.624  0.00  0.00    +0.000 A 
ATOM     13 CL   UNL     1       0.032  15.708  19.621  0.00  0.00    +0.000 Cl
ATOM     14  C   UNL     1      -0.080  13.095  20.401  0.00  0.00    +0.000 A 
ATOM     15  N   UNL     1       0.774  12.810  19.400  0.00  0.00    +0.000 NA
ATOM     16  C   UNL     1       1.175  11.520  19.244  0.00  0.00    +0.000 A 
ENDROOT
BRANCH   3  17
ATOM     17  C   UNL     1       2.459   7.553  18.823  0.00  0.00    +0.000 A 
ATOM     18  C   UNL     1       1.981   6.541  19.679  0.00  0.00    +0.000 A 
ATOM     19  C   UNL     1       2.380   5.201  19.548  0.00  0.00    +0.000 A 
ATOM     20  C   UNL     1       3.295   4.863  18.542  0.00  0.00    +0.000 A 
ATOM     21  C   UNL     1       3.803   5.836  17.671  0.00  0.00    +0.000 A 
ATOM     22  C   UNL     1       3.373   7.169  17.820  0.00  0.00    +0.000 A 
BRANCH  19  23
ATOM     23  C   UNL     1       1.834   4.135  20.468  0.00  0.00    +0.000 C 
ATOM     24  F   UNL     1       0.473   4.106  20.526  0.00  0.00    +0.000 F 
ATOM     25  F   UNL     1       2.218   2.884  20.089  0.00  0.00    +0.000 F 
ATOM     26  F   UNL     1       2.262   4.286  21.750  0.00  0.00    +0.000 F 
ENDBRANCH  19  23
BRANCH  21  27
ATOM     27  C   UNL     1       4.790   5.474  16.586  0.00  0.00    +0.000 C 
ATOM     28  F   UNL     1       6.062   5.315  17.048  0.00  0.00    +0.000 F 
ATOM     29  F   UNL     1       4.474   4.309  15.958  0.00  0.00    +0.000 F 
ATOM     30  F   UNL     1       4.865   6.422  15.612  0.00  0.00    +0.000 F 
ENDBRANCH  21  27
ENDBRANCH   3  17
BRANCH   1  31
ATOM     31  N   UNL     1       2.483  12.032  17.278  0.00  0.00    +0.000 N 
ATOM     32  H   UNL     1       2.462  11.614  16.354  0.00  0.00    +0.000 HD
ATOM     33  H   UNL     1       3.345  12.511  17.527  0.00  0.00    +0.000 HD
ENDBRANCH   1  31
TORSDOF 4
ENDMDL
MODEL 7
REMARK VINA RESULT:      -8.5      1.520      4.167
REMARK  Name = 
REMARK  4 active torsions:
REMARK  status: ('A' for Active; 'I' for Inactive)
REMARK    1  A    between atoms: N_1  and  C_2
REMARK    2  A    between atoms: C_4  and  C_5
REMARK    3  A    between atoms: C_7  and  C_8
REMARK    4  A    between atoms: C_13  and  C_14
REMARK                            x       y       z     vdW  Elec       q    Type
REMARK                         _______ _______ _______ _____ _____    ______ ____
ROOT
ATOM      1  C   UNL     1       2.065  11.180  18.246  0.00  0.00    +0.000 A 
ATOM      2  N   UNL     1       2.501   9.922  18.107  0.00  0.00    +0.000 NA
ATOM      3  C   UNL     1       2.010   9.017  18.967  0.00  0.00    +0.000 A 
ATOM      4  N   UNL     1       1.136   9.299  19.940  0.00  0.00    +0.000 NA
ATOM      5  C   UNL     1       0.730  10.559  20.061  0.00  0.00    +0.000 A 
ATOM      6  N   UNL     1      -0.130  10.848  21.038  0.00  0.00    +0.000 NA
ATOM      7  C   UNL     1      -0.559  12.127  21.217  0.00  0.00    +0.000 A 
ATOM      8  C   UNL     1      -1.457  12.467  22.240  0.00  0.00    +0.000 A 
ATOM      9 CL   UNL     1      -2.071  11.256  23.317  0.00  0.00    +0.000 Cl
ATOM     10  C   UNL     1      -1.896  13.779  22.443  0.00  0.00    +0.000 A 
ATOM     11  C   UNL     1      -1.431  14.788  21.614  0.00  0.00    +0.000 A 
ATOM     12  C   UNL     1      -0.542  14.469  20.590  0.00  0.00    +0.000 A 
ATOM     13 CL   UNL     1       0.019  15.769  19.588  0.00  0.00    +0.000 Cl
ATOM     14  C   UNL     1      -0.098  13.157  20.372  0.00  0.00    +0.000 A 
ATOM     15  N   UNL     1       0.762  12.871  19.375  0.00  0.00    +0.000 NA
ATOM     16  C   UNL     1       1.164  11.581  19.223  0.00  0.00    +0.000 A 
ENDROOT
BRANCH   3  17
ATOM     17  C   UNL     1       2.451   7.614  18.815  0.00  0.00    +0.000 A 
ATOM     18  C   UNL     1       3.375   7.245  17.817  0.00  0.00    +0.000 A 
ATOM     19  C   UNL     1       3.811   5.920  17.655  0.00  0.00    +0.000 A 
ATOM     20  C   UNL     1       3.299   4.931  18.506  0.00  0.00    +0.000 A 
ATOM     21  C   UNL     1       2.374   5.249  19.508  0.00  0.00    +0.000 A 
ATOM     22  C   UNL     1       1.965   6.589  19.653  0.00  0.00    +0.000 A 
BRANCH  19  23
ATOM     23  C   UNL     1       4.819   5.558  16.590  0.00  0.00    +0.000 C 
ATOM     24  F   UNL     1       6.093   5.441  17.058  0.00  0.00    +0.000 F 
ATOM     25  F   UNL     1       4.530   4.369  15.992  0.00  0.00    +0.000 F 
ATOM     26  F   UNL     1       4.870   6.478  15.589  0.00  0.00    +0.000 F 
ENDBRANCH  19  23
BRANCH  21  27
ATOM     27  C   UNL     1       1.820   4.184  20.426  0.00  0.00    +0.000 C 
ATOM     28  F   UNL     1       2.102   2.917  20.011  0.00  0.00    +0.000 F 
ATOM     29  F   UNL     1       2.310   4.278  21.692  0.00  0.00    +0.000 F 
ATOM     30  F   UNL     1       0.465   4.245  20.538  0.00  0.00    +0.000 F 
ENDBRANCH  21  27
ENDBRANCH   3  17
BRANCH   1  31
ATOM     31  N   UNL     1       2.484  12.091  17.265  0.00  0.00    +0.000 N 
ATOM     32  H   UNL     1       2.538  13.033  17.635  0.00  0.00    +0.000 HD
ATOM     33  H   UNL     1       1.973  11.987  16.392  0.00  0.00    +0.000 HD
ENDBRANCH   1  31
TORSDOF 4
ENDMDL
MODEL 8
REMARK VINA RESULT:      -8.5      1.943      4.526
REMARK  Name = 
REMARK  4 active torsions:
REMARK  status: ('A' for Active; 'I' for Inactive)
REMARK    1  A    between atoms: N_1  and  C_2
REMARK    2  A    between atoms: C_4  and  C_5
REMARK    3  A    between atoms: C_7  and  C_8
REMARK    4  A    between atoms: C_13  and  C_14
REMARK                            x       y       z     vdW  Elec       q    Type
REMARK                         _______ _______ _______ _____ _____    ______ ____
ROOT
ATOM      1  C   UNL     1       2.298  10.379  18.012  0.00  0.00    +0.000 A 
ATOM      2  N   UNL     1       2.805   9.204  17.616  0.00  0.00    +0.000 NA
ATOM      3  C   UNL     1       2.508   8.137  18.372  0.00  0.00    +0.000 A 
ATOM      4  N   UNL     1       1.758   8.182  19.480  0.00  0.00    +0.000 NA
ATOM      5  C   UNL     1       1.279   9.364  19.854  0.00  0.00    +0.000 A 
ATOM      6  N   UNL     1       0.544   9.418  20.966  0.00  0.00    +0.000 NA
ATOM      7  C   UNL     1       0.049  10.607  21.403  0.00  0.00    +0.000 A 
ATOM      8  C   UNL     1      -0.722  10.700  22.572  0.00  0.00    +0.000 A 
ATOM      9 CL   UNL     1      -1.087   9.286  23.506  0.00  0.00    +0.000 Cl
ATOM     10  C   UNL     1      -1.225  11.918  23.039  0.00  0.00    +0.000 A 
ATOM     11  C   UNL     1      -0.958  13.080  22.335  0.00  0.00    +0.000 A 
ATOM     12  C   UNL     1      -0.197  13.008  21.169  0.00  0.00    +0.000 A 
ATOM     13 CL   UNL     1       0.119  14.493  20.331  0.00  0.00    +0.000 Cl
ATOM     14  C   UNL     1       0.309  11.793  20.686  0.00  0.00    +0.000 A 
ATOM     15  N   UNL     1       1.042  11.746  19.557  0.00  0.00    +0.000 NA
ATOM     16  C   UNL     1       1.514  10.538  19.147  0.00  0.00    +0.000 A 
ENDROOT
BRANCH   3  17
ATOM     17  C   UNL     1       3.027   6.822  17.939  0.00  0.00    +0.000 A 
ATOM     18  C   UNL     1       4.222   6.719  17.200  0.00  0.00    +0.000 A 
ATOM     19  C   UNL     1       4.738   5.482  16.781  0.00  0.00    +0.000 A 
ATOM     20  C   UNL     1       4.032   4.313  17.097  0.00  0.00    +0.000 A 
ATOM     21  C   UNL     1       2.836   4.366  17.824  0.00  0.00    +0.000 A 
ATOM     22  C   UNL     1       2.352   5.621  18.241  0.00  0.00    +0.000 A 
BRANCH  19  23
ATOM     23  C   UNL     1       6.033   5.401  16.007  0.00  0.00    +0.000 C 
ATOM     24  F   UNL     1       6.981   6.281  16.434  0.00  0.00    +0.000 F 
ATOM     25  F   UNL     1       6.605   4.168  16.090  0.00  0.00    +0.000 F 
ATOM     26  F   UNL     1       5.862   5.648  14.680  0.00  0.00    +0.000 F 
ENDBRANCH  19  23
BRANCH  21  27
ATOM     27  C   UNL     1       2.073   3.108  18.166  0.00  0.00    +0.000 C 
ATOM     28  F   UNL     1       2.312   2.083  17.300  0.00  0.00    +0.000 F 
ATOM     29  F   UNL     1       2.380   2.629  19.402  0.00  0.00    +0.000 F 
ATOM     30  F   UNL     1       0.726   3.296  18.156  0.00  0.00    +0.000 F 
ENDBRANCH  21  27
ENDBRANCH   3  17
BRANCH   1  31
ATOM     31  N   UNL     1       2.507  11.464  17.148  0.00  0.00    +0.000 N 
ATOM     32  H   UNL     1       3.461  11.802  17.205  0.00  0.00    +0.000 HD
ATOM     33  H   UNL     1       1.782  12.172  17.228  0.00  0.00    +0.000 HD
ENDBRANCH   1  31
TORSDOF 4
ENDMDL
MODEL 9
REMARK VINA RESULT:      -8.4      1.884      3.305
REMARK  Name = 
REMARK  4 active torsions:
REMARK  status: ('A' for Active; 'I' for Inactive)
REMARK    1  A    between atoms: N_1  and  C_2
REMARK    2  A    between atoms: C_4  and  C_5
REMARK    3  A    between atoms: C_7  and  C_8
REMARK    4  A    between atoms: C_13  and  C_14
REMARK                            x       y       z     vdW  Elec       q    Type
REMARK                         _______ _______ _______ _____ _____    ______ ____
ROOT
ATOM      1  C   UNL     1       2.277  10.636  18.000  0.00  0.00    +0.000 A 
ATOM      2  N   UNL     1       2.767   9.450  17.619  0.00  0.00    +0.000 NA
ATOM      3  C   UNL     1       2.448   8.395  18.384  0.00  0.00    +0.000 A 
ATOM      4  N   UNL     1       1.693   8.464  19.487  0.00  0.00    +0.000 NA
ATOM      5  C   UNL     1       1.231   9.657  19.846  0.00  0.00    +0.000 A 
ATOM      6  N   UNL     1       0.489   9.735  20.952  0.00  0.00    +0.000 NA
ATOM      7  C   UNL     1       0.011  10.936  21.374  0.00  0.00    +0.000 A 
ATOM      8  C   UNL     1      -0.766  11.054  22.536  0.00  0.00    +0.000 A 
ATOM      9 CL   UNL     1      -1.160   9.656  23.482  0.00  0.00    +0.000 Cl
ATOM     10  C   UNL     1      -1.253  12.285  22.988  0.00  0.00    +0.000 A 
ATOM     11  C   UNL     1      -0.963  13.435  22.273  0.00  0.00    +0.000 A 
ATOM     12  C   UNL     1      -0.196  13.338  21.113  0.00  0.00    +0.000 A 
ATOM     13 CL   UNL     1       0.149  14.809  20.261  0.00  0.00    +0.000 Cl
ATOM     14  C   UNL     1       0.294  12.110  20.645  0.00  0.00    +0.000 A 
ATOM     15  N   UNL     1       1.032  12.039  19.522  0.00  0.00    +0.000 NA
ATOM     16  C   UNL     1       1.488  10.820  19.128  0.00  0.00    +0.000 A 
ENDROOT
BRANCH   3  17
ATOM     17  C   UNL     1       2.949   7.068  17.969  0.00  0.00    +0.000 A 
ATOM     18  C   UNL     1       2.238   5.892  18.280  0.00  0.00    +0.000 A 
ATOM     19  C   UNL     1       2.691   4.619  17.894  0.00  0.00    +0.000 A 
ATOM     20  C   UNL     1       3.897   4.517  17.187  0.00  0.00    +0.000 A 
ATOM     21  C   UNL     1       4.642   5.658  16.861  0.00  0.00    +0.000 A 
ATOM     22  C   UNL     1       4.154   6.921  17.251  0.00  0.00    +0.000 A 
BRANCH  19  23
ATOM     23  C   UNL     1       1.897   3.378  18.224  0.00  0.00    +0.000 C 
ATOM     24  F   UNL     1       0.549   3.546  18.120  0.00  0.00    +0.000 F 
ATOM     25  F   UNL     1       2.207   2.336  17.403  0.00  0.00    +0.000 F 
ATOM     26  F   UNL     1       2.124   2.938  19.491  0.00  0.00    +0.000 F 
ENDBRANCH  19  23
BRANCH  21  27
ATOM     27  C   UNL     1       5.942   5.551  16.099  0.00  0.00    +0.000 C 
ATOM     28  F   UNL     1       6.889   6.433  16.527  0.00  0.00    +0.000 F 
ATOM     29  F   UNL     1       6.509   4.318  16.203  0.00  0.00    +0.000 F 
ATOM     30  F   UNL     1       5.789   5.787  14.768  0.00  0.00    +0.000 F 
ENDBRANCH  21  27
ENDBRANCH   3  17
BRANCH   1  31
ATOM     31  N   UNL     1       2.508  11.709  17.126  0.00  0.00    +0.000 N 
ATOM     32  H   UNL     1       1.641  12.063  16.739  0.00  0.00    +0.000 HD
ATOM     33  H   UNL     1       3.245  11.512  16.453  0.00  0.00    +0.000 HD
ENDBRANCH   1  31
TORSDOF 4
ENDMDL
