MODEL 1
REMARK VINA RESULT:      -7.4      0.000      0.000
REMARK  Name = 
REMARK  11 active torsions:
REMARK  status: ('A' for Active; 'I' for Inactive)
REMARK    1  A    between atoms: C_1  and  O_2
REMARK    2  A    between atoms: O_2  and  C_3
REMARK    3  A    between atoms: C_6  and  C_7
REMARK    4  A    between atoms: C_7  and  N_8
REMARK    5  A    between atoms: N_11  and  C_12
REMARK    6  A    between atoms: C_12  and  C_13
REMARK    7  A    between atoms: C_23  and  C_24
REMARK    8  A    between atoms: C_24  and  C_25
REMARK    9  A    between atoms: C_25  and  O_26
REMARK   10  A    between atoms: C_27  and  C_28
REMARK   11  A    between atoms: C_29  and  C_30
REMARK                            x       y       z     vdW  Elec       q    Type
REMARK                         _______ _______ _______ _____ _____    ______ ____
ROOT
ATOM      1  N   UNL     1       3.822   5.590  19.116  0.00  0.00    +0.000 NA
ATOM      2  C   UNL     1       4.069   4.129  19.085  0.00  0.00    +0.000 C 
ATOM      3  C   UNL     1       4.037   3.424  17.707  0.00  0.00    +0.000 C 
ATOM      4  N   UNL     1       4.542   4.142  16.521  0.00  0.00    +0.000 NA
ATOM      5  C   UNL     1       4.367   5.601  16.640  0.00  0.00    +0.000 C 
ATOM      6  C   UNL     1       4.631   6.237  18.044  0.00  0.00    +0.000 C 
ENDROOT
BRANCH   1   7
ATOM      7  C   UNL     1       2.359   5.898  19.006  0.00  0.00    +0.000 C 
BRANCH   7  11
ATOM      8  C   UNL     1       1.081   9.540  21.088  0.00  0.00    +0.000 A 
ATOM      9  C   UNL     1       1.212   8.322  21.743  0.00  0.00    +0.000 A 
ATOM     10  C   UNL     1       1.641   7.193  21.047  0.00  0.00    +0.000 A 
ATOM     11  C   UNL     1       1.920   7.216  19.672  0.00  0.00    +0.000 A 
ATOM     12  C   UNL     1       1.834   8.468  18.999  0.00  0.00    +0.000 A 
ATOM     13  C   UNL     1       2.212   8.619  17.542  0.00  0.00    +0.000 C 
ATOM     14  C   UNL     1       1.395   9.630  19.716  0.00  0.00    +0.000 A 
ATOM     15  C   UNL     1       1.246  10.989  19.062  0.00  0.00    +0.000 C 
BRANCH   8  17
ATOM     16  C   UNL     1      -0.493  10.556  22.544  0.00  0.00    +0.000 C 
ATOM     17  O   UNL     1       0.655  10.688  21.710  0.00  0.00    +0.000 OA
ENDBRANCH   8  17
ENDBRANCH   7  11
ENDBRANCH   1   7
BRANCH   4  18
ATOM     18  C   UNL     1       5.890   3.749  16.083  0.00  0.00    +0.000 C 
BRANCH  18  19
ATOM     19  C   UNL     1       6.154   3.887  14.604  0.00  0.00    +0.000 A 
ATOM     20  C   UNL     1       5.435   3.179  13.606  0.00  0.00    +0.000 A 
ATOM     21  C   UNL     1       5.723   3.249  12.216  0.00  0.00    +0.000 A 
ATOM     22  C   UNL     1       6.735   4.065  11.682  0.00  0.00    +0.000 A 
ATOM     23  C   UNL     1       7.426   4.831  12.638  0.00  0.00    +0.000 A 
ATOM     24  N   UNL     1       8.412   5.716  12.453  0.00  0.00    +0.000 NA
ATOM     25  O   UNL     1       8.735   6.189  13.713  0.00  0.00    +0.000 OA
ATOM     26  N   UNL     1       7.963   5.598  14.698  0.00  0.00    +0.000 NA
ATOM     27  C   UNL     1       7.141   4.749  14.065  0.00  0.00    +0.000 A 
ENDBRANCH  18  19
ENDBRANCH   4  18
BRANCH   6  28
ATOM     28  C   UNL     1       6.159   6.222  18.347  0.00  0.00    +0.000 C 
BRANCH  28  29
ATOM     29  C   UNL     1       6.977   7.411  17.857  0.00  0.00    +0.000 C 
BRANCH  29  30
ATOM     30  O   UNL     1       7.837   7.050  16.788  0.00  0.00    +0.000 OA
ATOM     31  H   UNL     1       7.311   6.458  16.218  0.00  0.00    +0.000 HD
ENDBRANCH  29  30
ENDBRANCH  28  29
ENDBRANCH   6  28
TORSDOF 8
ENDMDL
MODEL 2
REMARK VINA RESULT:      -7.1      4.809     11.107
REMARK  Name = 
REMARK  11 active torsions:
REMARK  status: ('A' for Active; 'I' for Inactive)
REMARK    1  A    between atoms: C_1  and  O_2
REMARK    2  A    between atoms: O_2  and  C_3
REMARK    3  A    between atoms: C_6  and  C_7
REMARK    4  A    between atoms: C_7  and  N_8
REMARK    5  A    between atoms: N_11  and  C_12
REMARK    6  A    between atoms: C_12  and  C_13
REMARK    7  A    between atoms: C_23  and  C_24
REMARK    8  A    between atoms: C_24  and  C_25
REMARK    9  A    between atoms: C_25  and  O_26
REMARK   10  A    between atoms: C_27  and  C_28
REMARK   11  A    between atoms: C_29  and  C_30
REMARK                            x       y       z     vdW  Elec       q    Type
REMARK                         _______ _______ _______ _____ _____    ______ ____
ROOT
ATOM      1  N   UNL     1       0.175   8.978  20.263  0.00  0.00    +0.000 NA
ATOM      2  C   UNL     1      -0.679   9.065  21.471  0.00  0.00    +0.000 C 
ATOM      3  C   UNL     1      -0.538  10.324  22.361  0.00  0.00    +0.000 C 
ATOM      4  N   UNL     1      -0.267  11.627  21.724  0.00  0.00    +0.000 NA
ATOM      5  C   UNL     1       0.499  11.484  20.473  0.00  0.00    +0.000 C 
ATOM      6  C   UNL     1       0.125  10.282  19.544  0.00  0.00    +0.000 C 
ENDROOT
BRANCH   1   7
ATOM      7  C   UNL     1       1.572   8.560  20.612  0.00  0.00    +0.000 C 
BRANCH   7  11
ATOM      8  C   UNL     1       2.619   4.467  19.438  0.00  0.00    +0.000 A 
ATOM      9  C   UNL     1       1.939   4.746  20.617  0.00  0.00    +0.000 A 
ATOM     10  C   UNL     1       1.608   6.060  20.943  0.00  0.00    +0.000 A 
ATOM     11  C   UNL     1       1.968   7.150  20.135  0.00  0.00    +0.000 A 
ATOM     12  C   UNL     1       2.624   6.873  18.902  0.00  0.00    +0.000 A 
ATOM     13  C   UNL     1       2.963   7.967  17.914  0.00  0.00    +0.000 C 
ATOM     14  C   UNL     1       2.962   5.521  18.566  0.00  0.00    +0.000 A 
ATOM     15  C   UNL     1       3.689   5.149  17.289  0.00  0.00    +0.000 C 
BRANCH   8  17
ATOM     16  C   UNL     1       1.923   2.248  18.966  0.00  0.00    +0.000 C 
ATOM     17  O   UNL     1       2.982   3.197  19.062  0.00  0.00    +0.000 OA
ENDBRANCH   8  17
ENDBRANCH   7  11
ENDBRANCH   1   7
BRANCH   4  18
ATOM     18  C   UNL     1      -1.435  12.512  21.597  0.00  0.00    +0.000 C 
BRANCH  18  19
ATOM     19  C   UNL     1      -1.779  13.308  22.832  0.00  0.00    +0.000 A 
ATOM     20  C   UNL     1      -2.935  13.077  23.622  0.00  0.00    +0.000 A 
ATOM     21  C   UNL     1      -3.304  13.866  24.745  0.00  0.00    +0.000 A 
ATOM     22  C   UNL     1      -2.531  14.942  25.213  0.00  0.00    +0.000 A 
ATOM     23  C   UNL     1      -1.343  15.159  24.493  0.00  0.00    +0.000 A 
ATOM     24  N   UNL     1      -0.389  16.073  24.700  0.00  0.00    +0.000 NA
ATOM     25  O   UNL     1       0.560  15.857  23.717  0.00  0.00    +0.000 OA
ATOM     26  N   UNL     1       0.205  14.814  22.879  0.00  0.00    +0.000 NA
ATOM     27  C   UNL     1      -0.972  14.360  23.332  0.00  0.00    +0.000 A 
ENDBRANCH  18  19
ENDBRANCH   4  18
BRANCH   6  28
ATOM     28  C   UNL     1      -1.255  10.550  18.872  0.00  0.00    +0.000 C 
BRANCH  28  29
ATOM     29  C   UNL     1      -1.437  11.888  18.166  0.00  0.00    +0.000 C 
BRANCH  29  30
ATOM     30  O   UNL     1      -1.738  11.718  16.790  0.00  0.00    +0.000 OA
ATOM     31  H   UNL     1      -1.482  12.557  16.361  0.00  0.00    +0.000 HD
ENDBRANCH  29  30
ENDBRANCH  28  29
ENDBRANCH   6  28
TORSDOF 8
ENDMDL
MODEL 3
REMARK VINA RESULT:      -7.1      1.000      1.945
REMARK  Name = 
REMARK  11 active torsions:
REMARK  status: ('A' for Active; 'I' for Inactive)
REMARK    1  A    between atoms: C_1  and  O_2
REMARK    2  A    between atoms: O_2  and  C_3
REMARK    3  A    between atoms: C_6  and  C_7
REMARK    4  A    between atoms: C_7  and  N_8
REMARK    5  A    between atoms: N_11  and  C_12
REMARK    6  A    between atoms: C_12  and  C_13
REMARK    7  A    between atoms: C_23  and  C_24
REMARK    8  A    between atoms: C_24  and  C_25
REMARK    9  A    between atoms: C_25  and  O_26
REMARK   10  A    between atoms: C_27  and  C_28
REMARK   11  A    between atoms: C_29  and  C_30
REMARK                            x       y       z     vdW  Elec       q    Type
REMARK                         _______ _______ _______ _____ _____    ______ ____
ROOT
ATOM      1  N   UNL     1       4.022   5.816  18.949  0.00  0.00    +0.000 NA
ATOM      2  C   UNL     1       4.307   4.367  19.072  0.00  0.00    +0.000 C 
ATOM      3  C   UNL     1       4.207   3.504  17.790  0.00  0.00    +0.000 C 
ATOM      4  N   UNL     1       4.616   4.088  16.499  0.00  0.00    +0.000 NA
ATOM      5  C   UNL     1       4.408   5.546  16.458  0.00  0.00    +0.000 C 
ATOM      6  C   UNL     1       4.743   6.348  17.758  0.00  0.00    +0.000 C 
ENDROOT
BRANCH   1   7
ATOM      7  C   UNL     1       2.546   6.080  18.901  0.00  0.00    +0.000 C 
BRANCH   7  11
ATOM      8  C   UNL     1       1.492  10.335  18.813  0.00  0.00    +0.000 A 
ATOM      9  C   UNL     1       2.035   9.687  17.712  0.00  0.00    +0.000 A 
ATOM     10  C   UNL     1       2.337   8.327  17.776  0.00  0.00    +0.000 A 
ATOM     11  C   UNL     1       2.149   7.567  18.941  0.00  0.00    +0.000 A 
ATOM     12  C   UNL     1       1.550   8.210  20.062  0.00  0.00    +0.000 A 
ATOM     13  C   UNL     1       1.212   7.456  21.329  0.00  0.00    +0.000 C 
ATOM     14  C   UNL     1       1.237   9.608  19.995  0.00  0.00    +0.000 A 
ATOM     15  C   UNL     1       0.630  10.370  21.156  0.00  0.00    +0.000 C 
BRANCH   8  17
ATOM     16  C   UNL     1       2.237  12.562  18.471  0.00  0.00    +0.000 C 
ATOM     17  O   UNL     1       1.179  11.673  18.820  0.00  0.00    +0.000 OA
ENDBRANCH   8  17
ENDBRANCH   7  11
ENDBRANCH   1   7
BRANCH   4  18
ATOM     18  C   UNL     1       5.944   3.673  16.021  0.00  0.00    +0.000 C 
BRANCH  18  19
ATOM     19  C   UNL     1       6.187   3.863  14.544  0.00  0.00    +0.000 A 
ATOM     20  C   UNL     1       5.459   3.186  13.532  0.00  0.00    +0.000 A 
ATOM     21  C   UNL     1       5.728   3.306  12.141  0.00  0.00    +0.000 A 
ATOM     22  C   UNL     1       6.729   4.145  11.623  0.00  0.00    +0.000 A 
ATOM     23  C   UNL     1       7.428   4.881  12.595  0.00  0.00    +0.000 A 
ATOM     24  N   UNL     1       8.407   5.778  12.428  0.00  0.00    +0.000 NA
ATOM     25  O   UNL     1       8.744   6.209  13.699  0.00  0.00    +0.000 OA
ATOM     26  N   UNL     1       7.989   5.580  14.673  0.00  0.00    +0.000 NA
ATOM     27  C   UNL     1       7.163   4.749  14.022  0.00  0.00    +0.000 A 
ENDBRANCH  18  19
ENDBRANCH   4  18
BRANCH   6  28
ATOM     28  C   UNL     1       6.287   6.400  17.959  0.00  0.00    +0.000 C 
BRANCH  28  29
ATOM     29  C   UNL     1       6.859   5.645  19.152  0.00  0.00    +0.000 C 
BRANCH  29  30
ATOM     30  O   UNL     1       7.903   4.765  18.764  0.00  0.00    +0.000 OA
ATOM     31  H   UNL     1       7.726   3.928  19.234  0.00  0.00    +0.000 HD
ENDBRANCH  29  30
ENDBRANCH  28  29
ENDBRANCH   6  28
TORSDOF 8
ENDMDL
MODEL 4
REMARK VINA RESULT:      -7.0      4.832     11.258
REMARK  Name = 
REMARK  11 active torsions:
REMARK  status: ('A' for Active; 'I' for Inactive)
REMARK    1  A    between atoms: C_1  and  O_2
REMARK    2  A    between atoms: O_2  and  C_3
REMARK    3  A    between atoms: C_6  and  C_7
REMARK    4  A    between atoms: C_7  and  N_8
REMARK    5  A    between atoms: N_11  and  C_12
REMARK    6  A    between atoms: C_12  and  C_13
REMARK    7  A    between atoms: C_23  and  C_24
REMARK    8  A    between atoms: C_24  and  C_25
REMARK    9  A    between atoms: C_25  and  O_26
REMARK   10  A    between atoms: C_27  and  C_28
REMARK   11  A    between atoms: C_29  and  C_30
REMARK                            x       y       z     vdW  Elec       q    Type
REMARK                         _______ _______ _______ _____ _____    ______ ____
ROOT
ATOM      1  N   UNL     1       0.120   9.260  20.024  0.00  0.00    +0.000 NA
ATOM      2  C   UNL     1      -0.487   9.602  21.332  0.00  0.00    +0.000 C 
ATOM      3  C   UNL     1      -0.268  11.036  21.873  0.00  0.00    +0.000 C 
ATOM      4  N   UNL     1      -0.222  12.162  20.922  0.00  0.00    +0.000 NA
ATOM      5  C   UNL     1       0.294  11.754  19.603  0.00  0.00    +0.000 C 
ATOM      6  C   UNL     1      -0.164  10.361  19.061  0.00  0.00    +0.000 C 
ENDROOT
BRANCH   1   7
ATOM      7  C   UNL     1       1.585   8.971  20.161  0.00  0.00    +0.000 C 
BRANCH   7  11
ATOM      8  C   UNL     1       2.647   4.757  19.584  0.00  0.00    +0.000 A 
ATOM      9  C   UNL     1       1.934   5.193  20.693  0.00  0.00    +0.000 A 
ATOM     10  C   UNL     1       1.599   6.539  20.828  0.00  0.00    +0.000 A 
ATOM     11  C   UNL     1       1.989   7.510  19.892  0.00  0.00    +0.000 A 
ATOM     12  C   UNL     1       2.680   7.068  18.728  0.00  0.00    +0.000 A 
ATOM     13  C   UNL     1       3.054   8.019  17.612  0.00  0.00    +0.000 C 
ATOM     14  C   UNL     1       3.022   5.682  18.588  0.00  0.00    +0.000 A 
ATOM     15  C   UNL     1       3.786   5.141  17.396  0.00  0.00    +0.000 C 
BRANCH   8  17
ATOM     16  C   UNL     1       3.068   2.638  20.566  0.00  0.00    +0.000 C 
ATOM     17  O   UNL     1       3.016   3.447  19.394  0.00  0.00    +0.000 OA
ENDBRANCH   8  17
ENDBRANCH   7  11
ENDBRANCH   1   7
BRANCH   4  18
ATOM     18  C   UNL     1      -1.454  12.963  20.845  0.00  0.00    +0.000 C 
BRANCH  18  19
ATOM     19  C   UNL     1      -1.976  13.472  22.166  0.00  0.00    +0.000 A 
ATOM     20  C   UNL     1      -1.243  14.330  23.026  0.00  0.00    +0.000 A 
ATOM     21  C   UNL     1      -1.698  14.757  24.303  0.00  0.00    +0.000 A 
ATOM     22  C   UNL     1      -2.950  14.399  24.830  0.00  0.00    +0.000 A 
ATOM     23  C   UNL     1      -3.732  13.602  23.976  0.00  0.00    +0.000 A 
ATOM     24  N   UNL     1      -4.967  13.123  24.167  0.00  0.00    +0.000 NA
ATOM     25  O   UNL     1      -5.275  12.406  23.025  0.00  0.00    +0.000 OA
ATOM     26  N   UNL     1      -4.234  12.418  22.113  0.00  0.00    +0.000 NA
ATOM     27  C   UNL     1      -3.260  13.151  22.672  0.00  0.00    +0.000 A 
ENDBRANCH  18  19
ENDBRANCH   4  18
BRANCH   6  28
ATOM     28  C   UNL     1      -1.664  10.428  18.644  0.00  0.00    +0.000 C 
BRANCH  28  29
ATOM     29  C   UNL     1      -1.972  10.444  17.152  0.00  0.00    +0.000 C 
BRANCH  29  30
ATOM     30  O   UNL     1      -1.921  11.759  16.621  0.00  0.00    +0.000 OA
ATOM     31  H   UNL     1      -1.396  12.278  17.259  0.00  0.00    +0.000 HD
ENDBRANCH  29  30
ENDBRANCH  28  29
ENDBRANCH   6  28
TORSDOF 8
ENDMDL
MODEL 5
REMARK VINA RESULT:      -7.0      4.821     10.659
REMARK  Name = 
REMARK  11 active torsions:
REMARK  status: ('A' for Active; 'I' for Inactive)
REMARK    1  A    between atoms: C_1  and  O_2
REMARK    2  A    between atoms: O_2  and  C_3
REMARK    3  A    between atoms: C_6  and  C_7
REMARK    4  A    between atoms: C_7  and  N_8
REMARK    5  A    between atoms: N_11  and  C_12
REMARK    6  A    between atoms: C_12  and  C_13
REMARK    7  A    between atoms: C_23  and  C_24
REMARK    8  A    between atoms: C_24  and  C_25
REMARK    9  A    between atoms: C_25  and  O_26
REMARK   10  A    between atoms: C_27  and  C_28
REMARK   11  A    between atoms: C_29  and  C_30
REMARK                            x       y       z     vdW  Elec       q    Type
REMARK                         _______ _______ _______ _____ _____    ______ ____
ROOT
ATOM      1  N   UNL     1       1.177  10.055  18.964  0.00  0.00    +0.000 NA
ATOM      2  C   UNL     1      -0.015   9.969  18.089  0.00  0.00    +0.000 C 
ATOM      3  C   UNL     1      -1.406  10.122  18.752  0.00  0.00    +0.000 C 
ATOM      4  N   UNL     1      -1.562  11.053  19.885  0.00  0.00    +0.000 NA
ATOM      5  C   UNL     1      -0.321  11.185  20.669  0.00  0.00    +0.000 C 
ATOM      6  C   UNL     1       1.024  11.228  19.871  0.00  0.00    +0.000 C 
ENDROOT
BRANCH   1   7
ATOM      7  C   UNL     1       1.403   8.772  19.706  0.00  0.00    +0.000 C 
BRANCH   7  11
ATOM      8  C   UNL     1       3.975   6.001  17.486  0.00  0.00    +0.000 A 
ATOM      9  C   UNL     1       3.852   7.338  17.131  0.00  0.00    +0.000 A 
ATOM     10  C   UNL     1       3.039   8.190  17.877  0.00  0.00    +0.000 A 
ATOM     11  C   UNL     1       2.289   7.745  18.977  0.00  0.00    +0.000 A 
ATOM     12  C   UNL     1       2.442   6.387  19.377  0.00  0.00    +0.000 A 
ATOM     13  C   UNL     1       1.758   5.835  20.608  0.00  0.00    +0.000 C 
ATOM     14  C   UNL     1       3.281   5.511  18.612  0.00  0.00    +0.000 A 
ATOM     15  C   UNL     1       3.469   4.047  18.954  0.00  0.00    +0.000 C 
BRANCH   8  17
ATOM     16  C   UNL     1       5.417   5.622  15.639  0.00  0.00    +0.000 C 
ATOM     17  O   UNL     1       4.752   5.107  16.790  0.00  0.00    +0.000 OA
ENDBRANCH   8  17
ENDBRANCH   7  11
ENDBRANCH   1   7
BRANCH   4  18
ATOM     18  C   UNL     1      -2.181  12.344  19.550  0.00  0.00    +0.000 C 
BRANCH  18  19
ATOM     19  C   UNL     1      -3.630  12.487  19.946  0.00  0.00    +0.000 A 
ATOM     20  C   UNL     1      -4.057  12.951  21.217  0.00  0.00    +0.000 A 
ATOM     21  C   UNL     1      -5.418  13.022  21.623  0.00  0.00    +0.000 A 
ATOM     22  C   UNL     1      -6.488  12.673  20.783  0.00  0.00    +0.000 A 
ATOM     23  C   UNL     1      -6.104  12.271  19.492  0.00  0.00    +0.000 A 
ATOM     24  N   UNL     1      -6.874  11.907  18.460  0.00  0.00    +0.000 NA
ATOM     25  O   UNL     1      -6.004  11.611  17.426  0.00  0.00    +0.000 OA
ATOM     26  N   UNL     1      -4.682  11.775  17.802  0.00  0.00    +0.000 NA
ATOM     27  C   UNL     1      -4.709  12.183  19.079  0.00  0.00    +0.000 A 
ENDBRANCH  18  19
ENDBRANCH   4  18
BRANCH   6  28
ATOM     28  C   UNL     1       1.146  12.590  19.125  0.00  0.00    +0.000 C 
BRANCH  28  29
ATOM     29  C   UNL     1       2.474  12.891  18.440  0.00  0.00    +0.000 C 
BRANCH  29  30
ATOM     30  O   UNL     1       2.664  12.083  17.289  0.00  0.00    +0.000 OA
ATOM     31  H   UNL     1       3.351  12.535  16.763  0.00  0.00    +0.000 HD
ENDBRANCH  29  30
ENDBRANCH  28  29
ENDBRANCH   6  28
TORSDOF 8
ENDMDL
MODEL 6
REMARK VINA RESULT:      -7.0      4.567     10.962
REMARK  Name = 
REMARK  11 active torsions:
REMARK  status: ('A' for Active; 'I' for Inactive)
REMARK    1  A    between atoms: C_1  and  O_2
REMARK    2  A    between atoms: O_2  and  C_3
REMARK    3  A    between atoms: C_6  and  C_7
REMARK    4  A    between atoms: C_7  and  N_8
REMARK    5  A    between atoms: N_11  and  C_12
REMARK    6  A    between atoms: C_12  and  C_13
REMARK    7  A    between atoms: C_23  and  C_24
REMARK    8  A    between atoms: C_24  and  C_25
REMARK    9  A    between atoms: C_25  and  O_26
REMARK   10  A    between atoms: C_27  and  C_28
REMARK   11  A    between atoms: C_29  and  C_30
REMARK                            x       y       z     vdW  Elec       q    Type
REMARK                         _______ _______ _______ _____ _____    ______ ____
ROOT
ATOM      1  N   UNL     1       1.060   9.989  19.119  0.00  0.00    +0.000 NA
ATOM      2  C   UNL     1      -0.317  10.037  18.575  0.00  0.00    +0.000 C 
ATOM      3  C   UNL     1      -1.470  10.337  19.564  0.00  0.00    +0.000 C 
ATOM      4  N   UNL     1      -1.234  11.272  20.679  0.00  0.00    +0.000 NA
ATOM      5  C   UNL     1       0.172  11.264  21.122  0.00  0.00    +0.000 C 
ATOM      6  C   UNL     1       1.267  11.165  20.010  0.00  0.00    +0.000 C 
ENDROOT
BRANCH   1   7
ATOM      7  C   UNL     1       1.329   8.684  19.808  0.00  0.00    +0.000 C 
BRANCH   7  11
ATOM      8  C   UNL     1       3.993   6.095  17.480  0.00  0.00    +0.000 A 
ATOM      9  C   UNL     1       3.831   7.442  17.185  0.00  0.00    +0.000 A 
ATOM     10  C   UNL     1       2.989   8.234  17.964  0.00  0.00    +0.000 A 
ATOM     11  C   UNL     1       2.248   7.718  19.038  0.00  0.00    +0.000 A 
ATOM     12  C   UNL     1       2.441   6.348  19.378  0.00  0.00    +0.000 A 
ATOM     13  C   UNL     1       1.768   5.721  20.580  0.00  0.00    +0.000 C 
ATOM     14  C   UNL     1       3.309   5.534  18.579  0.00  0.00    +0.000 A 
ATOM     15  C   UNL     1       3.540   4.062  18.856  0.00  0.00    +0.000 C 
BRANCH   8  17
ATOM     16  C   UNL     1       5.307   5.788  15.528  0.00  0.00    +0.000 C 
ATOM     17  O   UNL     1       4.799   5.256  16.749  0.00  0.00    +0.000 OA
ENDBRANCH   8  17
ENDBRANCH   7  11
ENDBRANCH   1   7
BRANCH   4  18
ATOM     18  C   UNL     1      -1.777  12.625  20.483  0.00  0.00    +0.000 C 
BRANCH  18  19
ATOM     19  C   UNL     1      -3.236  12.791  20.828  0.00  0.00    +0.000 A 
ATOM     20  C   UNL     1      -4.226  13.196  19.895  0.00  0.00    +0.000 A 
ATOM     21  C   UNL     1      -5.589  13.423  20.228  0.00  0.00    +0.000 A 
ATOM     22  C   UNL     1      -6.106  13.230  21.520  0.00  0.00    +0.000 A 
ATOM     23  C   UNL     1      -5.166  12.765  22.456  0.00  0.00    +0.000 A 
ATOM     24  N   UNL     1      -5.344  12.459  23.747  0.00  0.00    +0.000 NA
ATOM     25  O   UNL     1      -4.107  12.049  24.211  0.00  0.00    +0.000 OA
ATOM     26  N   UNL     1      -3.141  12.105  23.222  0.00  0.00    +0.000 NA
ATOM     27  C   UNL     1      -3.765  12.546  22.120  0.00  0.00    +0.000 A 
ENDBRANCH  18  19
ENDBRANCH   4  18
BRANCH   6  28
ATOM     28  C   UNL     1       1.341  12.511  19.228  0.00  0.00    +0.000 C 
BRANCH  28  29
ATOM     29  C   UNL     1       2.536  12.713  18.303  0.00  0.00    +0.000 C 
BRANCH  29  30
ATOM     30  O   UNL     1       2.546  11.766  17.246  0.00  0.00    +0.000 OA
ATOM     31  H   UNL     1       1.777  11.992  16.687  0.00  0.00    +0.000 HD
ENDBRANCH  29  30
ENDBRANCH  28  29
ENDBRANCH   6  28
TORSDOF 8
ENDMDL
MODEL 7
REMARK VINA RESULT:      -6.9      4.906     10.939
REMARK  Name = 
REMARK  11 active torsions:
REMARK  status: ('A' for Active; 'I' for Inactive)
REMARK    1  A    between atoms: C_1  and  O_2
REMARK    2  A    between atoms: O_2  and  C_3
REMARK    3  A    between atoms: C_6  and  C_7
REMARK    4  A    between atoms: C_7  and  N_8
REMARK    5  A    between atoms: N_11  and  C_12
REMARK    6  A    between atoms: C_12  and  C_13
REMARK    7  A    between atoms: C_23  and  C_24
REMARK    8  A    between atoms: C_24  and  C_25
REMARK    9  A    between atoms: C_25  and  O_26
REMARK   10  A    between atoms: C_27  and  C_28
REMARK   11  A    between atoms: C_29  and  C_30
REMARK                            x       y       z     vdW  Elec       q    Type
REMARK                         _______ _______ _______ _____ _____    ______ ____
ROOT
ATOM      1  N   UNL     1       0.111   9.280  20.215  0.00  0.00    +0.000 NA
ATOM      2  C   UNL     1      -0.442   9.916  21.433  0.00  0.00    +0.000 C 
ATOM      3  C   UNL     1      -0.091  11.402  21.689  0.00  0.00    +0.000 C 
ATOM      4  N   UNL     1       0.036  12.318  20.540  0.00  0.00    +0.000 NA
ATOM      5  C   UNL     1       0.494  11.622  19.324  0.00  0.00    +0.000 C 
ATOM      6  C   UNL     1      -0.093  10.197  19.058  0.00  0.00    +0.000 C 
ENDROOT
BRANCH   1   7
ATOM      7  C   UNL     1       1.547   8.894  20.405  0.00  0.00    +0.000 C 
BRANCH   7  11
ATOM      8  C   UNL     1       2.420   4.686  19.538  0.00  0.00    +0.000 A 
ATOM      9  C   UNL     1       1.724   5.076  20.674  0.00  0.00    +0.000 A 
ATOM     10  C   UNL     1       1.450   6.424  20.901  0.00  0.00    +0.000 A 
ATOM     11  C   UNL     1       1.886   7.438  20.035  0.00  0.00    +0.000 A 
ATOM     12  C   UNL     1       2.561   7.047  18.843  0.00  0.00    +0.000 A 
ATOM     13  C   UNL     1       2.980   8.055  17.796  0.00  0.00    +0.000 C 
ATOM     14  C   UNL     1       2.840   5.660  18.608  0.00  0.00    +0.000 A 
ATOM     15  C   UNL     1       3.582   5.169  17.382  0.00  0.00    +0.000 C 
BRANCH   8  17
ATOM     16  C   UNL     1       3.451   2.678  20.269  0.00  0.00    +0.000 C 
ATOM     17  O   UNL     1       2.731   3.377  19.258  0.00  0.00    +0.000 OA
ENDBRANCH   8  17
ENDBRANCH   7  11
ENDBRANCH   1   7
BRANCH   4  18
ATOM     18  C   UNL     1      -1.122  13.195  20.311  0.00  0.00    +0.000 C 
BRANCH  18  19
ATOM     19  C   UNL     1      -2.134  13.234  21.430  0.00  0.00    +0.000 A 
ATOM     20  C   UNL     1      -1.838  13.676  22.746  0.00  0.00    +0.000 A 
ATOM     21  C   UNL     1      -2.765  13.649  23.823  0.00  0.00    +0.000 A 
ATOM     22  C   UNL     1      -4.093  13.213  23.681  0.00  0.00    +0.000 A 
ATOM     23  C   UNL     1      -4.441  12.829  22.375  0.00  0.00    +0.000 A 
ATOM     24  N   UNL     1      -5.619  12.400  21.909  0.00  0.00    +0.000 NA
ATOM     25  O   UNL     1      -5.427  12.160  20.560  0.00  0.00    +0.000 OA
ATOM     26  N   UNL     1      -4.126  12.426  20.169  0.00  0.00    +0.000 NA
ATOM     27  C   UNL     1      -3.486  12.842  21.272  0.00  0.00    +0.000 A 
ENDBRANCH  18  19
ENDBRANCH   4  18
BRANCH   6  28
ATOM     28  C   UNL     1      -1.588  10.316  18.636  0.00  0.00    +0.000 C 
BRANCH  28  29
ATOM     29  C   UNL     1      -1.884  11.021  17.318  0.00  0.00    +0.000 C 
BRANCH  29  30
ATOM     30  O   UNL     1      -2.876  12.024  17.471  0.00  0.00    +0.000 OA
ATOM     31  H   UNL     1      -2.646  12.494  18.296  0.00  0.00    +0.000 HD
ENDBRANCH  29  30
ENDBRANCH  28  29
ENDBRANCH   6  28
TORSDOF 8
ENDMDL
MODEL 8
REMARK VINA RESULT:      -6.9      2.406      4.116
REMARK  Name = 
REMARK  11 active torsions:
REMARK  status: ('A' for Active; 'I' for Inactive)
REMARK    1  A    between atoms: C_1  and  O_2
REMARK    2  A    between atoms: O_2  and  C_3
REMARK    3  A    between atoms: C_6  and  C_7
REMARK    4  A    between atoms: C_7  and  N_8
REMARK    5  A    between atoms: N_11  and  C_12
REMARK    6  A    between atoms: C_12  and  C_13
REMARK    7  A    between atoms: C_23  and  C_24
REMARK    8  A    between atoms: C_24  and  C_25
REMARK    9  A    between atoms: C_25  and  O_26
REMARK   10  A    between atoms: C_27  and  C_28
REMARK   11  A    between atoms: C_29  and  C_30
REMARK                            x       y       z     vdW  Elec       q    Type
REMARK                         _______ _______ _______ _____ _____    ______ ____
ROOT
ATOM      1  N   UNL     1       1.204   7.180  20.377  0.00  0.00    +0.000 NA
ATOM      2  C   UNL     1       1.274   7.461  18.924  0.00  0.00    +0.000 C 
ATOM      3  C   UNL     1       2.638   7.263  18.219  0.00  0.00    +0.000 C 
ATOM      4  N   UNL     1       3.522   6.168  18.660  0.00  0.00    +0.000 NA
ATOM      5  C   UNL     1       3.347   5.856  20.090  0.00  0.00    +0.000 C 
ATOM      6  C   UNL     1       1.887   5.884  20.650  0.00  0.00    +0.000 C 
ENDROOT
BRANCH   1   7
ATOM      7  C   UNL     1       1.769   8.314  21.179  0.00  0.00    +0.000 C 
BRANCH   7  11
ATOM      8  C   UNL     1      -1.113  11.430  22.280  0.00  0.00    +0.000 A 
ATOM      9  C   UNL     1      -0.819  10.366  23.123  0.00  0.00    +0.000 A 
ATOM     10  C   UNL     1       0.120   9.408  22.742  0.00  0.00    +0.000 A 
ATOM     11  C   UNL     1       0.773   9.444  21.501  0.00  0.00    +0.000 A 
ATOM     12  C   UNL     1       0.514  10.555  20.648  0.00  0.00    +0.000 A 
ATOM     13  C   UNL     1       1.242  10.741  19.335  0.00  0.00    +0.000 C 
ATOM     14  C   UNL     1      -0.450  11.542  21.041  0.00  0.00    +0.000 A 
ATOM     15  C   UNL     1      -0.805  12.733  20.173  0.00  0.00    +0.000 C 
BRANCH   8  17
ATOM     16  C   UNL     1      -3.020  12.043  23.552  0.00  0.00    +0.000 C 
ATOM     17  O   UNL     1      -2.033  12.403  22.589  0.00  0.00    +0.000 OA
ENDBRANCH   8  17
ENDBRANCH   7  11
ENDBRANCH   1   7
BRANCH   4  18
ATOM     18  C   UNL     1       3.517   4.978  17.797  0.00  0.00    +0.000 C 
BRANCH  18  19
ATOM     19  C   UNL     1       4.725   4.821  16.906  0.00  0.00    +0.000 A 
ATOM     20  C   UNL     1       4.666   4.840  15.488  0.00  0.00    +0.000 A 
ATOM     21  C   UNL     1       5.787   4.624  14.641  0.00  0.00    +0.000 A 
ATOM     22  C   UNL     1       7.086   4.405  15.129  0.00  0.00    +0.000 A 
ATOM     23  C   UNL     1       7.193   4.445  16.530  0.00  0.00    +0.000 A 
ATOM     24  N   UNL     1       8.282   4.305  17.296  0.00  0.00    +0.000 NA
ATOM     25  O   UNL     1       7.843   4.430  18.602  0.00  0.00    +0.000 OA
ATOM     26  N   UNL     1       6.477   4.639  18.668  0.00  0.00    +0.000 NA
ATOM     27  C   UNL     1       6.042   4.652  17.400  0.00  0.00    +0.000 A 
ENDBRANCH  18  19
ENDBRANCH   4  18
BRANCH   6  28
ATOM     28  C   UNL     1       1.095   4.657  20.107  0.00  0.00    +0.000 C 
BRANCH  28  29
ATOM     29  C   UNL     1       1.629   3.274  20.459  0.00  0.00    +0.000 C 
BRANCH  29  30
ATOM     30  O   UNL     1       0.885   2.676  21.509  0.00  0.00    +0.000 OA
ATOM     31  H   UNL     1       0.861   3.342  22.223  0.00  0.00    +0.000 HD
ENDBRANCH  29  30
ENDBRANCH  28  29
ENDBRANCH   6  28
TORSDOF 8
ENDMDL
MODEL 9
REMARK VINA RESULT:      -6.9      2.364      4.160
REMARK  Name = 
REMARK  11 active torsions:
REMARK  status: ('A' for Active; 'I' for Inactive)
REMARK    1  A    between atoms: C_1  and  O_2
REMARK    2  A    between atoms: O_2  and  C_3
REMARK    3  A    between atoms: C_6  and  C_7
REMARK    4  A    between atoms: C_7  and  N_8
REMARK    5  A    between atoms: N_11  and  C_12
REMARK    6  A    between atoms: C_12  and  C_13
REMARK    7  A    between atoms: C_23  and  C_24
REMARK    8  A    between atoms: C_24  and  C_25
REMARK    9  A    between atoms: C_25  and  O_26
REMARK   10  A    between atoms: C_27  and  C_28
REMARK   11  A    between atoms: C_29  and  C_30
REMARK                            x       y       z     vdW  Elec       q    Type
REMARK                         _______ _______ _______ _____ _____    ______ ____
ROOT
ATOM      1  N   UNL     1       1.566   6.438  19.728  0.00  0.00    +0.000 NA
ATOM      2  C   UNL     1       2.820   6.595  18.954  0.00  0.00    +0.000 C 
ATOM      3  C   UNL     1       4.097   5.917  19.509  0.00  0.00    +0.000 C 
ATOM      4  N   UNL     1       3.977   4.618  20.199  0.00  0.00    +0.000 NA
ATOM      5  C   UNL     1       2.674   4.465  20.870  0.00  0.00    +0.000 C 
ATOM      6  C   UNL     1       1.417   5.007  20.115  0.00  0.00    +0.000 C 
ENDROOT
BRANCH   1   7
ATOM      7  C   UNL     1       1.532   7.365  20.905  0.00  0.00    +0.000 C 
BRANCH   7  11
ATOM      8  C   UNL     1       0.271  11.420  19.814  0.00  0.00    +0.000 A 
ATOM      9  C   UNL     1       0.846  10.554  18.893  0.00  0.00    +0.000 A 
ATOM     10  C   UNL     1       1.215   9.265  19.278  0.00  0.00    +0.000 A 
ATOM     11  C   UNL     1       1.062   8.798  20.592  0.00  0.00    +0.000 A 
ATOM     12  C   UNL     1       0.431   9.661  21.533  0.00  0.00    +0.000 A 
ATOM     13  C   UNL     1       0.128   9.216  22.947  0.00  0.00    +0.000 C 
ATOM     14  C   UNL     1       0.050  10.986  21.137  0.00  0.00    +0.000 A 
ATOM     15  C   UNL     1      -0.595  11.973  22.089  0.00  0.00    +0.000 C 
BRANCH   8  17
ATOM     16  C   UNL     1      -0.801  12.869  18.270  0.00  0.00    +0.000 C 
ATOM     17  O   UNL     1      -0.107  12.704  19.504  0.00  0.00    +0.000 OA
ENDBRANCH   8  17
ENDBRANCH   7  11
ENDBRANCH   1   7
BRANCH   4  18
ATOM     18  C   UNL     1       4.362   3.449  19.394  0.00  0.00    +0.000 C 
BRANCH  18  19
ATOM     19  C   UNL     1       4.797   3.752  17.981  0.00  0.00    +0.000 A 
ATOM     20  C   UNL     1       3.931   3.694  16.860  0.00  0.00    +0.000 A 
ATOM     21  C   UNL     1       4.348   3.910  15.518  0.00  0.00    +0.000 A 
ATOM     22  C   UNL     1       5.668   4.242  15.169  0.00  0.00    +0.000 A 
ATOM     23  C   UNL     1       6.541   4.372  16.263  0.00  0.00    +0.000 A 
ATOM     24  N   UNL     1       7.837   4.703  16.271  0.00  0.00    +0.000 NA
ATOM     25  O   UNL     1       8.222   4.692  17.600  0.00  0.00    +0.000 OA
ATOM     26  N   UNL     1       7.175   4.343  18.436  0.00  0.00    +0.000 NA
ATOM     27  C   UNL     1       6.117   4.137  17.638  0.00  0.00    +0.000 A 
ENDBRANCH  18  19
ENDBRANCH   4  18
BRANCH   6  28
ATOM     28  C   UNL     1       1.096   4.082  18.902  0.00  0.00    +0.000 C 
BRANCH  28  29
ATOM     29  C   UNL     1       0.696   2.644  19.211  0.00  0.00    +0.000 C 
BRANCH  29  30
ATOM     30  O   UNL     1       1.515   1.713  18.520  0.00  0.00    +0.000 OA
ATOM     31  H   UNL     1       0.949   0.933  18.367  0.00  0.00    +0.000 HD
ENDBRANCH  29  30
ENDBRANCH  28  29
ENDBRANCH   6  28
TORSDOF 8
ENDMDL
