MODEL 1
REMARK VINA RESULT:      -9.6      0.000      0.000
REMARK  Name = 
REMARK  9 active torsions:
REMARK  status: ('A' for Active; 'I' for Inactive)
REMARK    1  A    between atoms: C_1  and  C_2
REMARK    2  A    between atoms: C_4  and  O_5
REMARK    3  A    between atoms: O_5  and  C_6
REMARK    4  A    between atoms: C_6  and  C_7
REMARK    5  A    between atoms: C_18  and  C_19
REMARK    6  A    between atoms: C_22  and  C_23
REMARK    7  A    between atoms: C_24  and  C_25
REMARK    8  A    between atoms: C_25  and  C_26
REMARK    9  A    between atoms: C_26  and  O_28
REMARK                            x       y       z     vdW  Elec       q    Type
REMARK                         _______ _______ _______ _____ _____    ______ ____
ROOT
ATOM      1  C   UNL     1       0.409   8.914  22.126  0.00  0.00    +0.000 C 
ATOM      2  C   UNL     1       1.017   8.786  20.756  0.00  0.00    +0.000 A 
ATOM      3  C   UNL     1       1.617   7.558  20.440  0.00  0.00    +0.000 A 
ATOM      4  C   UNL     1       2.208   7.317  19.198  0.00  0.00    +0.000 A 
ATOM      5  C   UNL     1       2.164   8.299  18.220  0.00  0.00    +0.000 A 
ATOM      6  C   UNL     1       1.567   9.537  18.512  0.00  0.00    +0.000 A 
ATOM      7  C   UNL     1       1.050   9.815  19.796  0.00  0.00    +0.000 A 
ENDROOT
BRANCH   7   8
ATOM      8  C   UNL     1       0.513  11.186  20.074  0.00  0.00    +0.000 C 
ATOM      9  O   UNL     1       1.298  12.053  20.452  0.00  0.00    +0.000 OA
ATOM     10  N   UNL     1      -0.853  11.581  19.946  0.00  0.00    +0.000 N 
ATOM     11  C   UNL     1      -1.502  12.575  20.698  0.00  0.00    +0.000 A 
ATOM     12  C   UNL     1      -0.858  13.318  21.829  0.00  0.00    +0.000 C 
ATOM     13  C   UNL     1      -2.794  12.739  20.214  0.00  0.00    +0.000 A 
ATOM     14  C   UNL     1      -2.961  11.817  19.143  0.00  0.00    +0.000 A 
ATOM     15  C   UNL     1      -4.033  11.562  18.256  0.00  0.00    +0.000 A 
ATOM     16  C   UNL     1      -3.902  10.596  17.257  0.00  0.00    +0.000 A 
ATOM     17  C   UNL     1      -2.720   9.884  17.126  0.00  0.00    +0.000 A 
ATOM     18  C   UNL     1      -1.641  10.133  17.976  0.00  0.00    +0.000 A 
ATOM     19  C   UNL     1      -1.773  11.093  19.003  0.00  0.00    +0.000 A 
BRANCH  13  20
ATOM     20  C   UNL     1      -3.817  13.750  20.675  0.00  0.00    +0.000 C 
BRANCH  20  21
ATOM     21  C   UNL     1      -4.702  13.310  21.824  0.00  0.00    +0.000 C 
ATOM     22  O   UNL     1      -5.397  12.307  21.784  0.00  0.00    +0.000 OA
BRANCH  21  23
ATOM     23  O   UNL     1      -4.748  14.154  22.882  0.00  0.00    +0.000 OA
ATOM     24  H   UNL     1      -5.028  15.060  22.646  0.00  0.00    +0.000 HD
ENDBRANCH  21  23
ENDBRANCH  20  21
ENDBRANCH  13  20
ENDBRANCH   7   8
BRANCH   4  25
ATOM     25  O   UNL     1       2.717   6.064  19.079  0.00  0.00    +0.000 OA
BRANCH  25  26
ATOM     26  C   UNL     1       2.928   5.513  17.780  0.00  0.00    +0.000 C 
BRANCH  26  27
ATOM     27  C   UNL     1       4.356   4.960  17.761  0.00  0.00    +0.000 C 
ATOM     28  C   UNL     1       4.646   3.990  18.912  0.00  0.00    +0.000 C 
ATOM     29  O   UNL     1       6.053   4.058  19.248  0.00  0.00    +0.000 OA
ATOM     30  C   UNL     1       6.457   5.267  18.742  0.00  0.00    +0.000 A 
ATOM     31  C   UNL     1       7.723   5.791  18.924  0.00  0.00    +0.000 A 
ATOM     32  C   UNL     1       8.038   6.985  18.276  0.00  0.00    +0.000 A 
ATOM     33  C   UNL     1       7.080   7.636  17.483  0.00  0.00    +0.000 A 
ATOM     34  C   UNL     1       5.803   7.090  17.315  0.00  0.00    +0.000 A 
ATOM     35  C   UNL     1       5.507   5.890  17.946  0.00  0.00    +0.000 A 
ENDBRANCH  26  27
ENDBRANCH  25  26
ENDBRANCH   4  25
TORSDOF 7
ENDMDL
MODEL 2
REMARK VINA RESULT:      -9.5      0.525      1.355
REMARK  Name = 
REMARK  9 active torsions:
REMARK  status: ('A' for Active; 'I' for Inactive)
REMARK    1  A    between atoms: C_1  and  C_2
REMARK    2  A    between atoms: C_4  and  O_5
REMARK    3  A    between atoms: O_5  and  C_6
REMARK    4  A    between atoms: C_6  and  C_7
REMARK    5  A    between atoms: C_18  and  C_19
REMARK    6  A    between atoms: C_22  and  C_23
REMARK    7  A    between atoms: C_24  and  C_25
REMARK    8  A    between atoms: C_25  and  C_26
REMARK    9  A    between atoms: C_26  and  O_28
REMARK                            x       y       z     vdW  Elec       q    Type
REMARK                         _______ _______ _______ _____ _____    ______ ____
ROOT
ATOM      1  C   UNL     1       2.115  10.177  17.925  0.00  0.00    +0.000 C 
ATOM      2  C   UNL     1       1.802   9.146  18.974  0.00  0.00    +0.000 A 
ATOM      3  C   UNL     1       2.206   7.828  18.710  0.00  0.00    +0.000 A 
ATOM      4  C   UNL     1       1.978   6.785  19.610  0.00  0.00    +0.000 A 
ATOM      5  C   UNL     1       1.377   7.058  20.830  0.00  0.00    +0.000 A 
ATOM      6  C   UNL     1       0.965   8.369  21.118  0.00  0.00    +0.000 A 
ATOM      7  C   UNL     1       1.113   9.407  20.173  0.00  0.00    +0.000 A 
ENDROOT
BRANCH   7   8
ATOM      8  C   UNL     1       0.566  10.763  20.502  0.00  0.00    +0.000 C 
ATOM      9  O   UNL     1       1.294  11.556  21.094  0.00  0.00    +0.000 OA
ATOM     10  N   UNL     1      -0.749  11.222  20.190  0.00  0.00    +0.000 N 
ATOM     11  C   UNL     1      -1.494  12.161  20.925  0.00  0.00    +0.000 A 
ATOM     12  C   UNL     1      -1.036  12.760  22.220  0.00  0.00    +0.000 C 
ATOM     13  C   UNL     1      -2.682  12.423  20.253  0.00  0.00    +0.000 A 
ATOM     14  C   UNL     1      -2.685  11.621  19.077  0.00  0.00    +0.000 A 
ATOM     15  C   UNL     1      -3.596  11.498  18.003  0.00  0.00    +0.000 A 
ATOM     16  C   UNL     1      -3.319  10.633  16.944  0.00  0.00    +0.000 A 
ATOM     17  C   UNL     1      -2.148   9.893  16.936  0.00  0.00    +0.000 A 
ATOM     18  C   UNL     1      -1.223  10.012  17.975  0.00  0.00    +0.000 A 
ATOM     19  C   UNL     1      -1.506  10.868  19.062  0.00  0.00    +0.000 A 
BRANCH  13  20
ATOM     20  C   UNL     1      -3.746  13.421  20.642  0.00  0.00    +0.000 C 
BRANCH  20  21
ATOM     21  C   UNL     1      -4.707  12.968  21.724  0.00  0.00    +0.000 C 
ATOM     22  O   UNL     1      -4.609  13.313  22.890  0.00  0.00    +0.000 OA
BRANCH  21  23
ATOM     23  O   UNL     1      -5.644  12.072  21.332  0.00  0.00    +0.000 OA
ATOM     24  H   UNL     1      -5.694  11.959  20.363  0.00  0.00    +0.000 HD
ENDBRANCH  21  23
ENDBRANCH  20  21
ENDBRANCH  13  20
ENDBRANCH   7   8
BRANCH   4  25
ATOM     25  O   UNL     1       2.459   5.590  19.182  0.00  0.00    +0.000 OA
BRANCH  25  26
ATOM     26  C   UNL     1       2.874   5.447  17.824  0.00  0.00    +0.000 C 
BRANCH  26  27
ATOM     27  C   UNL     1       4.304   4.900  17.854  0.00  0.00    +0.000 C 
ATOM     28  C   UNL     1       4.591   4.020  19.076  0.00  0.00    +0.000 C 
ATOM     29  O   UNL     1       5.996   4.119  19.415  0.00  0.00    +0.000 OA
ATOM     30  C   UNL     1       6.398   5.289  18.822  0.00  0.00    +0.000 A 
ATOM     31  C   UNL     1       7.661   5.831  18.972  0.00  0.00    +0.000 A 
ATOM     32  C   UNL     1       7.975   6.975  18.238  0.00  0.00    +0.000 A 
ATOM     33  C   UNL     1       7.019   7.560  17.393  0.00  0.00    +0.000 A 
ATOM     34  C   UNL     1       5.745   6.997  17.260  0.00  0.00    +0.000 A 
ATOM     35  C   UNL     1       5.450   5.847  17.977  0.00  0.00    +0.000 A 
ENDBRANCH  26  27
ENDBRANCH  25  26
ENDBRANCH   4  25
TORSDOF 7
ENDMDL
MODEL 3
REMARK VINA RESULT:      -9.3      1.291      1.479
REMARK  Name = 
REMARK  9 active torsions:
REMARK  status: ('A' for Active; 'I' for Inactive)
REMARK    1  A    between atoms: C_1  and  C_2
REMARK    2  A    between atoms: C_4  and  O_5
REMARK    3  A    between atoms: O_5  and  C_6
REMARK    4  A    between atoms: C_6  and  C_7
REMARK    5  A    between atoms: C_18  and  C_19
REMARK    6  A    between atoms: C_22  and  C_23
REMARK    7  A    between atoms: C_24  and  C_25
REMARK    8  A    between atoms: C_25  and  C_26
REMARK    9  A    between atoms: C_26  and  O_28
REMARK                            x       y       z     vdW  Elec       q    Type
REMARK                         _______ _______ _______ _____ _____    ______ ____
ROOT
ATOM      1  C   UNL     1       0.087   8.857  21.578  0.00  0.00    +0.000 C 
ATOM      2  C   UNL     1       0.809   9.060  20.274  0.00  0.00    +0.000 A 
ATOM      3  C   UNL     1       1.664   8.030  19.853  0.00  0.00    +0.000 A 
ATOM      4  C   UNL     1       2.382   8.101  18.658  0.00  0.00    +0.000 A 
ATOM      5  C   UNL     1       2.216   9.199  17.828  0.00  0.00    +0.000 A 
ATOM      6  C   UNL     1       1.364  10.242  18.226  0.00  0.00    +0.000 A 
ATOM      7  C   UNL     1       0.707  10.214  19.475  0.00  0.00    +0.000 A 
ENDROOT
BRANCH   7   8
ATOM      8  C   UNL     1      -0.112  11.401  19.884  0.00  0.00    +0.000 C 
ATOM      9  O   UNL     1       0.441  12.300  20.514  0.00  0.00    +0.000 OA
ATOM     10  N   UNL     1      -1.502  11.580  19.610  0.00  0.00    +0.000 N 
ATOM     11  C   UNL     1      -2.416  12.295  20.403  0.00  0.00    +0.000 A 
ATOM     12  C   UNL     1      -2.071  12.909  21.726  0.00  0.00    +0.000 C 
ATOM     13  C   UNL     1      -3.646  12.329  19.758  0.00  0.00    +0.000 A 
ATOM     14  C   UNL     1      -3.500  11.609  18.539  0.00  0.00    +0.000 A 
ATOM     15  C   UNL     1      -4.385  11.349  17.467  0.00  0.00    +0.000 A 
ATOM     16  C   UNL     1      -3.950  10.622  16.358  0.00  0.00    +0.000 A 
ATOM     17  C   UNL     1      -2.648  10.154  16.299  0.00  0.00    +0.000 A 
ATOM     18  C   UNL     1      -1.749  10.416  17.335  0.00  0.00    +0.000 A 
ATOM     19  C   UNL     1      -2.187  11.131  18.470  0.00  0.00    +0.000 A 
BRANCH  13  20
ATOM     20  C   UNL     1      -4.891  13.052  20.212  0.00  0.00    +0.000 C 
BRANCH  20  21
ATOM     21  C   UNL     1      -5.746  12.314  21.224  0.00  0.00    +0.000 C 
ATOM     22  O   UNL     1      -5.693  12.529  22.424  0.00  0.00    +0.000 OA
BRANCH  21  23
ATOM     23  O   UNL     1      -6.520  11.324  20.720  0.00  0.00    +0.000 OA
ATOM     24  H   UNL     1      -6.842  11.503  19.815  0.00  0.00    +0.000 HD
ENDBRANCH  21  23
ENDBRANCH  20  21
ENDBRANCH  13  20
ENDBRANCH   7   8
BRANCH   4  25
ATOM     25  O   UNL     1       3.138   6.999  18.419  0.00  0.00    +0.000 OA
BRANCH  25  26
ATOM     26  C   UNL     1       2.499   5.740  18.215  0.00  0.00    +0.000 C 
BRANCH  26  27
ATOM     27  C   UNL     1       3.609   4.692  18.106  0.00  0.00    +0.000 C 
ATOM     28  C   UNL     1       4.338   4.441  19.432  0.00  0.00    +0.000 C 
ATOM     29  O   UNL     1       5.702   4.041  19.157  0.00  0.00    +0.000 OA
ATOM     30  C   UNL     1       5.929   4.492  17.881  0.00  0.00    +0.000 A 
ATOM     31  C   UNL     1       7.153   4.410  17.245  0.00  0.00    +0.000 A 
ATOM     32  C   UNL     1       7.228   4.816  15.912  0.00  0.00    +0.000 A 
ATOM     33  C   UNL     1       6.090   5.311  15.257  0.00  0.00    +0.000 A 
ATOM     34  C   UNL     1       4.861   5.389  15.921  0.00  0.00    +0.000 A 
ATOM     35  C   UNL     1       4.793   4.962  17.239  0.00  0.00    +0.000 A 
ENDBRANCH  26  27
ENDBRANCH  25  26
ENDBRANCH   4  25
TORSDOF 7
ENDMDL
MODEL 4
REMARK VINA RESULT:      -9.3      1.597      2.940
REMARK  Name = 
REMARK  9 active torsions:
REMARK  status: ('A' for Active; 'I' for Inactive)
REMARK    1  A    between atoms: C_1  and  C_2
REMARK    2  A    between atoms: C_4  and  O_5
REMARK    3  A    between atoms: O_5  and  C_6
REMARK    4  A    between atoms: C_6  and  C_7
REMARK    5  A    between atoms: C_18  and  C_19
REMARK    6  A    between atoms: C_22  and  C_23
REMARK    7  A    between atoms: C_24  and  C_25
REMARK    8  A    between atoms: C_25  and  C_26
REMARK    9  A    between atoms: C_26  and  O_28
REMARK                            x       y       z     vdW  Elec       q    Type
REMARK                         _______ _______ _______ _____ _____    ______ ____
ROOT
ATOM      1  C   UNL     1       0.394   8.753  21.494  0.00  0.00    +0.000 C 
ATOM      2  C   UNL     1       1.087   8.895  20.166  0.00  0.00    +0.000 A 
ATOM      3  C   UNL     1       1.849   7.802  19.727  0.00  0.00    +0.000 A 
ATOM      4  C   UNL     1       2.532   7.812  18.509  0.00  0.00    +0.000 A 
ATOM      5  C   UNL     1       2.422   8.915  17.676  0.00  0.00    +0.000 A 
ATOM      6  C   UNL     1       1.663  10.022  18.093  0.00  0.00    +0.000 A 
ATOM      7  C   UNL     1       1.046  10.050  19.362  0.00  0.00    +0.000 A 
ENDROOT
BRANCH   7   8
ATOM      8  C   UNL     1       0.332  11.296  19.788  0.00  0.00    +0.000 C 
ATOM      9  O   UNL     1       0.987  12.189  20.321  0.00  0.00    +0.000 OA
ATOM     10  N   UNL     1      -1.067  11.540  19.636  0.00  0.00    +0.000 N 
ATOM     11  C   UNL     1      -1.864  12.338  20.476  0.00  0.00    +0.000 A 
ATOM     12  C   UNL     1      -1.363  12.989  21.729  0.00  0.00    +0.000 C 
ATOM     13  C   UNL     1      -3.146  12.412  19.946  0.00  0.00    +0.000 A 
ATOM     14  C   UNL     1      -3.155  11.633  18.755  0.00  0.00    +0.000 A 
ATOM     15  C   UNL     1      -4.150  11.377  17.783  0.00  0.00    +0.000 A 
ATOM     16  C   UNL     1      -3.860  10.580  16.675  0.00  0.00    +0.000 A 
ATOM     17  C   UNL     1      -2.594  10.038  16.518  0.00  0.00    +0.000 A 
ATOM     18  C   UNL     1      -1.589  10.294  17.452  0.00  0.00    +0.000 A 
ATOM     19  C   UNL     1      -1.880  11.081  18.588  0.00  0.00    +0.000 A 
BRANCH  13  20
ATOM     20  C   UNL     1      -4.304  13.222  20.478  0.00  0.00    +0.000 C 
BRANCH  20  21
ATOM     21  C   UNL     1      -5.143  12.544  21.544  0.00  0.00    +0.000 C 
ATOM     22  O   UNL     1      -4.877  12.595  22.734  0.00  0.00    +0.000 OA
BRANCH  21  23
ATOM     23  O   UNL     1      -6.172  11.792  21.086  0.00  0.00    +0.000 OA
ATOM     24  H   UNL     1      -6.809  11.538  21.782  0.00  0.00    +0.000 HD
ENDBRANCH  21  23
ENDBRANCH  20  21
ENDBRANCH  13  20
ENDBRANCH   7   8
BRANCH   4  25
ATOM     25  O   UNL     1       3.196   6.656  18.255  0.00  0.00    +0.000 OA
BRANCH  25  26
ATOM     26  C   UNL     1       4.186   6.198  19.174  0.00  0.00    +0.000 C 
BRANCH  26  27
ATOM     27  C   UNL     1       4.135   4.668  19.154  0.00  0.00    +0.000 C 
ATOM     28  C   UNL     1       4.718   4.059  17.874  0.00  0.00    +0.000 C 
ATOM     29  O   UNL     1       4.055   2.801  17.601  0.00  0.00    +0.000 OA
ATOM     30  C   UNL     1       2.882   2.884  18.307  0.00  0.00    +0.000 A 
ATOM     31  C   UNL     1       1.885   1.928  18.254  0.00  0.00    +0.000 A 
ATOM     32  C   UNL     1       0.782   2.083  19.095  0.00  0.00    +0.000 A 
ATOM     33  C   UNL     1       0.692   3.194  19.948  0.00  0.00    +0.000 A 
ATOM     34  C   UNL     1       1.711   4.152  19.983  0.00  0.00    +0.000 A 
ATOM     35  C   UNL     1       2.814   3.977  19.159  0.00  0.00    +0.000 A 
ENDBRANCH  26  27
ENDBRANCH  25  26
ENDBRANCH   4  25
TORSDOF 7
ENDMDL
MODEL 5
REMARK VINA RESULT:      -9.3      1.222      1.660
REMARK  Name = 
REMARK  9 active torsions:
REMARK  status: ('A' for Active; 'I' for Inactive)
REMARK    1  A    between atoms: C_1  and  C_2
REMARK    2  A    between atoms: C_4  and  O_5
REMARK    3  A    between atoms: O_5  and  C_6
REMARK    4  A    between atoms: C_6  and  C_7
REMARK    5  A    between atoms: C_18  and  C_19
REMARK    6  A    between atoms: C_22  and  C_23
REMARK    7  A    between atoms: C_24  and  C_25
REMARK    8  A    between atoms: C_25  and  C_26
REMARK    9  A    between atoms: C_26  and  O_28
REMARK                            x       y       z     vdW  Elec       q    Type
REMARK                         _______ _______ _______ _____ _____    ______ ____
ROOT
ATOM      1  C   UNL     1       0.783   8.572  21.592  0.00  0.00    +0.000 C 
ATOM      2  C   UNL     1       1.378   8.603  20.210  0.00  0.00    +0.000 A 
ATOM      3  C   UNL     1       2.040   7.443  19.778  0.00  0.00    +0.000 A 
ATOM      4  C   UNL     1       2.626   7.349  18.514  0.00  0.00    +0.000 A 
ATOM      5  C   UNL     1       2.514   8.412  17.631  0.00  0.00    +0.000 A 
ATOM      6  C   UNL     1       1.854   9.582  18.039  0.00  0.00    +0.000 A 
ATOM      7  C   UNL     1       1.340   9.714  19.348  0.00  0.00    +0.000 A 
ENDROOT
BRANCH   7   8
ATOM      8  C   UNL     1       0.732  11.022  19.755  0.00  0.00    +0.000 C 
ATOM      9  O   UNL     1       1.470  11.886  20.223  0.00  0.00    +0.000 OA
ATOM     10  N   UNL     1      -0.652  11.358  19.652  0.00  0.00    +0.000 N 
ATOM     11  C   UNL     1      -1.354  12.239  20.493  0.00  0.00    +0.000 A 
ATOM     12  C   UNL     1      -0.754  12.898  21.698  0.00  0.00    +0.000 C 
ATOM     13  C   UNL     1      -2.650  12.384  20.015  0.00  0.00    +0.000 A 
ATOM     14  C   UNL     1      -2.766  11.565  18.857  0.00  0.00    +0.000 A 
ATOM     15  C   UNL     1      -3.819  11.344  17.939  0.00  0.00    +0.000 A 
ATOM     16  C   UNL     1      -3.634  10.489  16.852  0.00  0.00    +0.000 A 
ATOM     17  C   UNL     1      -2.417   9.855  16.663  0.00  0.00    +0.000 A 
ATOM     18  C   UNL     1      -1.355  10.073  17.543  0.00  0.00    +0.000 A 
ATOM     19  C   UNL     1      -1.541  10.919  18.658  0.00  0.00    +0.000 A 
BRANCH  13  20
ATOM     20  C   UNL     1      -3.726  13.291  20.564  0.00  0.00    +0.000 C 
BRANCH  20  21
ATOM     21  C   UNL     1      -4.712  12.639  21.513  0.00  0.00    +0.000 C 
ATOM     22  O   UNL     1      -4.449  12.389  22.679  0.00  0.00    +0.000 OA
BRANCH  21  23
ATOM     23  O   UNL     1      -5.891  12.264  20.962  0.00  0.00    +0.000 OA
ATOM     24  H   UNL     1      -5.943  11.308  20.768  0.00  0.00    +0.000 HD
ENDBRANCH  21  23
ENDBRANCH  20  21
ENDBRANCH  13  20
ENDBRANCH   7   8
BRANCH   4  25
ATOM     25  O   UNL     1       3.202   6.143  18.277  0.00  0.00    +0.000 OA
BRANCH  25  26
ATOM     26  C   UNL     1       3.650   5.351  19.376  0.00  0.00    +0.000 C 
BRANCH  26  27
ATOM     27  C   UNL     1       4.934   4.651  18.922  0.00  0.00    +0.000 C 
ATOM     28  C   UNL     1       6.206   5.286  19.494  0.00  0.00    +0.000 C 
ATOM     29  O   UNL     1       7.298   5.086  18.565  0.00  0.00    +0.000 OA
ATOM     30  C   UNL     1       6.675   4.834  17.370  0.00  0.00    +0.000 A 
ATOM     31  C   UNL     1       7.346   4.678  16.171  0.00  0.00    +0.000 A 
ATOM     32  C   UNL     1       6.602   4.329  15.043  0.00  0.00    +0.000 A 
ATOM     33  C   UNL     1       5.212   4.165  15.134  0.00  0.00    +0.000 A 
ATOM     34  C   UNL     1       4.552   4.331  16.357  0.00  0.00    +0.000 A 
ATOM     35  C   UNL     1       5.303   4.657  17.476  0.00  0.00    +0.000 A 
ENDBRANCH  26  27
ENDBRANCH  25  26
ENDBRANCH   4  25
TORSDOF 7
ENDMDL
MODEL 6
REMARK VINA RESULT:      -9.2      1.042      1.141
REMARK  Name = 
REMARK  9 active torsions:
REMARK  status: ('A' for Active; 'I' for Inactive)
REMARK    1  A    between atoms: C_1  and  C_2
REMARK    2  A    between atoms: C_4  and  O_5
REMARK    3  A    between atoms: O_5  and  C_6
REMARK    4  A    between atoms: C_6  and  C_7
REMARK    5  A    between atoms: C_18  and  C_19
REMARK    6  A    between atoms: C_22  and  C_23
REMARK    7  A    between atoms: C_24  and  C_25
REMARK    8  A    between atoms: C_25  and  C_26
REMARK    9  A    between atoms: C_26  and  O_28
REMARK                            x       y       z     vdW  Elec       q    Type
REMARK                         _______ _______ _______ _____ _____    ______ ____
ROOT
ATOM      1  C   UNL     1       0.434   9.186  22.211  0.00  0.00    +0.000 C 
ATOM      2  C   UNL     1       1.018   8.985  20.839  0.00  0.00    +0.000 A 
ATOM      3  C   UNL     1       1.601   7.736  20.574  0.00  0.00    +0.000 A 
ATOM      4  C   UNL     1       2.170   7.429  19.337  0.00  0.00    +0.000 A 
ATOM      5  C   UNL     1       2.120   8.363  18.313  0.00  0.00    +0.000 A 
ATOM      6  C   UNL     1       1.540   9.619  18.553  0.00  0.00    +0.000 A 
ATOM      7  C   UNL     1       1.045   9.965  19.830  0.00  0.00    +0.000 A 
ENDROOT
BRANCH   7   8
ATOM      8  C   UNL     1       0.527  11.354  20.049  0.00  0.00    +0.000 C 
ATOM      9  O   UNL     1       1.332  12.240  20.325  0.00  0.00    +0.000 OA
ATOM     10  N   UNL     1      -0.844  11.746  19.973  0.00  0.00    +0.000 N 
ATOM     11  C   UNL     1      -1.448  12.789  20.694  0.00  0.00    +0.000 A 
ATOM     12  C   UNL     1      -0.741  13.601  21.737  0.00  0.00    +0.000 C 
ATOM     13  C   UNL     1      -2.766  12.928  20.275  0.00  0.00    +0.000 A 
ATOM     14  C   UNL     1      -2.995  11.939  19.277  0.00  0.00    +0.000 A 
ATOM     15  C   UNL     1      -4.115  11.632  18.470  0.00  0.00    +0.000 A 
ATOM     16  C   UNL     1      -4.042  10.603  17.531  0.00  0.00    +0.000 A 
ATOM     17  C   UNL     1      -2.870   9.880  17.379  0.00  0.00    +0.000 A 
ATOM     18  C   UNL     1      -1.744  10.178  18.148  0.00  0.00    +0.000 A 
ATOM     19  C   UNL     1      -1.816  11.202  19.117  0.00  0.00    +0.000 A 
BRANCH  13  20
ATOM     20  C   UNL     1      -3.760  13.971  20.727  0.00  0.00    +0.000 C 
BRANCH  20  21
ATOM     21  C   UNL     1      -4.817  13.490  21.702  0.00  0.00    +0.000 C 
ATOM     22  O   UNL     1      -4.850  12.352  22.141  0.00  0.00    +0.000 OA
BRANCH  21  23
ATOM     23  O   UNL     1      -5.791  14.384  21.992  0.00  0.00    +0.000 OA
ATOM     24  H   UNL     1      -6.221  14.764  21.200  0.00  0.00    +0.000 HD
ENDBRANCH  21  23
ENDBRANCH  20  21
ENDBRANCH  13  20
ENDBRANCH   7   8
BRANCH   4  25
ATOM     25  O   UNL     1       2.665   6.167  19.271  0.00  0.00    +0.000 OA
BRANCH  25  26
ATOM     26  C   UNL     1       2.579   5.442  18.045  0.00  0.00    +0.000 C 
BRANCH  26  27
ATOM     27  C   UNL     1       3.793   4.510  17.996  0.00  0.00    +0.000 C 
ATOM     28  C   UNL     1       4.552   4.432  19.325  0.00  0.00    +0.000 C 
ATOM     29  O   UNL     1       5.949   4.158  19.061  0.00  0.00    +0.000 OA
ATOM     30  C   UNL     1       6.120   4.537  17.754  0.00  0.00    +0.000 A 
ATOM     31  C   UNL     1       7.341   4.538  17.108  0.00  0.00    +0.000 A 
ATOM     32  C   UNL     1       7.365   4.853  15.749  0.00  0.00    +0.000 A 
ATOM     33  C   UNL     1       6.178   5.179  15.076  0.00  0.00    +0.000 A 
ATOM     34  C   UNL     1       4.952   5.175  15.750  0.00  0.00    +0.000 A 
ATOM     35  C   UNL     1       4.936   4.839  17.096  0.00  0.00    +0.000 A 
ENDBRANCH  26  27
ENDBRANCH  25  26
ENDBRANCH   4  25
TORSDOF 7
ENDMDL
MODEL 7
REMARK VINA RESULT:      -9.0      1.006      1.185
REMARK  Name = 
REMARK  9 active torsions:
REMARK  status: ('A' for Active; 'I' for Inactive)
REMARK    1  A    between atoms: C_1  and  C_2
REMARK    2  A    between atoms: C_4  and  O_5
REMARK    3  A    between atoms: O_5  and  C_6
REMARK    4  A    between atoms: C_6  and  C_7
REMARK    5  A    between atoms: C_18  and  C_19
REMARK    6  A    between atoms: C_22  and  C_23
REMARK    7  A    between atoms: C_24  and  C_25
REMARK    8  A    between atoms: C_25  and  C_26
REMARK    9  A    between atoms: C_26  and  O_28
REMARK                            x       y       z     vdW  Elec       q    Type
REMARK                         _______ _______ _______ _____ _____    ______ ____
ROOT
ATOM      1  C   UNL     1       0.468   8.974  22.160  0.00  0.00    +0.000 C 
ATOM      2  C   UNL     1       1.066   8.834  20.787  0.00  0.00    +0.000 A 
ATOM      3  C   UNL     1       1.594   7.578  20.448  0.00  0.00    +0.000 A 
ATOM      4  C   UNL     1       2.169   7.325  19.202  0.00  0.00    +0.000 A 
ATOM      5  C   UNL     1       2.180   8.324  18.241  0.00  0.00    +0.000 A 
ATOM      6  C   UNL     1       1.657   9.589  18.555  0.00  0.00    +0.000 A 
ATOM      7  C   UNL     1       1.157   9.875  19.844  0.00  0.00    +0.000 A 
ENDROOT
BRANCH   7   8
ATOM      8  C   UNL     1       0.701  11.270  20.146  0.00  0.00    +0.000 C 
ATOM      9  O   UNL     1       1.550  12.109  20.440  0.00  0.00    +0.000 OA
ATOM     10  N   UNL     1      -0.654  11.718  20.132  0.00  0.00    +0.000 N 
ATOM     11  C   UNL     1      -1.194  12.747  20.923  0.00  0.00    +0.000 A 
ATOM     12  C   UNL     1      -0.424  13.477  21.981  0.00  0.00    +0.000 C 
ATOM     13  C   UNL     1      -2.517  12.957  20.552  0.00  0.00    +0.000 A 
ATOM     14  C   UNL     1      -2.815  12.028  19.515  0.00  0.00    +0.000 A 
ATOM     15  C   UNL     1      -3.970  11.805  18.730  0.00  0.00    +0.000 A 
ATOM     16  C   UNL     1      -3.966  10.822  17.740  0.00  0.00    +0.000 A 
ATOM     17  C   UNL     1      -2.829  10.062  17.516  0.00  0.00    +0.000 A 
ATOM     18  C   UNL     1      -1.669  10.278  18.263  0.00  0.00    +0.000 A 
ATOM     19  C   UNL     1      -1.672  11.255  19.282  0.00  0.00    +0.000 A 
BRANCH  13  20
ATOM     20  C   UNL     1      -3.454  14.014  21.085  0.00  0.00    +0.000 C 
BRANCH  20  21
ATOM     21  C   UNL     1      -3.274  15.403  20.505  0.00  0.00    +0.000 C 
ATOM     22  O   UNL     1      -2.210  16.000  20.526  0.00  0.00    +0.000 OA
BRANCH  21  23
ATOM     23  O   UNL     1      -4.400  15.989  20.034  0.00  0.00    +0.000 OA
ATOM     24  H   UNL     1      -4.242  16.860  19.619  0.00  0.00    +0.000 HD
ENDBRANCH  21  23
ENDBRANCH  20  21
ENDBRANCH  13  20
ENDBRANCH   7   8
BRANCH   4  25
ATOM     25  O   UNL     1       2.604   6.047  19.060  0.00  0.00    +0.000 OA
BRANCH  25  26
ATOM     26  C   UNL     1       2.897   5.545  17.757  0.00  0.00    +0.000 C 
BRANCH  26  27
ATOM     27  C   UNL     1       4.310   4.957  17.817  0.00  0.00    +0.000 C 
ATOM     28  C   UNL     1       4.541   4.058  19.037  0.00  0.00    +0.000 C 
ATOM     29  O   UNL     1       5.939   4.114  19.410  0.00  0.00    +0.000 OA
ATOM     30  C   UNL     1       6.389   5.276  18.838  0.00  0.00    +0.000 A 
ATOM     31  C   UNL     1       7.663   5.780  19.023  0.00  0.00    +0.000 A 
ATOM     32  C   UNL     1       8.028   6.920  18.308  0.00  0.00    +0.000 A 
ATOM     33  C   UNL     1       7.111   7.540  17.445  0.00  0.00    +0.000 A 
ATOM     34  C   UNL     1       5.825   7.016  17.276  0.00  0.00    +0.000 A 
ATOM     35  C   UNL     1       5.479   5.869  17.975  0.00  0.00    +0.000 A 
ENDBRANCH  26  27
ENDBRANCH  25  26
ENDBRANCH   4  25
TORSDOF 7
ENDMDL
MODEL 8
REMARK VINA RESULT:      -8.9      1.164      1.700
REMARK  Name = 
REMARK  9 active torsions:
REMARK  status: ('A' for Active; 'I' for Inactive)
REMARK    1  A    between atoms: C_1  and  C_2
REMARK    2  A    between atoms: C_4  and  O_5
REMARK    3  A    between atoms: O_5  and  C_6
REMARK    4  A    between atoms: C_6  and  C_7
REMARK    5  A    between atoms: C_18  and  C_19
REMARK    6  A    between atoms: C_22  and  C_23
REMARK    7  A    between atoms: C_24  and  C_25
REMARK    8  A    between atoms: C_25  and  C_26
REMARK    9  A    between atoms: C_26  and  O_28
REMARK                            x       y       z     vdW  Elec       q    Type
REMARK                         _______ _______ _______ _____ _____    ______ ____
ROOT
ATOM      1  C   UNL     1       1.932  10.603  17.967  0.00  0.00    +0.000 C 
ATOM      2  C   UNL     1       1.649   9.607  19.058  0.00  0.00    +0.000 A 
ATOM      3  C   UNL     1       2.159   8.311  18.883  0.00  0.00    +0.000 A 
ATOM      4  C   UNL     1       1.968   7.302  19.829  0.00  0.00    +0.000 A 
ATOM      5  C   UNL     1       1.295   7.591  21.006  0.00  0.00    +0.000 A 
ATOM      6  C   UNL     1       0.777   8.881  21.206  0.00  0.00    +0.000 A 
ATOM      7  C   UNL     1       0.890   9.877  20.212  0.00  0.00    +0.000 A 
ENDROOT
BRANCH   7   8
ATOM      8  C   UNL     1       0.233  11.204  20.444  0.00  0.00    +0.000 C 
ATOM      9  O   UNL     1       0.888  12.092  20.985  0.00  0.00    +0.000 OA
ATOM     10  N   UNL     1      -1.112  11.532  20.094  0.00  0.00    +0.000 N 
ATOM     11  C   UNL     1      -1.939  12.455  20.758  0.00  0.00    +0.000 A 
ATOM     12  C   UNL     1      -1.544  13.176  22.011  0.00  0.00    +0.000 C 
ATOM     13  C   UNL     1      -3.136  12.574  20.063  0.00  0.00    +0.000 A 
ATOM     14  C   UNL     1      -3.061  11.696  18.945  0.00  0.00    +0.000 A 
ATOM     15  C   UNL     1      -3.947  11.426  17.876  0.00  0.00    +0.000 A 
ATOM     16  C   UNL     1      -3.589  10.517  16.881  0.00  0.00    +0.000 A 
ATOM     17  C   UNL     1      -2.363   9.876  16.931  0.00  0.00    +0.000 A 
ATOM     18  C   UNL     1      -1.462  10.140  17.964  0.00  0.00    +0.000 A 
ATOM     19  C   UNL     1      -1.825  11.042  18.988  0.00  0.00    +0.000 A 
BRANCH  13  20
ATOM     20  C   UNL     1      -4.281  13.507  20.377  0.00  0.00    +0.000 C 
BRANCH  20  21
ATOM     21  C   UNL     1      -5.503  12.859  20.998  0.00  0.00    +0.000 C 
ATOM     22  O   UNL     1      -6.609  12.891  20.482  0.00  0.00    +0.000 OA
BRANCH  21  23
ATOM     23  O   UNL     1      -5.314  12.309  22.220  0.00  0.00    +0.000 OA
ATOM     24  H   UNL     1      -5.770  11.452  22.338  0.00  0.00    +0.000 HD
ENDBRANCH  21  23
ENDBRANCH  20  21
ENDBRANCH  13  20
ENDBRANCH   7   8
BRANCH   4  25
ATOM     25  O   UNL     1       2.553   6.126  19.486  0.00  0.00    +0.000 OA
BRANCH  25  26
ATOM     26  C   UNL     1       2.579   5.728  18.116  0.00  0.00    +0.000 C 
BRANCH  26  27
ATOM     27  C   UNL     1       3.699   4.693  17.978  0.00  0.00    +0.000 C 
ATOM     28  C   UNL     1       4.435   4.416  19.294  0.00  0.00    +0.000 C 
ATOM     29  O   UNL     1       5.802   4.036  19.003  0.00  0.00    +0.000 OA
ATOM     30  C   UNL     1       6.020   4.520  17.739  0.00  0.00    +0.000 A 
ATOM     31  C   UNL     1       7.242   4.465  17.095  0.00  0.00    +0.000 A 
ATOM     32  C   UNL     1       7.307   4.904  15.773  0.00  0.00    +0.000 A 
ATOM     33  C   UNL     1       6.162   5.405  15.135  0.00  0.00    +0.000 A 
ATOM     34  C   UNL     1       4.936   5.455  15.806  0.00  0.00    +0.000 A 
ATOM     35  C   UNL     1       4.876   4.995  17.113  0.00  0.00    +0.000 A 
ENDBRANCH  26  27
ENDBRANCH  25  26
ENDBRANCH   4  25
TORSDOF 7
ENDMDL
MODEL 9
REMARK VINA RESULT:      -8.8      1.104      1.690
REMARK  Name = 
REMARK  9 active torsions:
REMARK  status: ('A' for Active; 'I' for Inactive)
REMARK    1  A    between atoms: C_1  and  C_2
REMARK    2  A    between atoms: C_4  and  O_5
REMARK    3  A    between atoms: O_5  and  C_6
REMARK    4  A    between atoms: C_6  and  C_7
REMARK    5  A    between atoms: C_18  and  C_19
REMARK    6  A    between atoms: C_22  and  C_23
REMARK    7  A    between atoms: C_24  and  C_25
REMARK    8  A    between atoms: C_25  and  C_26
REMARK    9  A    between atoms: C_26  and  O_28
REMARK                            x       y       z     vdW  Elec       q    Type
REMARK                         _______ _______ _______ _____ _____    ______ ____
ROOT
ATOM      1  C   UNL     1       1.739  11.181  18.200  0.00  0.00    +0.000 C 
ATOM      2  C   UNL     1       1.385  10.072  19.152  0.00  0.00    +0.000 A 
ATOM      3  C   UNL     1       2.088   8.865  19.010  0.00  0.00    +0.000 A 
ATOM      4  C   UNL     1       1.852   7.766  19.838  0.00  0.00    +0.000 A 
ATOM      5  C   UNL     1       0.931   7.874  20.869  0.00  0.00    +0.000 A 
ATOM      6  C   UNL     1       0.217   9.072  21.032  0.00  0.00    +0.000 A 
ATOM      7  C   UNL     1       0.387  10.153  20.141  0.00  0.00    +0.000 A 
ENDROOT
BRANCH   7   8
ATOM      8  C   UNL     1      -0.474  11.368  20.310  0.00  0.00    +0.000 C 
ATOM      9  O   UNL     1      -0.030  12.310  20.962  0.00  0.00    +0.000 OA
ATOM     10  N   UNL     1      -1.789  11.530  19.778  0.00  0.00    +0.000 N 
ATOM     11  C   UNL     1      -2.820  12.302  20.340  0.00  0.00    +0.000 A 
ATOM     12  C   UNL     1      -2.708  13.012  21.655  0.00  0.00    +0.000 C 
ATOM     13  C   UNL     1      -3.913  12.292  19.483  0.00  0.00    +0.000 A 
ATOM     14  C   UNL     1      -3.563  11.483  18.365  0.00  0.00    +0.000 A 
ATOM     15  C   UNL     1      -4.245  11.147  17.173  0.00  0.00    +0.000 A 
ATOM     16  C   UNL     1      -3.629  10.339  16.216  0.00  0.00    +0.000 A 
ATOM     17  C   UNL     1      -2.344   9.866  16.426  0.00  0.00    +0.000 A 
ATOM     18  C   UNL     1      -1.642  10.202  17.585  0.00  0.00    +0.000 A 
ATOM     19  C   UNL     1      -2.266  10.999  18.568  0.00  0.00    +0.000 A 
BRANCH  13  20
ATOM     20  C   UNL     1      -5.209  13.048  19.652  0.00  0.00    +0.000 C 
BRANCH  20  21
ATOM     21  C   UNL     1      -6.353  12.261  20.260  0.00  0.00    +0.000 C 
ATOM     22  O   UNL     1      -7.382  12.004  19.655  0.00  0.00    +0.000 OA
BRANCH  21  23
ATOM     23  O   UNL     1      -6.204  11.929  21.565  0.00  0.00    +0.000 OA
ATOM     24  H   UNL     1      -5.516  12.451  22.023  0.00  0.00    +0.000 HD
ENDBRANCH  21  23
ENDBRANCH  20  21
ENDBRANCH  13  20
ENDBRANCH   7   8
BRANCH   4  25
ATOM     25  O   UNL     1       2.644   6.700  19.555  0.00  0.00    +0.000 OA
BRANCH  25  26
ATOM     26  C   UNL     1       2.454   5.989  18.333  0.00  0.00    +0.000 C 
BRANCH  26  27
ATOM     27  C   UNL     1       3.734   5.187  18.083  0.00  0.00    +0.000 C 
ATOM     28  C   UNL     1       4.036   4.168  19.188  0.00  0.00    +0.000 C 
ATOM     29  O   UNL     1       5.469   3.977  19.279  0.00  0.00    +0.000 OA
ATOM     30  C   UNL     1       5.992   5.098  18.687  0.00  0.00    +0.000 A 
ATOM     31  C   UNL     1       7.344   5.382  18.641  0.00  0.00    +0.000 A 
ATOM     32  C   UNL     1       7.754   6.507  17.924  0.00  0.00    +0.000 A 
ATOM     33  C   UNL     1       6.808   7.328  17.292  0.00  0.00    +0.000 A 
ATOM     34  C   UNL     1       5.443   7.024  17.355  0.00  0.00    +0.000 A 
ATOM     35  C   UNL     1       5.048   5.892  18.051  0.00  0.00    +0.000 A 
ENDBRANCH  26  27
ENDBRANCH  25  26
ENDBRANCH   4  25
TORSDOF 7
ENDMDL
