MODEL 1
REMARK VINA RESULT:      -8.3      0.000      0.000
REMARK  Name = 
REMARK  4 active torsions:
REMARK  status: ('A' for Active; 'I' for Inactive)
REMARK    1  A    between atoms: N_1  and  C_2
REMARK    2  A    between atoms: C_2  and  C_3
REMARK    3  A    between atoms: C_6  and  C_7
REMARK    4  A    between atoms: C_20  and  C_21
REMARK                            x       y       z     vdW  Elec       q    Type
REMARK                         _______ _______ _______ _____ _____    ______ ____
ROOT
ATOM      1  C   UNL     1       0.953  11.471  19.182  0.00  0.00    +0.000 A 
ATOM      2  N   UNL     1       1.925  12.307  19.637  0.00  0.00    +0.000 NA
ATOM      3  C   UNL     1       1.845  13.652  19.543  0.00  0.00    +0.000 A 
ATOM      4  C   UNL     1       2.904  14.450  20.021  0.00  0.00    +0.000 A 
ATOM      5  C   UNL     1       2.822  15.846  19.909  0.00  0.00    +0.000 A 
ATOM      6  N   UNL     1       1.712  16.370  19.335  0.00  0.00    +0.000 N 
ATOM      7  C   UNL     1       1.342  17.643  19.092  0.00  0.00    +0.000 A 
ATOM      8  O   UNL     1       1.999  18.630  19.367  0.00  0.00    +0.000 OA
ATOM      9  N   UNL     1       0.122  17.672  18.491  0.00  0.00    +0.000 N 
ATOM     10  N   UNL     1      -0.291  16.415  18.350  0.00  0.00    +0.000 NA
ATOM     11  C   UNL     1       0.687  15.636  18.869  0.00  0.00    +0.000 A 
ATOM     12  C   UNL     1       0.709  14.241  18.950  0.00  0.00    +0.000 A 
ATOM     13  C   UNL     1      -0.331  13.425  18.493  0.00  0.00    +0.000 A 
ATOM     14  C   UNL     1      -0.249  12.021  18.615  0.00  0.00    +0.000 A 
ATOM     15  H   UNL     1      -0.414  18.514  18.185  0.00  0.00    +0.000 HD
ENDROOT
BRANCH   1  19
ATOM     16  C   UNL     1       1.942   7.280  19.386  0.00  0.00    +0.000 A 
ATOM     17  C   UNL     1       2.153   8.012  18.198  0.00  0.00    +0.000 A 
ATOM     18  C   UNL     1       1.803   9.364  18.125  0.00  0.00    +0.000 A 
ATOM     19  C   UNL     1       1.261  10.018  19.243  0.00  0.00    +0.000 A 
ATOM     20  C   UNL     1       1.013   9.269  20.405  0.00  0.00    +0.000 A 
ATOM     21  C   UNL     1       1.369   7.933  20.484  0.00  0.00    +0.000 A 
BRANCH  16  22
ATOM     22  C   UNL     1       2.373   5.821  19.508  0.00  0.00    +0.000 C 
ATOM     23  C   UNL     1       2.093   4.967  18.251  0.00  0.00    +0.000 C 
ATOM     24  C   UNL     1       3.497   5.291  17.766  0.00  0.00    +0.000 C 
ATOM     25  C   UNL     1       3.870   5.602  19.209  0.00  0.00    +0.000 C 
BRANCH  22  26
ATOM     26  N   UNL     1       1.917   5.201  20.749  0.00  0.00    +0.000 NA
ATOM     27  H   UNL     1       1.282   4.400  20.526  0.00  0.00    +0.000 HD
ATOM     28  H   UNL     1       1.391   5.908  21.303  0.00  0.00    +0.000 HD
ENDBRANCH  22  26
ENDBRANCH  16  22
ENDBRANCH   1  19
BRANCH  14  29
ATOM     29  C   UNL     1      -1.426  11.179  18.183  0.00  0.00    +0.000 A 
ATOM     30  C   UNL     1      -2.716  11.403  18.707  0.00  0.00    +0.000 A 
ATOM     31  C   UNL     1      -3.815  10.672  18.237  0.00  0.00    +0.000 A 
ATOM     32  C   UNL     1      -3.646   9.702  17.248  0.00  0.00    +0.000 A 
ATOM     33  C   UNL     1      -2.375   9.433  16.749  0.00  0.00    +0.000 A 
ATOM     34  C   UNL     1      -1.276  10.148  17.223  0.00  0.00    +0.000 A 
ENDBRANCH  14  29
TORSDOF 4
ENDMDL
MODEL 2
REMARK VINA RESULT:      -8.3      3.193      6.301
REMARK  Name = 
REMARK  4 active torsions:
REMARK  status: ('A' for Active; 'I' for Inactive)
REMARK    1  A    between atoms: N_1  and  C_2
REMARK    2  A    between atoms: C_2  and  C_3
REMARK    3  A    between atoms: C_6  and  C_7
REMARK    4  A    between atoms: C_20  and  C_21
REMARK                            x       y       z     vdW  Elec       q    Type
REMARK                         _______ _______ _______ _____ _____    ______ ____
ROOT
ATOM      1  C   UNL     1      -0.827  13.181  19.622  0.00  0.00    +0.000 A 
ATOM      2  N   UNL     1      -0.475  14.319  18.965  0.00  0.00    +0.000 NA
ATOM      3  C   UNL     1       0.720  14.928  19.132  0.00  0.00    +0.000 A 
ATOM      4  C   UNL     1       1.002  16.116  18.428  0.00  0.00    +0.000 A 
ATOM      5  C   UNL     1       2.239  16.752  18.615  0.00  0.00    +0.000 A 
ATOM      6  N   UNL     1       3.116  16.185  19.478  0.00  0.00    +0.000 N 
ATOM      7  C   UNL     1       4.359  16.544  19.861  0.00  0.00    +0.000 A 
ATOM      8  O   UNL     1       4.959  17.527  19.465  0.00  0.00    +0.000 OA
ATOM      9  N   UNL     1       4.851  15.649  20.758  0.00  0.00    +0.000 N 
ATOM     10  N   UNL     1       3.924  14.715  20.950  0.00  0.00    +0.000 NA
ATOM     11  C   UNL     1       2.876  15.055  20.163  0.00  0.00    +0.000 A 
ATOM     12  C   UNL     1       1.663  14.376  20.023  0.00  0.00    +0.000 A 
ATOM     13  C   UNL     1       1.360  13.190  20.700  0.00  0.00    +0.000 A 
ATOM     14  C   UNL     1       0.118  12.549  20.504  0.00  0.00    +0.000 A 
ATOM     15  H   UNL     1       5.783  15.669  21.227  0.00  0.00    +0.000 HD
ENDROOT
BRANCH   1  19
ATOM     16  C   UNL     1      -4.902  11.926  18.990  0.00  0.00    +0.000 A 
ATOM     17  C   UNL     1      -4.574  12.793  20.053  0.00  0.00    +0.000 A 
ATOM     18  C   UNL     1      -3.247  13.175  20.274  0.00  0.00    +0.000 A 
ATOM     19  C   UNL     1      -2.226  12.720  19.424  0.00  0.00    +0.000 A 
ATOM     20  C   UNL     1      -2.558  11.820  18.397  0.00  0.00    +0.000 A 
ATOM     21  C   UNL     1      -3.872  11.450  18.169  0.00  0.00    +0.000 A 
BRANCH  16  22
ATOM     22  C   UNL     1      -6.350  11.546  18.693  0.00  0.00    +0.000 C 
ATOM     23  C   UNL     1      -6.706  10.079  19.028  0.00  0.00    +0.000 C 
ATOM     24  C   UNL     1      -7.161  10.545  20.402  0.00  0.00    +0.000 C 
ATOM     25  C   UNL     1      -7.326  11.942  19.818  0.00  0.00    +0.000 C 
BRANCH  22  26
ATOM     26  N   UNL     1      -6.778  11.960  17.359  0.00  0.00    +0.000 NA
ATOM     27  H   UNL     1      -7.568  11.352  17.041  0.00  0.00    +0.000 HD
ATOM     28  H   UNL     1      -5.979  11.852  16.702  0.00  0.00    +0.000 HD
ENDBRANCH  22  26
ENDBRANCH  16  22
ENDBRANCH   1  19
BRANCH  14  29
ATOM     29  C   UNL     1      -0.141  11.229  21.192  0.00  0.00    +0.000 A 
ATOM     30  C   UNL     1       0.122  10.004  20.545  0.00  0.00    +0.000 A 
ATOM     31  C   UNL     1      -0.043   8.788  21.223  0.00  0.00    +0.000 A 
ATOM     32  C   UNL     1      -0.480   8.773  22.549  0.00  0.00    +0.000 A 
ATOM     33  C   UNL     1      -0.789   9.969  23.191  0.00  0.00    +0.000 A 
ATOM     34  C   UNL     1      -0.640  11.180  22.517  0.00  0.00    +0.000 A 
ENDBRANCH  14  29
TORSDOF 4
ENDMDL
MODEL 3
REMARK VINA RESULT:      -8.2      3.220      6.385
REMARK  Name = 
REMARK  4 active torsions:
REMARK  status: ('A' for Active; 'I' for Inactive)
REMARK    1  A    between atoms: N_1  and  C_2
REMARK    2  A    between atoms: C_2  and  C_3
REMARK    3  A    between atoms: C_6  and  C_7
REMARK    4  A    between atoms: C_20  and  C_21
REMARK                            x       y       z     vdW  Elec       q    Type
REMARK                         _______ _______ _______ _____ _____    ______ ____
ROOT
ATOM      1  C   UNL     1      -0.744  13.342  19.824  0.00  0.00    +0.000 A 
ATOM      2  N   UNL     1      -0.452  14.487  19.151  0.00  0.00    +0.000 NA
ATOM      3  C   UNL     1       0.775  15.053  19.155  0.00  0.00    +0.000 A 
ATOM      4  C   UNL     1       0.993  16.252  18.447  0.00  0.00    +0.000 A 
ATOM      5  C   UNL     1       2.266  16.843  18.466  0.00  0.00    +0.000 A 
ATOM      6  N   UNL     1       3.240  16.223  19.176  0.00  0.00    +0.000 N 
ATOM      7  C   UNL     1       4.537  16.532  19.381  0.00  0.00    +0.000 A 
ATOM      8  O   UNL     1       5.107  17.506  18.925  0.00  0.00    +0.000 OA
ATOM      9  N   UNL     1       5.123  15.595  20.173  0.00  0.00    +0.000 N 
ATOM     10  N   UNL     1       4.201  14.685  20.476  0.00  0.00    +0.000 NA
ATOM     11  C   UNL     1       3.062  15.082  19.861  0.00  0.00    +0.000 A 
ATOM     12  C   UNL     1       1.819  14.445  19.883  0.00  0.00    +0.000 A 
ATOM     13  C   UNL     1       1.576  13.250  20.569  0.00  0.00    +0.000 A 
ATOM     14  C   UNL     1       0.296  12.654  20.541  0.00  0.00    +0.000 A 
ATOM     15  H   UNL     1       6.114  15.572  20.500  0.00  0.00    +0.000 HD
ENDROOT
BRANCH   1  19
ATOM     16  C   UNL     1      -4.908  12.228  19.758  0.00  0.00    +0.000 A 
ATOM     17  C   UNL     1      -4.428  13.161  20.702  0.00  0.00    +0.000 A 
ATOM     18  C   UNL     1      -3.071  13.497  20.741  0.00  0.00    +0.000 A 
ATOM     19  C   UNL     1      -2.173  12.930  19.822  0.00  0.00    +0.000 A 
ATOM     20  C   UNL     1      -2.653  11.970  18.918  0.00  0.00    +0.000 A 
ATOM     21  C   UNL     1      -3.997  11.643  18.869  0.00  0.00    +0.000 A 
BRANCH  16  22
ATOM     22  C   UNL     1      -6.393  11.893  19.657  0.00  0.00    +0.000 C 
ATOM     23  C   UNL     1      -7.294  13.093  19.287  0.00  0.00    +0.000 C 
ATOM     24  C   UNL     1      -7.154  12.698  17.825  0.00  0.00    +0.000 C 
ATOM     25  C   UNL     1      -6.790  11.294  18.292  0.00  0.00    +0.000 C 
BRANCH  22  26
ATOM     26  N   UNL     1      -6.878  11.131  20.804  0.00  0.00    +0.000 NA
ATOM     27  H   UNL     1      -6.165  11.159  21.569  0.00  0.00    +0.000 HD
ATOM     28  H   UNL     1      -7.025  10.142  20.512  0.00  0.00    +0.000 HD
ENDBRANCH  22  26
ENDBRANCH  16  22
ENDBRANCH   1  19
BRANCH  14  29
ATOM     29  C   UNL     1       0.095  11.323  21.227  0.00  0.00    +0.000 A 
ATOM     30  C   UNL     1      -0.534  11.238  22.487  0.00  0.00    +0.000 A 
ATOM     31  C   UNL     1      -0.790   9.992  23.075  0.00  0.00    +0.000 A 
ATOM     32  C   UNL     1      -0.417   8.815  22.424  0.00  0.00    +0.000 A 
ATOM     33  C   UNL     1       0.246   8.878  21.202  0.00  0.00    +0.000 A 
ATOM     34  C   UNL     1       0.516  10.115  20.619  0.00  0.00    +0.000 A 
ENDBRANCH  14  29
TORSDOF 4
ENDMDL
MODEL 4
REMARK VINA RESULT:      -8.1      3.841      6.415
REMARK  Name = 
REMARK  4 active torsions:
REMARK  status: ('A' for Active; 'I' for Inactive)
REMARK    1  A    between atoms: N_1  and  C_2
REMARK    2  A    between atoms: C_2  and  C_3
REMARK    3  A    between atoms: C_6  and  C_7
REMARK    4  A    between atoms: C_20  and  C_21
REMARK                            x       y       z     vdW  Elec       q    Type
REMARK                         _______ _______ _______ _____ _____    ______ ____
ROOT
ATOM      1  C   UNL     1       2.412   7.093  19.229  0.00  0.00    +0.000 A 
ATOM      2  N   UNL     1       2.402   8.442  19.052  0.00  0.00    +0.000 NA
ATOM      3  C   UNL     1       1.648   9.279  19.797  0.00  0.00    +0.000 A 
ATOM      4  C   UNL     1       1.679  10.664  19.539  0.00  0.00    +0.000 A 
ATOM      5  C   UNL     1       0.883  11.528  20.308  0.00  0.00    +0.000 A 
ATOM      6  N   UNL     1       0.109  10.980  21.275  0.00  0.00    +0.000 N 
ATOM      7  C   UNL     1      -0.744  11.531  22.163  0.00  0.00    +0.000 A 
ATOM      8  O   UNL     1      -0.989  12.719  22.256  0.00  0.00    +0.000 OA
ATOM      9  N   UNL     1      -1.296  10.566  22.947  0.00  0.00    +0.000 N 
ATOM     10  N   UNL     1      -0.796   9.395  22.561  0.00  0.00    +0.000 NA
ATOM     11  C   UNL     1       0.057   9.664  21.544  0.00  0.00    +0.000 A 
ATOM     12  C   UNL     1       0.824   8.753  20.814  0.00  0.00    +0.000 A 
ATOM     13  C   UNL     1       0.820   7.375  21.055  0.00  0.00    +0.000 A 
ATOM     14  C   UNL     1       1.628   6.509  20.285  0.00  0.00    +0.000 A 
ATOM     15  H   UNL     1      -1.988  10.694  23.716  0.00  0.00    +0.000 HD
ENDROOT
BRANCH   1  19
ATOM     16  C   UNL     1       4.750   4.800  16.426  0.00  0.00    +0.000 A 
ATOM     17  C   UNL     1       5.041   6.160  16.662  0.00  0.00    +0.000 A 
ATOM     18  C   UNL     1       4.262   6.909  17.549  0.00  0.00    +0.000 A 
ATOM     19  C   UNL     1       3.195   6.310  18.237  0.00  0.00    +0.000 A 
ATOM     20  C   UNL     1       2.885   4.969  17.960  0.00  0.00    +0.000 A 
ATOM     21  C   UNL     1       3.662   4.221  17.091  0.00  0.00    +0.000 A 
BRANCH  16  22
ATOM     22  C   UNL     1       5.623   3.947  15.510  0.00  0.00    +0.000 C 
ATOM     23  C   UNL     1       5.500   4.293  14.009  0.00  0.00    +0.000 C 
ATOM     24  C   UNL     1       6.679   5.241  14.171  0.00  0.00    +0.000 C 
ATOM     25  C   UNL     1       7.076   4.453  15.412  0.00  0.00    +0.000 C 
BRANCH  22  26
ATOM     26  N   UNL     1       5.507   2.519  15.791  0.00  0.00    +0.000 NA
ATOM     27  H   UNL     1       6.136   2.267  16.588  0.00  0.00    +0.000 HD
ATOM     28  H   UNL     1       5.800   1.986  14.946  0.00  0.00    +0.000 HD
ENDBRANCH  22  26
ENDBRANCH  16  22
ENDBRANCH   1  19
BRANCH  14  29
ATOM     29  C   UNL     1       1.657   5.038  20.628  0.00  0.00    +0.000 A 
ATOM     30  C   UNL     1       0.716   4.142  20.081  0.00  0.00    +0.000 A 
ATOM     31  C   UNL     1       0.804   2.768  20.340  0.00  0.00    +0.000 A 
ATOM     32  C   UNL     1       1.821   2.267  21.154  0.00  0.00    +0.000 A 
ATOM     33  C   UNL     1       2.734   3.139  21.740  0.00  0.00    +0.000 A 
ATOM     34  C   UNL     1       2.642   4.509  21.498  0.00  0.00    +0.000 A 
ENDBRANCH  14  29
TORSDOF 4
ENDMDL
MODEL 5
REMARK VINA RESULT:      -8.1      3.261      6.372
REMARK  Name = 
REMARK  4 active torsions:
REMARK  status: ('A' for Active; 'I' for Inactive)
REMARK    1  A    between atoms: N_1  and  C_2
REMARK    2  A    between atoms: C_2  and  C_3
REMARK    3  A    between atoms: C_6  and  C_7
REMARK    4  A    between atoms: C_20  and  C_21
REMARK                            x       y       z     vdW  Elec       q    Type
REMARK                         _______ _______ _______ _____ _____    ______ ____
ROOT
ATOM      1  C   UNL     1      -0.689  13.443  19.839  0.00  0.00    +0.000 A 
ATOM      2  N   UNL     1      -0.345  14.588  19.191  0.00  0.00    +0.000 NA
ATOM      3  C   UNL     1       0.896  15.119  19.239  0.00  0.00    +0.000 A 
ATOM      4  C   UNL     1       1.169  16.320  18.554  0.00  0.00    +0.000 A 
ATOM      5  C   UNL     1       2.456  16.875  18.617  0.00  0.00    +0.000 A 
ATOM      6  N   UNL     1       3.391  16.219  19.347  0.00  0.00    +0.000 N 
ATOM      7  C   UNL     1       4.689  16.487  19.594  0.00  0.00    +0.000 A 
ATOM      8  O   UNL     1       5.300  17.451  19.169  0.00  0.00    +0.000 OA
ATOM      9  N   UNL     1       5.226  15.524  20.391  0.00  0.00    +0.000 N 
ATOM     10  N   UNL     1       4.270  14.637  20.654  0.00  0.00    +0.000 NA
ATOM     11  C   UNL     1       3.161  15.074  20.011  0.00  0.00    +0.000 A 
ATOM     12  C   UNL     1       1.900  14.473  19.989  0.00  0.00    +0.000 A 
ATOM     13  C   UNL     1       1.604  13.276  20.650  0.00  0.00    +0.000 A 
ATOM     14  C   UNL     1       0.310  12.717  20.577  0.00  0.00    +0.000 A 
ATOM     15  H   UNL     1       6.205  15.469  20.746  0.00  0.00    +0.000 HD
ENDROOT
BRANCH   1  19
ATOM     16  C   UNL     1      -4.842  12.288  19.758  0.00  0.00    +0.000 A 
ATOM     17  C   UNL     1      -3.927  11.747  18.831  0.00  0.00    +0.000 A 
ATOM     18  C   UNL     1      -2.587  12.146  18.840  0.00  0.00    +0.000 A 
ATOM     19  C   UNL     1      -2.128  13.072  19.790  0.00  0.00    +0.000 A 
ATOM     20  C   UNL     1      -3.057  13.639  20.678  0.00  0.00    +0.000 A 
ATOM     21  C   UNL     1      -4.382  13.237  20.679  0.00  0.00    +0.000 A 
BRANCH  16  22
ATOM     22  C   UNL     1      -6.294  11.822  19.806  0.00  0.00    +0.000 C 
ATOM     23  C   UNL     1      -7.306  12.827  19.211  0.00  0.00    +0.000 C 
ATOM     24  C   UNL     1      -7.172  12.111  17.876  0.00  0.00    +0.000 C 
ATOM     25  C   UNL     1      -6.673  10.890  18.638  0.00  0.00    +0.000 C 
BRANCH  22  26
ATOM     26  N   UNL     1      -6.679  11.315  21.121  0.00  0.00    +0.000 NA
ATOM     27  H   UNL     1      -6.361  11.983  21.860  0.00  0.00    +0.000 HD
ATOM     28  H   UNL     1      -6.218  10.394  21.273  0.00  0.00    +0.000 HD
ENDBRANCH  22  26
ENDBRANCH  16  22
ENDBRANCH   1  19
BRANCH  14  29
ATOM     29  C   UNL     1       0.051  11.383  21.239  0.00  0.00    +0.000 A 
ATOM     30  C   UNL     1       0.483  10.178  20.648  0.00  0.00    +0.000 A 
ATOM     31  C   UNL     1       0.311   8.956  21.310  0.00  0.00    +0.000 A 
ATOM     32  C   UNL     1      -0.302   8.912  22.564  0.00  0.00    +0.000 A 
ATOM     33  C   UNL     1      -0.777  10.085  23.145  0.00  0.00    +0.000 A 
ATOM     34  C   UNL     1      -0.621  11.302  22.484  0.00  0.00    +0.000 A 
ENDBRANCH  14  29
TORSDOF 4
ENDMDL
MODEL 6
REMARK VINA RESULT:      -8.0      8.206     10.081
REMARK  Name = 
REMARK  4 active torsions:
REMARK  status: ('A' for Active; 'I' for Inactive)
REMARK    1  A    between atoms: N_1  and  C_2
REMARK    2  A    between atoms: C_2  and  C_3
REMARK    3  A    between atoms: C_6  and  C_7
REMARK    4  A    between atoms: C_20  and  C_21
REMARK                            x       y       z     vdW  Elec       q    Type
REMARK                         _______ _______ _______ _____ _____    ______ ____
ROOT
ATOM      1  C   UNL     1       8.345  12.947  22.407  0.00  0.00    +0.000 A 
ATOM      2  N   UNL     1       9.353  12.206  21.874  0.00  0.00    +0.000 NA
ATOM      3  C   UNL     1       9.915  12.478  20.676  0.00  0.00    +0.000 A 
ATOM      4  C   UNL     1      10.944  11.649  20.183  0.00  0.00    +0.000 A 
ATOM      5  C   UNL     1      11.516  11.928  18.932  0.00  0.00    +0.000 A 
ATOM      6  N   UNL     1      11.043  12.997  18.246  0.00  0.00    +0.000 N 
ATOM      7  C   UNL     1      11.380  13.515  17.047  0.00  0.00    +0.000 A 
ATOM      8  O   UNL     1      12.241  13.074  16.309  0.00  0.00    +0.000 OA
ATOM      9  N   UNL     1      10.617  14.608  16.777  0.00  0.00    +0.000 N 
ATOM     10  N   UNL     1       9.792  14.791  17.803  0.00  0.00    +0.000 NA
ATOM     11  C   UNL     1      10.064  13.803  18.688  0.00  0.00    +0.000 A 
ATOM     12  C   UNL     1       9.453  13.578  19.924  0.00  0.00    +0.000 A 
ATOM     13  C   UNL     1       8.437  14.388  20.443  0.00  0.00    +0.000 A 
ATOM     14  C   UNL     1       7.870  14.110  21.705  0.00  0.00    +0.000 A 
ATOM     15  H   UNL     1      10.653  15.210  15.925  0.00  0.00    +0.000 HD
ENDROOT
BRANCH   1  19
ATOM     16  C   UNL     1       6.577  11.539  26.078  0.00  0.00    +0.000 A 
ATOM     17  C   UNL     1       7.780  12.276  26.096  0.00  0.00    +0.000 A 
ATOM     18  C   UNL     1       8.368  12.705  24.901  0.00  0.00    +0.000 A 
ATOM     19  C   UNL     1       7.752  12.431  23.669  0.00  0.00    +0.000 A 
ATOM     20  C   UNL     1       6.580  11.658  23.660  0.00  0.00    +0.000 A 
ATOM     21  C   UNL     1       5.990  11.242  24.842  0.00  0.00    +0.000 A 
BRANCH  16  22
ATOM     22  C   UNL     1       5.886  11.114  27.371  0.00  0.00    +0.000 C 
ATOM     23  C   UNL     1       5.872  12.199  28.472  0.00  0.00    +0.000 C 
ATOM     24  C   UNL     1       4.516  12.652  27.953  0.00  0.00    +0.000 C 
ATOM     25  C   UNL     1       4.354  11.275  27.322  0.00  0.00    +0.000 C 
BRANCH  22  26
ATOM     26  N   UNL     1       6.333   9.807  27.845  0.00  0.00    +0.000 NA
ATOM     27  H   UNL     1       6.984   9.933  28.654  0.00  0.00    +0.000 HD
ATOM     28  H   UNL     1       6.838   9.326  27.073  0.00  0.00    +0.000 HD
ENDBRANCH  22  26
ENDBRANCH  16  22
ENDBRANCH   1  19
BRANCH  14  29
ATOM     29  C   UNL     1       6.833  15.054  22.265  0.00  0.00    +0.000 A 
ATOM     30  C   UNL     1       7.142  15.937  23.320  0.00  0.00    +0.000 A 
ATOM     31  C   UNL     1       6.196  16.866  23.775  0.00  0.00    +0.000 A 
ATOM     32  C   UNL     1       4.928  16.923  23.195  0.00  0.00    +0.000 A 
ATOM     33  C   UNL     1       4.587  16.030  22.183  0.00  0.00    +0.000 A 
ATOM     34  C   UNL     1       5.519  15.095  21.736  0.00  0.00    +0.000 A 
ENDBRANCH  14  29
TORSDOF 4
ENDMDL
MODEL 7
REMARK VINA RESULT:      -7.8      3.295      8.504
REMARK  Name = 
REMARK  4 active torsions:
REMARK  status: ('A' for Active; 'I' for Inactive)
REMARK    1  A    between atoms: N_1  and  C_2
REMARK    2  A    between atoms: C_2  and  C_3
REMARK    3  A    between atoms: C_6  and  C_7
REMARK    4  A    between atoms: C_20  and  C_21
REMARK                            x       y       z     vdW  Elec       q    Type
REMARK                         _______ _______ _______ _____ _____    ______ ____
ROOT
ATOM      1  C   UNL     1       0.828  12.150  19.445  0.00  0.00    +0.000 A 
ATOM      2  N   UNL     1       1.471  11.364  18.540  0.00  0.00    +0.000 NA
ATOM      3  C   UNL     1       1.712  10.051  18.744  0.00  0.00    +0.000 A 
ATOM      4  C   UNL     1       2.402   9.308  17.764  0.00  0.00    +0.000 A 
ATOM      5  C   UNL     1       2.663   7.946  17.986  0.00  0.00    +0.000 A 
ATOM      6  N   UNL     1       2.233   7.403  19.151  0.00  0.00    +0.000 N 
ATOM      7  C   UNL     1       2.323   6.152  19.646  0.00  0.00    +0.000 A 
ATOM      8  O   UNL     1       2.855   5.212  19.084  0.00  0.00    +0.000 OA
ATOM      9  N   UNL     1       1.733   6.086  20.869  0.00  0.00    +0.000 N 
ATOM     10  N   UNL     1       1.263   7.296  21.158  0.00  0.00    +0.000 NA
ATOM     11  C   UNL     1       1.574   8.085  20.103  0.00  0.00    +0.000 A 
ATOM     12  C   UNL     1       1.286   9.443  19.942  0.00  0.00    +0.000 A 
ATOM     13  C   UNL     1       0.594  10.202  20.892  0.00  0.00    +0.000 A 
ATOM     14  C   UNL     1       0.327  11.569  20.662  0.00  0.00    +0.000 A 
ATOM     15  H   UNL     1       1.651   5.250  21.489  0.00  0.00    +0.000 HD
ENDROOT
BRANCH   1  19
ATOM     16  C   UNL     1       0.625  16.374  18.605  0.00  0.00    +0.000 A 
ATOM     17  C   UNL     1      -0.544  15.583  18.603  0.00  0.00    +0.000 A 
ATOM     18  C   UNL     1      -0.471  14.208  18.845  0.00  0.00    +0.000 A 
ATOM     19  C   UNL     1       0.764  13.600  19.121  0.00  0.00    +0.000 A 
ATOM     20  C   UNL     1       1.926  14.388  19.076  0.00  0.00    +0.000 A 
ATOM     21  C   UNL     1       1.856  15.751  18.847  0.00  0.00    +0.000 A 
BRANCH  16  22
ATOM     22  C   UNL     1       0.563  17.885  18.404  0.00  0.00    +0.000 C 
ATOM     23  C   UNL     1       1.336  18.396  17.167  0.00  0.00    +0.000 C 
ATOM     24  C   UNL     1       0.049  18.284  16.365  0.00  0.00    +0.000 C 
ATOM     25  C   UNL     1      -0.717  18.350  17.680  0.00  0.00    +0.000 C 
BRANCH  22  26
ATOM     26  N   UNL     1       0.859  18.628  19.625  0.00  0.00    +0.000 NA
ATOM     27  H   UNL     1       1.022  19.635  19.391  0.00  0.00    +0.000 HD
ATOM     28  H   UNL     1       1.721  18.235  20.056  0.00  0.00    +0.000 HD
ENDBRANCH  22  26
ENDBRANCH  16  22
ENDBRANCH   1  19
BRANCH  14  29
ATOM     29  C   UNL     1      -0.491  12.335  21.675  0.00  0.00    +0.000 A 
ATOM     30  C   UNL     1      -1.694  11.809  22.191  0.00  0.00    +0.000 A 
ATOM     31  C   UNL     1      -2.400  12.490  23.191  0.00  0.00    +0.000 A 
ATOM     32  C   UNL     1      -1.928  13.707  23.685  0.00  0.00    +0.000 A 
ATOM     33  C   UNL     1      -0.767  14.266  23.158  0.00  0.00    +0.000 A 
ATOM     34  C   UNL     1      -0.067  13.600  22.153  0.00  0.00    +0.000 A 
ENDBRANCH  14  29
TORSDOF 4
ENDMDL
MODEL 8
REMARK VINA RESULT:      -7.8      4.565      7.222
REMARK  Name = 
REMARK  4 active torsions:
REMARK  status: ('A' for Active; 'I' for Inactive)
REMARK    1  A    between atoms: N_1  and  C_2
REMARK    2  A    between atoms: C_2  and  C_3
REMARK    3  A    between atoms: C_6  and  C_7
REMARK    4  A    between atoms: C_20  and  C_21
REMARK                            x       y       z     vdW  Elec       q    Type
REMARK                         _______ _______ _______ _____ _____    ______ ____
ROOT
ATOM      1  C   UNL     1      -2.052  13.145  20.558  0.00  0.00    +0.000 A 
ATOM      2  N   UNL     1      -2.374  13.741  21.737  0.00  0.00    +0.000 NA
ATOM      3  C   UNL     1      -3.588  13.622  22.317  0.00  0.00    +0.000 A 
ATOM      4  C   UNL     1      -3.850  14.288  23.532  0.00  0.00    +0.000 A 
ATOM      5  C   UNL     1      -5.118  14.171  24.124  0.00  0.00    +0.000 A 
ATOM      6  N   UNL     1      -6.044  13.413  23.489  0.00  0.00    +0.000 N 
ATOM      7  C   UNL     1      -7.321  13.109  23.797  0.00  0.00    +0.000 A 
ATOM      8  O   UNL     1      -7.916  13.499  24.785  0.00  0.00    +0.000 OA
ATOM      9  N   UNL     1      -7.856  12.301  22.844  0.00  0.00    +0.000 N 
ATOM     10  N   UNL     1      -6.920  12.085  21.923  0.00  0.00    +0.000 NA
ATOM     11  C   UNL     1      -5.824  12.768  22.331  0.00  0.00    +0.000 A 
ATOM     12  C   UNL     1      -4.585  12.846  21.691  0.00  0.00    +0.000 A 
ATOM     13  C   UNL     1      -4.293  12.188  20.491  0.00  0.00    +0.000 A 
ATOM     14  C   UNL     1      -3.015  12.301  19.902  0.00  0.00    +0.000 A 
ATOM     15  H   UNL     1      -8.822  11.908  22.815  0.00  0.00    +0.000 HD
ENDROOT
BRANCH   1  19
ATOM     16  C   UNL     1       1.822  14.214  18.998  0.00  0.00    +0.000 A 
ATOM     17  C   UNL     1       0.664  14.901  18.580  0.00  0.00    +0.000 A 
ATOM     18  C   UNL     1      -0.595  14.533  19.064  0.00  0.00    +0.000 A 
ATOM     19  C   UNL     1      -0.720  13.489  19.995  0.00  0.00    +0.000 A 
ATOM     20  C   UNL     1       0.434  12.781  20.370  0.00  0.00    +0.000 A 
ATOM     21  C   UNL     1       1.683  13.152  19.901  0.00  0.00    +0.000 A 
BRANCH  16  22
ATOM     22  C   UNL     1       3.211  14.638  18.531  0.00  0.00    +0.000 C 
ATOM     23  C   UNL     1       3.249  15.998  17.798  0.00  0.00    +0.000 C 
ATOM     24  C   UNL     1       3.546  16.665  19.132  0.00  0.00    +0.000 C 
ATOM     25  C   UNL     1       4.044  15.317  19.637  0.00  0.00    +0.000 C 
BRANCH  22  26
ATOM     26  N   UNL     1       3.917  13.574  17.823  0.00  0.00    +0.000 NA
ATOM     27  H   UNL     1       4.858  13.428  18.258  0.00  0.00    +0.000 HD
ATOM     28  H   UNL     1       4.042  13.858  16.829  0.00  0.00    +0.000 HD
ENDBRANCH  22  26
ENDBRANCH  16  22
ENDBRANCH   1  19
BRANCH  14  29
ATOM     29  C   UNL     1      -2.715  11.512  18.649  0.00  0.00    +0.000 A 
ATOM     30  C   UNL     1      -1.563  10.704  18.553  0.00  0.00    +0.000 A 
ATOM     31  C   UNL     1      -1.338   9.913  17.419  0.00  0.00    +0.000 A 
ATOM     32  C   UNL     1      -2.248   9.921  16.361  0.00  0.00    +0.000 A 
ATOM     33  C   UNL     1      -3.368  10.745  16.416  0.00  0.00    +0.000 A 
ATOM     34  C   UNL     1      -3.590  11.546  17.536  0.00  0.00    +0.000 A 
ENDBRANCH  14  29
TORSDOF 4
ENDMDL
MODEL 9
REMARK VINA RESULT:      -7.8      3.944      7.066
REMARK  Name = 
REMARK  4 active torsions:
REMARK  status: ('A' for Active; 'I' for Inactive)
REMARK    1  A    between atoms: N_1  and  C_2
REMARK    2  A    between atoms: C_2  and  C_3
REMARK    3  A    between atoms: C_6  and  C_7
REMARK    4  A    between atoms: C_20  and  C_21
REMARK                            x       y       z     vdW  Elec       q    Type
REMARK                         _______ _______ _______ _____ _____    ______ ____
ROOT
ATOM      1  C   UNL     1      -1.421  13.834  20.597  0.00  0.00    +0.000 A 
ATOM      2  N   UNL     1      -1.306  15.032  19.963  0.00  0.00    +0.000 NA
ATOM      3  C   UNL     1      -0.186  15.420  19.315  0.00  0.00    +0.000 A 
ATOM      4  C   UNL     1      -0.140  16.687  18.698  0.00  0.00    +0.000 A 
ATOM      5  C   UNL     1       1.030  17.090  18.037  0.00  0.00    +0.000 A 
ATOM      6  N   UNL     1       2.077  16.230  18.024  0.00  0.00    +0.000 N 
ATOM      7  C   UNL     1       3.309  16.321  17.482  0.00  0.00    +0.000 A 
ATOM      8  O   UNL     1       3.731  17.277  16.857  0.00  0.00    +0.000 OA
ATOM      9  N   UNL     1       4.018  15.189  17.732  0.00  0.00    +0.000 N 
ATOM     10  N   UNL     1       3.240  14.370  18.435  0.00  0.00    +0.000 NA
ATOM     11  C   UNL     1       2.063  15.018  18.603  0.00  0.00    +0.000 A 
ATOM     12  C   UNL     1       0.929  14.559  19.278  0.00  0.00    +0.000 A 
ATOM     13  C   UNL     1       0.851  13.303  19.891  0.00  0.00    +0.000 A 
ATOM     14  C   UNL     1      -0.330  12.897  20.548  0.00  0.00    +0.000 A 
ATOM     15  H   UNL     1       4.997  14.976  17.439  0.00  0.00    +0.000 HD
ENDROOT
BRANCH   1  19
ATOM     16  C   UNL     1      -5.004  13.141  22.891  0.00  0.00    +0.000 A 
ATOM     17  C   UNL     1      -4.819  12.516  21.640  0.00  0.00    +0.000 A 
ATOM     18  C   UNL     1      -3.670  12.766  20.884  0.00  0.00    +0.000 A 
ATOM     19  C   UNL     1      -2.671  13.624  21.374  0.00  0.00    +0.000 A 
ATOM     20  C   UNL     1      -2.886  14.276  22.599  0.00  0.00    +0.000 A 
ATOM     21  C   UNL     1      -4.018  14.021  23.354  0.00  0.00    +0.000 A 
BRANCH  16  22
ATOM     22  C   UNL     1      -6.220  12.835  23.761  0.00  0.00    +0.000 C 
ATOM     23  C   UNL     1      -7.038  14.080  24.173  0.00  0.00    +0.000 C 
ATOM     24  C   UNL     1      -7.916  13.859  22.951  0.00  0.00    +0.000 C 
ATOM     25  C   UNL     1      -7.457  12.407  22.946  0.00  0.00    +0.000 C 
BRANCH  22  26
ATOM     26  N   UNL     1      -5.906  11.947  24.877  0.00  0.00    +0.000 NA
ATOM     27  H   UNL     1      -6.791  11.541  25.261  0.00  0.00    +0.000 HD
ATOM     28  H   UNL     1      -5.434  12.500  25.622  0.00  0.00    +0.000 HD
ENDBRANCH  22  26
ENDBRANCH  16  22
ENDBRANCH   1  19
BRANCH  14  29
ATOM     29  C   UNL     1      -0.403  11.504  21.128  0.00  0.00    +0.000 A 
ATOM     30  C   UNL     1      -0.180  10.366  20.325  0.00  0.00    +0.000 A 
ATOM     31  C   UNL     1      -0.168   9.084  20.891  0.00  0.00    +0.000 A 
ATOM     32  C   UNL     1      -0.386   8.914  22.259  0.00  0.00    +0.000 A 
ATOM     33  C   UNL     1      -0.653  10.020  23.061  0.00  0.00    +0.000 A 
ATOM     34  C   UNL     1      -0.681  11.297  22.501  0.00  0.00    +0.000 A 
ENDBRANCH  14  29
TORSDOF 4
ENDMDL
