MODEL 1
REMARK VINA RESULT:      -7.9      0.000      0.000
REMARK  Name = 
REMARK  4 active torsions:
REMARK  status: ('A' for Active; 'I' for Inactive)
REMARK    1  A    between atoms: C_2  and  O_3
REMARK    2  A    between atoms: C_2  and  C_15
REMARK    3  A    between atoms: O_3  and  C_4
REMARK    4  A    between atoms: C_6  and  C_7
REMARK                            x       y       z     vdW  Elec       q    Type
REMARK                         _______ _______ _______ _____ _____    ______ ____
ROOT
ATOM      1  C   UNL     1       6.186   5.802  16.566  0.00  0.00    +0.000 A 
ATOM      2  C   UNL     1       5.455   5.161  15.596  0.00  0.00    +0.000 A 
ATOM      3  C   UNL     1       6.389   4.845  14.573  0.00  0.00    +0.000 A 
ATOM      4  N   UNL     1       7.600   5.333  14.889  0.00  0.00    +0.000 NA
ATOM      5  O   UNL     1       7.465   5.938  16.123  0.00  0.00    +0.000 OA
ENDROOT
BRANCH   3   6
ATOM      6  C   UNL     1       6.158   4.062  13.360  0.00  0.00    +0.000 A 
ATOM      7  C   UNL     1       4.857   3.748  12.938  0.00  0.00    +0.000 A 
ATOM      8  C   UNL     1       4.650   2.953  11.807  0.00  0.00    +0.000 A 
ATOM      9  C   UNL     1       5.738   2.460  11.089  0.00  0.00    +0.000 A 
ATOM     10  C   UNL     1       7.034   2.771  11.493  0.00  0.00    +0.000 A 
ATOM     11  C   UNL     1       7.243   3.571  12.619  0.00  0.00    +0.000 A 
ENDBRANCH   3   6
BRANCH   1  12
ATOM     12  O   UNL     1       5.995   6.289  17.780  0.00  0.00    +0.000 OA
BRANCH  12  14
ATOM     13  O   UNL     1       7.220   5.220  19.419  0.00  0.00    +0.000 OA
ATOM     14  C   UNL     1       6.180   5.465  18.827  0.00  0.00    +0.000 C 
BRANCH  14  15
ATOM     15  C   UNL     1       4.890   4.827  19.224  0.00  0.00    +0.000 A 
ATOM     16  C   UNL     1       3.808   5.669  19.523  0.00  0.00    +0.000 A 
ATOM     17  C   UNL     1       2.583   5.135  19.933  0.00  0.00    +0.000 A 
ATOM     18  C   UNL     1       2.435   3.754  20.043  0.00  0.00    +0.000 A 
ATOM     19 CL   UNL     1       0.939   3.096  20.579  0.00  0.00    +0.000 Cl
ATOM     20  C   UNL     1       3.494   2.904  19.727  0.00  0.00    +0.000 A 
ATOM     21  C   UNL     1       4.722   3.436  19.317  0.00  0.00    +0.000 A 
ENDBRANCH  14  15
ENDBRANCH  12  14
ENDBRANCH   1  12
TORSDOF 4
ENDMDL
MODEL 2
REMARK VINA RESULT:      -7.8      0.110      1.057
REMARK  Name = 
REMARK  4 active torsions:
REMARK  status: ('A' for Active; 'I' for Inactive)
REMARK    1  A    between atoms: C_2  and  O_3
REMARK    2  A    between atoms: C_2  and  C_15
REMARK    3  A    between atoms: O_3  and  C_4
REMARK    4  A    between atoms: C_6  and  C_7
REMARK                            x       y       z     vdW  Elec       q    Type
REMARK                         _______ _______ _______ _____ _____    ______ ____
ROOT
ATOM      1  C   UNL     1       6.209   5.810  16.564  0.00  0.00    +0.000 A 
ATOM      2  C   UNL     1       5.455   5.125  15.643  0.00  0.00    +0.000 A 
ATOM      3  C   UNL     1       6.350   4.817  14.583  0.00  0.00    +0.000 A 
ATOM      4  N   UNL     1       7.557   5.351  14.831  0.00  0.00    +0.000 NA
ATOM      5  O   UNL     1       7.460   5.978  16.058  0.00  0.00    +0.000 OA
ENDROOT
BRANCH   3   6
ATOM      6  C   UNL     1       6.088   4.002  13.398  0.00  0.00    +0.000 A 
ATOM      7  C   UNL     1       7.140   3.429  12.667  0.00  0.00    +0.000 A 
ATOM      8  C   UNL     1       6.880   2.697  11.505  0.00  0.00    +0.000 A 
ATOM      9  C   UNL     1       5.569   2.532  11.059  0.00  0.00    +0.000 A 
ATOM     10  C   UNL     1       4.516   3.089  11.780  0.00  0.00    +0.000 A 
ATOM     11  C   UNL     1       4.773   3.815  12.946  0.00  0.00    +0.000 A 
ENDBRANCH   3   6
BRANCH   1  12
ATOM     12  O   UNL     1       6.060   6.317  17.776  0.00  0.00    +0.000 OA
BRANCH  12  14
ATOM     13  O   UNL     1       7.242   5.230  19.435  0.00  0.00    +0.000 OA
ATOM     14  C   UNL     1       6.215   5.493  18.828  0.00  0.00    +0.000 C 
BRANCH  14  15
ATOM     15  C   UNL     1       4.908   4.882  19.210  0.00  0.00    +0.000 A 
ATOM     16  C   UNL     1       3.838   5.745  19.490  0.00  0.00    +0.000 A 
ATOM     17  C   UNL     1       2.598   5.237  19.886  0.00  0.00    +0.000 A 
ATOM     18  C   UNL     1       2.422   3.859  20.000  0.00  0.00    +0.000 A 
ATOM     19 CL   UNL     1       0.907   3.233  20.519  0.00  0.00    +0.000 Cl
ATOM     20  C   UNL     1       3.469   2.988  19.704  0.00  0.00    +0.000 A 
ATOM     21  C   UNL     1       4.713   3.495  19.308  0.00  0.00    +0.000 A 
ENDBRANCH  14  15
ENDBRANCH  12  14
ENDBRANCH   1  12
TORSDOF 4
ENDMDL
MODEL 3
REMARK VINA RESULT:      -7.8      0.173      1.070
REMARK  Name = 
REMARK  4 active torsions:
REMARK  status: ('A' for Active; 'I' for Inactive)
REMARK    1  A    between atoms: C_2  and  O_3
REMARK    2  A    between atoms: C_2  and  C_15
REMARK    3  A    between atoms: O_3  and  C_4
REMARK    4  A    between atoms: C_6  and  C_7
REMARK                            x       y       z     vdW  Elec       q    Type
REMARK                         _______ _______ _______ _____ _____    ______ ____
ROOT
ATOM      1  C   UNL     1       6.281   5.752  16.447  0.00  0.00    +0.000 A 
ATOM      2  C   UNL     1       5.541   5.036  15.538  0.00  0.00    +0.000 A 
ATOM      3  C   UNL     1       6.418   4.801  14.446  0.00  0.00    +0.000 A 
ATOM      4  N   UNL     1       7.597   5.405  14.664  0.00  0.00    +0.000 NA
ATOM      5  O   UNL     1       7.503   6.005  15.905  0.00  0.00    +0.000 OA
ENDROOT
BRANCH   3   6
ATOM      6  C   UNL     1       6.168   3.989  13.255  0.00  0.00    +0.000 A 
ATOM      7  C   UNL     1       4.861   3.760  12.798  0.00  0.00    +0.000 A 
ATOM      8  C   UNL     1       4.631   2.937  11.691  0.00  0.00    +0.000 A 
ATOM      9  C   UNL     1       5.701   2.332  11.033  0.00  0.00    +0.000 A 
ATOM     10  C   UNL     1       7.003   2.559  11.473  0.00  0.00    +0.000 A 
ATOM     11  C   UNL     1       7.236   3.386  12.575  0.00  0.00    +0.000 A 
ENDBRANCH   3   6
BRANCH   1  12
ATOM     12  O   UNL     1       6.141   6.230  17.671  0.00  0.00    +0.000 OA
BRANCH  12  14
ATOM     13  O   UNL     1       7.321   4.999  19.228  0.00  0.00    +0.000 OA
ATOM     14  C   UNL     1       6.285   5.377  18.702  0.00  0.00    +0.000 C 
BRANCH  14  15
ATOM     15  C   UNL     1       4.953   4.899  19.175  0.00  0.00    +0.000 A 
ATOM     16  C   UNL     1       4.756   3.514  19.288  0.00  0.00    +0.000 A 
ATOM     17  C   UNL     1       3.521   3.001  19.694  0.00  0.00    +0.000 A 
ATOM     18  C   UNL     1       2.476   3.874  19.992  0.00  0.00    +0.000 A 
ATOM     19 CL   UNL     1       0.946   3.244  20.459  0.00  0.00    +0.000 Cl
ATOM     20  C   UNL     1       2.663   5.253  19.905  0.00  0.00    +0.000 A 
ATOM     21  C   UNL     1       3.899   5.769  19.498  0.00  0.00    +0.000 A 
ENDBRANCH  14  15
ENDBRANCH  12  14
ENDBRANCH   1  12
TORSDOF 4
ENDMDL
MODEL 4
REMARK VINA RESULT:      -7.6      0.345      1.526
REMARK  Name = 
REMARK  4 active torsions:
REMARK  status: ('A' for Active; 'I' for Inactive)
REMARK    1  A    between atoms: C_2  and  O_3
REMARK    2  A    between atoms: C_2  and  C_15
REMARK    3  A    between atoms: O_3  and  C_4
REMARK    4  A    between atoms: C_6  and  C_7
REMARK                            x       y       z     vdW  Elec       q    Type
REMARK                         _______ _______ _______ _____ _____    ______ ____
ROOT
ATOM      1  C   UNL     1       6.381   5.689  16.340  0.00  0.00    +0.000 A 
ATOM      2  C   UNL     1       5.624   4.897  15.511  0.00  0.00    +0.000 A 
ATOM      3  C   UNL     1       6.409   4.726  14.339  0.00  0.00    +0.000 A 
ATOM      4  N   UNL     1       7.545   5.435  14.439  0.00  0.00    +0.000 NA
ATOM      5  O   UNL     1       7.517   6.041  15.680  0.00  0.00    +0.000 OA
ENDROOT
BRANCH   3   6
ATOM      6  C   UNL     1       6.119   3.879  13.183  0.00  0.00    +0.000 A 
ATOM      7  C   UNL     1       7.152   3.262  12.462  0.00  0.00    +0.000 A 
ATOM      8  C   UNL     1       6.866   2.498  11.325  0.00  0.00    +0.000 A 
ATOM      9  C   UNL     1       5.549   2.348  10.896  0.00  0.00    +0.000 A 
ATOM     10  C   UNL     1       4.514   2.950  11.608  0.00  0.00    +0.000 A 
ATOM     11  C   UNL     1       4.796   3.707  12.748  0.00  0.00    +0.000 A 
ENDBRANCH   3   6
BRANCH   1  12
ATOM     12  O   UNL     1       6.317   6.168  17.570  0.00  0.00    +0.000 OA
BRANCH  12  14
ATOM     13  O   UNL     1       7.461   4.857  19.087  0.00  0.00    +0.000 OA
ATOM     14  C   UNL     1       6.437   5.302  18.592  0.00  0.00    +0.000 C 
BRANCH  14  15
ATOM     15  C   UNL     1       5.091   4.905  19.101  0.00  0.00    +0.000 A 
ATOM     16  C   UNL     1       4.861   3.544  19.355  0.00  0.00    +0.000 A 
ATOM     17  C   UNL     1       3.612   3.103  19.801  0.00  0.00    +0.000 A 
ATOM     18  C   UNL     1       2.586   4.025  19.999  0.00  0.00    +0.000 A 
ATOM     19 CL   UNL     1       1.039   3.481  20.516  0.00  0.00    +0.000 Cl
ATOM     20  C   UNL     1       2.806   5.383  19.773  0.00  0.00    +0.000 A 
ATOM     21  C   UNL     1       4.056   5.827  19.325  0.00  0.00    +0.000 A 
ENDBRANCH  14  15
ENDBRANCH  12  14
ENDBRANCH   1  12
TORSDOF 4
ENDMDL
MODEL 5
REMARK VINA RESULT:      -7.6      1.406      2.052
REMARK  Name = 
REMARK  4 active torsions:
REMARK  status: ('A' for Active; 'I' for Inactive)
REMARK    1  A    between atoms: C_2  and  O_3
REMARK    2  A    between atoms: C_2  and  C_15
REMARK    3  A    between atoms: O_3  and  C_4
REMARK    4  A    between atoms: C_6  and  C_7
REMARK                            x       y       z     vdW  Elec       q    Type
REMARK                         _______ _______ _______ _____ _____    ______ ____
ROOT
ATOM      1  C   UNL     1       7.117   5.154  15.598  0.00  0.00    +0.000 A 
ATOM      2  C   UNL     1       6.194   4.321  15.015  0.00  0.00    +0.000 A 
ATOM      3  C   UNL     1       6.531   4.298  13.635  0.00  0.00    +0.000 A 
ATOM      4  N   UNL     1       7.560   5.129  13.399  0.00  0.00    +0.000 NA
ATOM      5  O   UNL     1       7.912   5.667  14.621  0.00  0.00    +0.000 OA
ENDROOT
BRANCH   3   6
ATOM      6  C   UNL     1       5.934   3.480  12.581  0.00  0.00    +0.000 A 
ATOM      7  C   UNL     1       4.638   3.739  12.110  0.00  0.00    +0.000 A 
ATOM      8  C   UNL     1       4.057   2.916  11.140  0.00  0.00    +0.000 A 
ATOM      9  C   UNL     1       4.762   1.825  10.634  0.00  0.00    +0.000 A 
ATOM     10  C   UNL     1       6.052   1.562  11.087  0.00  0.00    +0.000 A 
ATOM     11  C   UNL     1       6.637   2.387  12.051  0.00  0.00    +0.000 A 
ENDBRANCH   3   6
BRANCH   1  12
ATOM     12  O   UNL     1       7.445   5.563  16.811  0.00  0.00    +0.000 OA
BRANCH  12  14
ATOM     13  O   UNL     1       7.238   7.821  17.246  0.00  0.00    +0.000 OA
ATOM     14  C   UNL     1       6.842   6.666  17.290  0.00  0.00    +0.000 C 
BRANCH  14  15
ATOM     15  C   UNL     1       5.541   6.314  17.931  0.00  0.00    +0.000 A 
ATOM     16  C   UNL     1       5.559   5.388  18.985  0.00  0.00    +0.000 A 
ATOM     17  C   UNL     1       4.371   4.992  19.605  0.00  0.00    +0.000 A 
ATOM     18  C   UNL     1       3.157   5.524  19.176  0.00  0.00    +0.000 A 
ATOM     19 CL   UNL     1       1.692   5.014  19.916  0.00  0.00    +0.000 Cl
ATOM     20  C   UNL     1       3.126   6.463  18.145  0.00  0.00    +0.000 A 
ATOM     21  C   UNL     1       4.314   6.861  17.521  0.00  0.00    +0.000 A 
ENDBRANCH  14  15
ENDBRANCH  12  14
ENDBRANCH   1  12
TORSDOF 4
ENDMDL
MODEL 6
REMARK VINA RESULT:      -7.5      1.451      2.311
REMARK  Name = 
REMARK  4 active torsions:
REMARK  status: ('A' for Active; 'I' for Inactive)
REMARK    1  A    between atoms: C_2  and  O_3
REMARK    2  A    between atoms: C_2  and  C_15
REMARK    3  A    between atoms: O_3  and  C_4
REMARK    4  A    between atoms: C_6  and  C_7
REMARK                            x       y       z     vdW  Elec       q    Type
REMARK                         _______ _______ _______ _____ _____    ______ ____
ROOT
ATOM      1  C   UNL     1       7.165   5.079  15.580  0.00  0.00    +0.000 A 
ATOM      2  C   UNL     1       6.244   4.215  15.040  0.00  0.00    +0.000 A 
ATOM      3  C   UNL     1       6.496   4.228  13.642  0.00  0.00    +0.000 A 
ATOM      4  N   UNL     1       7.471   5.106  13.358  0.00  0.00    +0.000 NA
ATOM      5  O   UNL     1       7.876   5.641  14.566  0.00  0.00    +0.000 OA
ENDROOT
BRANCH   3   6
ATOM      6  C   UNL     1       5.870   3.399  12.612  0.00  0.00    +0.000 A 
ATOM      7  C   UNL     1       6.545   2.301  12.058  0.00  0.00    +0.000 A 
ATOM      8  C   UNL     1       5.958   1.550  11.035  0.00  0.00    +0.000 A 
ATOM      9  C   UNL     1       4.695   1.890  10.553  0.00  0.00    +0.000 A 
ATOM     10  C   UNL     1       4.011   2.973  11.101  0.00  0.00    +0.000 A 
ATOM     11  C   UNL     1       4.593   3.721  12.128  0.00  0.00    +0.000 A 
ENDBRANCH   3   6
BRANCH   1  12
ATOM     12  O   UNL     1       7.549   5.484  16.778  0.00  0.00    +0.000 OA
BRANCH  12  14
ATOM     13  O   UNL     1       7.429   7.740  17.256  0.00  0.00    +0.000 OA
ATOM     14  C   UNL     1       6.989   6.601  17.277  0.00  0.00    +0.000 C 
BRANCH  14  15
ATOM     15  C   UNL     1       5.674   6.287  17.910  0.00  0.00    +0.000 A 
ATOM     16  C   UNL     1       5.661   5.377  18.978  0.00  0.00    +0.000 A 
ATOM     17  C   UNL     1       4.458   5.016  19.591  0.00  0.00    +0.000 A 
ATOM     18  C   UNL     1       3.261   5.569  19.142  0.00  0.00    +0.000 A 
ATOM     19 CL   UNL     1       1.777   5.102  19.874  0.00  0.00    +0.000 Cl
ATOM     20  C   UNL     1       3.261   6.492  18.096  0.00  0.00    +0.000 A 
ATOM     21  C   UNL     1       4.464   6.855  17.479  0.00  0.00    +0.000 A 
ENDBRANCH  14  15
ENDBRANCH  12  14
ENDBRANCH   1  12
TORSDOF 4
ENDMDL
MODEL 7
REMARK VINA RESULT:      -7.5      1.406      1.876
REMARK  Name = 
REMARK  4 active torsions:
REMARK  status: ('A' for Active; 'I' for Inactive)
REMARK    1  A    between atoms: C_2  and  O_3
REMARK    2  A    between atoms: C_2  and  C_15
REMARK    3  A    between atoms: O_3  and  C_4
REMARK    4  A    between atoms: C_6  and  C_7
REMARK                            x       y       z     vdW  Elec       q    Type
REMARK                         _______ _______ _______ _____ _____    ______ ____
ROOT
ATOM      1  C   UNL     1       7.131   5.243  15.508  0.00  0.00    +0.000 A 
ATOM      2  C   UNL     1       6.161   4.449  14.948  0.00  0.00    +0.000 A 
ATOM      3  C   UNL     1       6.516   4.336  13.577  0.00  0.00    +0.000 A 
ATOM      4  N   UNL     1       7.604   5.081  13.321  0.00  0.00    +0.000 NA
ATOM      5  O   UNL     1       7.975   5.652  14.523  0.00  0.00    +0.000 OA
ENDROOT
BRANCH   3   6
ATOM      6  C   UNL     1       5.879   3.511  12.551  0.00  0.00    +0.000 A 
ATOM      7  C   UNL     1       4.575   3.784  12.111  0.00  0.00    +0.000 A 
ATOM      8  C   UNL     1       3.956   2.955  11.170  0.00  0.00    +0.000 A 
ATOM      9  C   UNL     1       4.630   1.846  10.663  0.00  0.00    +0.000 A 
ATOM     10  C   UNL     1       5.928   1.569  11.086  0.00  0.00    +0.000 A 
ATOM     11  C   UNL     1       6.551   2.400  12.021  0.00  0.00    +0.000 A 
ENDBRANCH   3   6
BRANCH   1  12
ATOM     12  O   UNL     1       7.468   5.687  16.706  0.00  0.00    +0.000 OA
BRANCH  12  14
ATOM     13  O   UNL     1       7.069   7.916  17.157  0.00  0.00    +0.000 OA
ATOM     14  C   UNL     1       6.783   6.729  17.209  0.00  0.00    +0.000 C 
BRANCH  14  15
ATOM     15  C   UNL     1       5.543   6.258  17.894  0.00  0.00    +0.000 A 
ATOM     16  C   UNL     1       4.326   6.853  17.529  0.00  0.00    +0.000 A 
ATOM     17  C   UNL     1       3.134   6.479  18.156  0.00  0.00    +0.000 A 
ATOM     18  C   UNL     1       3.154   5.505  19.151  0.00  0.00    +0.000 A 
ATOM     19 CL   UNL     1       1.694   5.068  19.947  0.00  0.00    +0.000 Cl
ATOM     20  C   UNL     1       4.353   4.889  19.510  0.00  0.00    +0.000 A 
ATOM     21  C   UNL     1       5.548   5.261  18.883  0.00  0.00    +0.000 A 
ENDBRANCH  14  15
ENDBRANCH  12  14
ENDBRANCH   1  12
TORSDOF 4
ENDMDL
MODEL 8
REMARK VINA RESULT:      -7.4      4.392      6.875
REMARK  Name = 
REMARK  4 active torsions:
REMARK  status: ('A' for Active; 'I' for Inactive)
REMARK    1  A    between atoms: C_2  and  O_3
REMARK    2  A    between atoms: C_2  and  C_15
REMARK    3  A    between atoms: O_3  and  C_4
REMARK    4  A    between atoms: C_6  and  C_7
REMARK                            x       y       z     vdW  Elec       q    Type
REMARK                         _______ _______ _______ _____ _____    ______ ____
ROOT
ATOM      1  C   UNL     1       7.788   7.240  18.021  0.00  0.00    +0.000 A 
ATOM      2  C   UNL     1       8.655   7.992  18.775  0.00  0.00    +0.000 A 
ATOM      3  C   UNL     1       8.518   9.320  18.290  0.00  0.00    +0.000 A 
ATOM      4  N   UNL     1       7.663   9.345  17.255  0.00  0.00    +0.000 NA
ATOM      5  O   UNL     1       7.221   8.047  17.084  0.00  0.00    +0.000 OA
ENDROOT
BRANCH   3   6
ATOM      6  C   UNL     1       9.135  10.535  18.820  0.00  0.00    +0.000 A 
ATOM      7  C   UNL     1       9.394  11.636  17.989  0.00  0.00    +0.000 A 
ATOM      8  C   UNL     1      10.035  12.772  18.494  0.00  0.00    +0.000 A 
ATOM      9  C   UNL     1      10.426  12.818  19.831  0.00  0.00    +0.000 A 
ATOM     10  C   UNL     1      10.166  11.735  20.668  0.00  0.00    +0.000 A 
ATOM     11  C   UNL     1       9.520  10.602  20.167  0.00  0.00    +0.000 A 
ENDBRANCH   3   6
BRANCH   1  12
ATOM     12  O   UNL     1       7.354   5.993  17.972  0.00  0.00    +0.000 OA
BRANCH  12  14
ATOM     13  O   UNL     1       7.314   5.310  20.177  0.00  0.00    +0.000 OA
ATOM     14  C   UNL     1       6.799   5.474  19.081  0.00  0.00    +0.000 C 
BRANCH  14  15
ATOM     15  C   UNL     1       5.381   5.083  18.823  0.00  0.00    +0.000 A 
ATOM     16  C   UNL     1       4.971   3.803  19.224  0.00  0.00    +0.000 A 
ATOM     17  C   UNL     1       3.666   3.365  18.980  0.00  0.00    +0.000 A 
ATOM     18  C   UNL     1       2.764   4.209  18.337  0.00  0.00    +0.000 A 
ATOM     19 CL   UNL     1       1.168   3.660  18.007  0.00  0.00    +0.000 Cl
ATOM     20  C   UNL     1       3.151   5.493  17.953  0.00  0.00    +0.000 A 
ATOM     21  C   UNL     1       4.457   5.934  18.195  0.00  0.00    +0.000 A 
ENDBRANCH  14  15
ENDBRANCH  12  14
ENDBRANCH   1  12
TORSDOF 4
ENDMDL
MODEL 9
REMARK VINA RESULT:      -7.3      4.091      6.489
REMARK  Name = 
REMARK  4 active torsions:
REMARK  status: ('A' for Active; 'I' for Inactive)
REMARK    1  A    between atoms: C_2  and  O_3
REMARK    2  A    between atoms: C_2  and  C_15
REMARK    3  A    between atoms: O_3  and  C_4
REMARK    4  A    between atoms: C_6  and  C_7
REMARK                            x       y       z     vdW  Elec       q    Type
REMARK                         _______ _______ _______ _____ _____    ______ ____
ROOT
ATOM      1  C   UNL     1       7.236   6.929  17.394  0.00  0.00    +0.000 A 
ATOM      2  C   UNL     1       7.340   8.294  17.286  0.00  0.00    +0.000 A 
ATOM      3  C   UNL     1       8.251   8.681  18.305  0.00  0.00    +0.000 A 
ATOM      4  N   UNL     1       8.617   7.608  19.026  0.00  0.00    +0.000 NA
ATOM      5  O   UNL     1       7.974   6.524  18.462  0.00  0.00    +0.000 OA
ENDROOT
BRANCH   3   6
ATOM      6  C   UNL     1       8.798  10.013  18.559  0.00  0.00    +0.000 A 
ATOM      7  C   UNL     1       8.574  11.070  17.663  0.00  0.00    +0.000 A 
ATOM      8  C   UNL     1       9.148  12.325  17.889  0.00  0.00    +0.000 A 
ATOM      9  C   UNL     1       9.954  12.536  19.007  0.00  0.00    +0.000 A 
ATOM     10  C   UNL     1      10.177  11.497  19.907  0.00  0.00    +0.000 A 
ATOM     11  C   UNL     1       9.599  10.244  19.687  0.00  0.00    +0.000 A 
ENDBRANCH   3   6
BRANCH   1  12
ATOM     12  O   UNL     1       6.650   5.933  16.752  0.00  0.00    +0.000 OA
BRANCH  12  14
ATOM     13  O   UNL     1       5.205   6.764  15.154  0.00  0.00    +0.000 OA
ATOM     14  C   UNL     1       5.450   6.164  16.190  0.00  0.00    +0.000 C 
BRANCH  14  15
ATOM     15  C   UNL     1       4.361   5.573  17.021  0.00  0.00    +0.000 A 
ATOM     16  C   UNL     1       3.597   6.442  17.815  0.00  0.00    +0.000 A 
ATOM     17  C   UNL     1       2.584   5.947  18.641  0.00  0.00    +0.000 A 
ATOM     18  C   UNL     1       2.329   4.577  18.675  0.00  0.00    +0.000 A 
ATOM     19 CL   UNL     1       1.106   3.963  19.715  0.00  0.00    +0.000 Cl
ATOM     20  C   UNL     1       3.065   3.704  17.874  0.00  0.00    +0.000 A 
ATOM     21  C   UNL     1       4.080   4.197  17.046  0.00  0.00    +0.000 A 
ENDBRANCH  14  15
ENDBRANCH  12  14
ENDBRANCH   1  12
TORSDOF 4
ENDMDL
