MODEL 1
REMARK VINA RESULT:      -7.4      0.000      0.000
REMARK  Name = 
REMARK  15 active torsions:
REMARK  status: ('A' for Active; 'I' for Inactive)
REMARK    1  A    between atoms: C_1  and  C_2
REMARK    2  A    between atoms: N_4  and  C_5
REMARK    3  A    between atoms: C_6  and  S_7
REMARK    4  A    between atoms: S_7  and  S_8
REMARK    5  A    between atoms: S_8  and  C_9
REMARK    6  A    between atoms: C_11  and  C_12
REMARK    7  A    between atoms: C_12  and  O_13
REMARK    8  A    between atoms: C_14  and  O_15
REMARK    9  A    between atoms: C_16  and  O_17
REMARK   10  A    between atoms: C_18  and  N_19
REMARK   11  A    between atoms: C_20  and  C_21
REMARK   12  A    between atoms: C_24  and  C_25
REMARK   13  A    between atoms: C_25  and  O_26
REMARK   14  A    between atoms: C_27  and  O_28
REMARK   15  A    between atoms: C_29  and  O_30
REMARK                            x       y       z     vdW  Elec       q    Type
REMARK                         _______ _______ _______ _____ _____    ______ ____
ROOT
ATOM      1  S   UNL     1       2.496   7.266  19.029  0.00  0.00    +0.000 S 
ENDROOT
BRANCH   1   3
ATOM      2  C   UNL     1       4.222   5.336  17.881  0.00  0.00    +0.000 C 
ATOM      3  C   UNL     1       2.790   5.943  17.775  0.00  0.00    +0.000 C 
ATOM      4  O   UNL     1       1.765   4.939  17.753  0.00  0.00    +0.000 OA
ATOM      5  C   UNL     1       1.807   3.899  18.731  0.00  0.00    +0.000 C 
ATOM      6  C   UNL     1       3.190   3.229  18.796  0.00  0.00    +0.000 C 
ATOM      7  C   UNL     1       4.292   4.275  18.994  0.00  0.00    +0.000 C 
BRANCH   2  11
ATOM      8  C   UNL     1       7.149   7.722  17.437  0.00  0.00    +0.000 C 
ATOM      9  C   UNL     1       6.187   6.628  17.067  0.00  0.00    +0.000 C 
ATOM     10  O   UNL     1       6.156   6.109  15.959  0.00  0.00    +0.000 OA
ATOM     11  N   UNL     1       5.299   6.319  18.068  0.00  0.00    +0.000 N 
ATOM     12  H   UNL     1       5.546   6.552  19.027  0.00  0.00    +0.000 HD
ENDBRANCH   2  11
BRANCH   6  13
ATOM     13  O   UNL     1       3.274   2.205  19.792  0.00  0.00    +0.000 OA
ATOM     14  H   UNL     1       4.222   2.035  19.972  0.00  0.00    +0.000 HD
ENDBRANCH   6  13
BRANCH   7  15
ATOM     15  O   UNL     1       5.603   3.679  18.974  0.00  0.00    +0.000 OA
ATOM     16  H   UNL     1       6.103   4.016  19.739  0.00  0.00    +0.000 HD
ENDBRANCH   7  15
BRANCH   5  17
ATOM     17  C   UNL     1       1.242   4.349  20.091  0.00  0.00    +0.000 C 
BRANCH  17  18
ATOM     18  O   UNL     1       0.701   3.257  20.828  0.00  0.00    +0.000 OA
ATOM     19  H   UNL     1       0.151   2.735  20.213  0.00  0.00    +0.000 HD
ENDBRANCH  17  18
ENDBRANCH   5  17
ENDBRANCH   1   3
BRANCH   1  20
ATOM     20  S   UNL     1       2.184   8.974  17.919  0.00  0.00    +0.000 S 
BRANCH  20  21
ATOM     21  C   UNL     1       0.625   9.626  18.643  0.00  0.00    +0.000 C 
ATOM     22  O   UNL     1      -0.353   9.863  17.604  0.00  0.00    +0.000 OA
ATOM     23  C   UNL     1      -1.669  10.111  18.151  0.00  0.00    +0.000 C 
ATOM     24  C   UNL     1      -1.663  11.374  19.029  0.00  0.00    +0.000 C 
ATOM     25  C   UNL     1      -0.528  11.305  20.063  0.00  0.00    +0.000 C 
ATOM     26  C   UNL     1       0.837  10.946  19.432  0.00  0.00    +0.000 C 
BRANCH  26  27
ATOM     27  N   UNL     1       1.342  12.011  18.543  0.00  0.00    +0.000 N 
ATOM     28  C   UNL     1       2.060  13.130  18.820  0.00  0.00    +0.000 C 
ATOM     29  C   UNL     1       2.649  13.339  20.186  0.00  0.00    +0.000 C 
ATOM     30  O   UNL     1       2.248  13.938  17.910  0.00  0.00    +0.000 OA
ATOM     31  H   UNL     1       1.113  11.941  17.559  0.00  0.00    +0.000 HD
ENDBRANCH  26  27
BRANCH  24  32
ATOM     32  O   UNL     1      -1.523  12.572  18.252  0.00  0.00    +0.000 OA
ATOM     33  H   UNL     1      -1.548  12.339  17.307  0.00  0.00    +0.000 HD
ENDBRANCH  24  32
BRANCH  25  34
ATOM     34  O   UNL     1      -0.457  12.522  20.806  0.00  0.00    +0.000 OA
ATOM     35  H   UNL     1       0.160  12.344  21.546  0.00  0.00    +0.000 HD
ENDBRANCH  25  34
BRANCH  23  36
ATOM     36  C   UNL     1      -2.665  10.248  16.991  0.00  0.00    +0.000 C 
BRANCH  36  37
ATOM     37  O   UNL     1      -2.173  11.182  16.033  0.00  0.00    +0.000 OA
ATOM     38  H   UNL     1      -2.653  11.001  15.203  0.00  0.00    +0.000 HD
ENDBRANCH  36  37
ENDBRANCH  23  36
ENDBRANCH  20  21
ENDBRANCH   1  20
TORSDOF 13
ENDMDL
MODEL 2
REMARK VINA RESULT:      -7.3      1.557      3.118
REMARK  Name = 
REMARK  15 active torsions:
REMARK  status: ('A' for Active; 'I' for Inactive)
REMARK    1  A    between atoms: C_1  and  C_2
REMARK    2  A    between atoms: N_4  and  C_5
REMARK    3  A    between atoms: C_6  and  S_7
REMARK    4  A    between atoms: S_7  and  S_8
REMARK    5  A    between atoms: S_8  and  C_9
REMARK    6  A    between atoms: C_11  and  C_12
REMARK    7  A    between atoms: C_12  and  O_13
REMARK    8  A    between atoms: C_14  and  O_15
REMARK    9  A    between atoms: C_16  and  O_17
REMARK   10  A    between atoms: C_18  and  N_19
REMARK   11  A    between atoms: C_20  and  C_21
REMARK   12  A    between atoms: C_24  and  C_25
REMARK   13  A    between atoms: C_25  and  O_26
REMARK   14  A    between atoms: C_27  and  O_28
REMARK   15  A    between atoms: C_29  and  O_30
REMARK                            x       y       z     vdW  Elec       q    Type
REMARK                         _______ _______ _______ _____ _____    ______ ____
ROOT
ATOM      1  S   UNL     1       2.555   7.146  18.930  0.00  0.00    +0.000 S 
ENDROOT
BRANCH   1   3
ATOM      2  C   UNL     1       4.290   5.180  17.859  0.00  0.00    +0.000 C 
ATOM      3  C   UNL     1       2.857   5.779  17.725  0.00  0.00    +0.000 C 
ATOM      4  O   UNL     1       1.834   4.773  17.735  0.00  0.00    +0.000 OA
ATOM      5  C   UNL     1       1.874   3.769  18.749  0.00  0.00    +0.000 C 
ATOM      6  C   UNL     1       3.258   3.105  18.845  0.00  0.00    +0.000 C 
ATOM      7  C   UNL     1       4.357   4.159  19.010  0.00  0.00    +0.000 C 
BRANCH   2  11
ATOM      8  C   UNL     1       7.463   7.251  17.550  0.00  0.00    +0.000 C 
ATOM      9  C   UNL     1       6.540   6.091  17.310  0.00  0.00    +0.000 C 
ATOM     10  O   UNL     1       6.784   5.193  16.514  0.00  0.00    +0.000 OA
ATOM     11  N   UNL     1       5.365   6.171  18.016  0.00  0.00    +0.000 N 
ATOM     12  H   UNL     1       5.338   6.748  18.852  0.00  0.00    +0.000 HD
ENDBRANCH   2  11
BRANCH   6  13
ATOM     13  O   UNL     1       3.340   2.117  19.877  0.00  0.00    +0.000 OA
ATOM     14  H   UNL     1       4.285   1.991  20.101  0.00  0.00    +0.000 HD
ENDBRANCH   6  13
BRANCH   7  15
ATOM     15  O   UNL     1       5.670   3.565  19.017  0.00  0.00    +0.000 OA
ATOM     16  H   UNL     1       6.037   3.627  18.116  0.00  0.00    +0.000 HD
ENDBRANCH   7  15
BRANCH   5  17
ATOM     17  C   UNL     1       1.302   4.266  20.090  0.00  0.00    +0.000 C 
BRANCH  17  18
ATOM     18  O   UNL     1       0.763   3.199  20.866  0.00  0.00    +0.000 OA
ATOM     19  H   UNL     1       0.499   3.572  21.728  0.00  0.00    +0.000 HD
ENDBRANCH  17  18
ENDBRANCH   5  17
ENDBRANCH   1   3
BRANCH   1  20
ATOM     20  S   UNL     1       1.696   8.647  17.808  0.00  0.00    +0.000 S 
BRANCH  20  21
ATOM     21  C   UNL     1       1.294   9.904  19.088  0.00  0.00    +0.000 C 
ATOM     22  O   UNL     1       0.987   9.260  20.347  0.00  0.00    +0.000 OA
ATOM     23  C   UNL     1       0.936  10.209  21.438  0.00  0.00    +0.000 C 
ATOM     24  C   UNL     1      -0.176  11.246  21.204  0.00  0.00    +0.000 C 
ATOM     25  C   UNL     1      -0.048  11.866  19.803  0.00  0.00    +0.000 C 
ATOM     26  C   UNL     1       0.096  10.804  18.688  0.00  0.00    +0.000 C 
BRANCH  26  27
ATOM     27  N   UNL     1      -1.130   9.999  18.519  0.00  0.00    +0.000 N 
ATOM     28  C   UNL     1      -2.199  10.173  17.699  0.00  0.00    +0.000 C 
ATOM     29  C   UNL     1      -2.166  11.214  16.617  0.00  0.00    +0.000 C 
ATOM     30  O   UNL     1      -3.166   9.425  17.841  0.00  0.00    +0.000 OA
ATOM     31  H   UNL     1      -1.237   9.187  19.115  0.00  0.00    +0.000 HD
ENDBRANCH  26  27
BRANCH  24  32
ATOM     32  O   UNL     1      -1.485  10.678  21.351  0.00  0.00    +0.000 OA
ATOM     33  H   UNL     1      -1.780  10.801  22.272  0.00  0.00    +0.000 HD
ENDBRANCH  24  32
BRANCH  25  34
ATOM     34  O   UNL     1      -1.141  12.748  19.548  0.00  0.00    +0.000 OA
ATOM     35  H   UNL     1      -1.209  12.808  18.573  0.00  0.00    +0.000 HD
ENDBRANCH  25  34
BRANCH  23  36
ATOM     36  C   UNL     1       0.710   9.441  22.747  0.00  0.00    +0.000 C 
BRANCH  36  37
ATOM     37  O   UNL     1      -0.091  10.215  23.636  0.00  0.00    +0.000 OA
ATOM     38  H   UNL     1      -0.842   9.648  23.892  0.00  0.00    +0.000 HD
ENDBRANCH  36  37
ENDBRANCH  23  36
ENDBRANCH  20  21
ENDBRANCH   1  20
TORSDOF 13
ENDMDL
MODEL 3
REMARK VINA RESULT:      -6.6      1.910      8.316
REMARK  Name = 
REMARK  15 active torsions:
REMARK  status: ('A' for Active; 'I' for Inactive)
REMARK    1  A    between atoms: C_1  and  C_2
REMARK    2  A    between atoms: N_4  and  C_5
REMARK    3  A    between atoms: C_6  and  S_7
REMARK    4  A    between atoms: S_7  and  S_8
REMARK    5  A    between atoms: S_8  and  C_9
REMARK    6  A    between atoms: C_11  and  C_12
REMARK    7  A    between atoms: C_12  and  O_13
REMARK    8  A    between atoms: C_14  and  O_15
REMARK    9  A    between atoms: C_16  and  O_17
REMARK   10  A    between atoms: C_18  and  N_19
REMARK   11  A    between atoms: C_20  and  C_21
REMARK   12  A    between atoms: C_24  and  C_25
REMARK   13  A    between atoms: C_25  and  O_26
REMARK   14  A    between atoms: C_27  and  O_28
REMARK   15  A    between atoms: C_29  and  O_30
REMARK                            x       y       z     vdW  Elec       q    Type
REMARK                         _______ _______ _______ _____ _____    ______ ____
ROOT
ATOM      1  S   UNL     1       1.051   8.136  18.233  0.00  0.00    +0.000 S 
ENDROOT
BRANCH   1   3
ATOM      2  C   UNL     1      -0.446  10.539  18.123  0.00  0.00    +0.000 C 
ATOM      3  C   UNL     1       1.006   9.982  18.241  0.00  0.00    +0.000 C 
ATOM      4  O   UNL     1       1.734  10.565  19.332  0.00  0.00    +0.000 OA
ATOM      5  C   UNL     1       1.107  10.632  20.613  0.00  0.00    +0.000 C 
ATOM      6  C   UNL     1      -0.297  11.255  20.532  0.00  0.00    +0.000 C 
ATOM      7  C   UNL     1      -1.154  10.531  19.489  0.00  0.00    +0.000 C 
BRANCH   2  11
ATOM      8  C   UNL     1      -2.925   9.679  15.372  0.00  0.00    +0.000 C 
ATOM      9  C   UNL     1      -2.240  10.535  16.399  0.00  0.00    +0.000 C 
ATOM     10  O   UNL     1      -2.463  11.732  16.530  0.00  0.00    +0.000 OA
ATOM     11  N   UNL     1      -1.289   9.863  17.126  0.00  0.00    +0.000 N 
ATOM     12  H   UNL     1      -1.350   8.850  17.187  0.00  0.00    +0.000 HD
ENDBRANCH   2  11
BRANCH   6  13
ATOM     13  O   UNL     1      -0.966  11.303  21.797  0.00  0.00    +0.000 OA
ATOM     14  H   UNL     1      -1.900  11.549  21.636  0.00  0.00    +0.000 HD
ENDBRANCH   6  13
BRANCH   7  15
ATOM     15  O   UNL     1      -2.446  11.150  19.337  0.00  0.00    +0.000 OA
ATOM     16  H   UNL     1      -3.053  10.496  18.946  0.00  0.00    +0.000 HD
ENDBRANCH   7  15
BRANCH   5  17
ATOM     17  C   UNL     1       1.179   9.293  21.371  0.00  0.00    +0.000 C 
BRANCH  17  18
ATOM     18  O   UNL     1       1.190   9.483  22.783  0.00  0.00    +0.000 OA
ATOM     19  H   UNL     1       0.852   8.663  23.189  0.00  0.00    +0.000 HD
ENDBRANCH  17  18
ENDBRANCH   5  17
ENDBRANCH   1   3
BRANCH   1  20
ATOM     20  S   UNL     1       3.055   7.664  18.325  0.00  0.00    +0.000 S 
BRANCH  20  21
ATOM     21  C   UNL     1       3.079   5.950  17.661  0.00  0.00    +0.000 C 
ATOM     22  O   UNL     1       2.439   5.042  18.588  0.00  0.00    +0.000 OA
ATOM     23  C   UNL     1       2.193   3.748  17.990  0.00  0.00    +0.000 C 
ATOM     24  C   UNL     1       3.516   3.079  17.580  0.00  0.00    +0.000 C 
ATOM     25  C   UNL     1       4.365   4.040  16.733  0.00  0.00    +0.000 C 
ATOM     26  C   UNL     1       4.516   5.436  17.380  0.00  0.00    +0.000 C 
BRANCH  26  27
ATOM     27  N   UNL     1       5.310   5.396  18.624  0.00  0.00    +0.000 N 
ATOM     28  C   UNL     1       6.613   5.701  18.855  0.00  0.00    +0.000 C 
ATOM     29  C   UNL     1       7.437   6.369  17.792  0.00  0.00    +0.000 C 
ATOM     30  O   UNL     1       7.077   5.456  19.969  0.00  0.00    +0.000 OA
ATOM     31  H   UNL     1       4.844   5.065  19.461  0.00  0.00    +0.000 HD
ENDBRANCH  26  27
BRANCH  24  32
ATOM     32  O   UNL     1       4.280   2.649  18.716  0.00  0.00    +0.000 OA
ATOM     33  H   UNL     1       4.303   1.675  18.729  0.00  0.00    +0.000 HD
ENDBRANCH  24  32
BRANCH  25  34
ATOM     34  O   UNL     1       5.636   3.457  16.444  0.00  0.00    +0.000 OA
ATOM     35  H   UNL     1       5.462   2.503  16.303  0.00  0.00    +0.000 HD
ENDBRANCH  25  34
BRANCH  23  36
ATOM     36  C   UNL     1       1.422   2.881  18.994  0.00  0.00    +0.000 C 
BRANCH  36  37
ATOM     37  O   UNL     1       1.575   1.502  18.668  0.00  0.00    +0.000 OA
ATOM     38  H   UNL     1       1.971   1.474  17.777  0.00  0.00    +0.000 HD
ENDBRANCH  36  37
ENDBRANCH  23  36
ENDBRANCH  20  21
ENDBRANCH   1  20
TORSDOF 13
ENDMDL
MODEL 4
REMARK VINA RESULT:      -6.3      1.886      3.313
REMARK  Name = 
REMARK  15 active torsions:
REMARK  status: ('A' for Active; 'I' for Inactive)
REMARK    1  A    between atoms: C_1  and  C_2
REMARK    2  A    between atoms: N_4  and  C_5
REMARK    3  A    between atoms: C_6  and  S_7
REMARK    4  A    between atoms: S_7  and  S_8
REMARK    5  A    between atoms: S_8  and  C_9
REMARK    6  A    between atoms: C_11  and  C_12
REMARK    7  A    between atoms: C_12  and  O_13
REMARK    8  A    between atoms: C_14  and  O_15
REMARK    9  A    between atoms: C_16  and  O_17
REMARK   10  A    between atoms: C_18  and  N_19
REMARK   11  A    between atoms: C_20  and  C_21
REMARK   12  A    between atoms: C_24  and  C_25
REMARK   13  A    between atoms: C_25  and  O_26
REMARK   14  A    between atoms: C_27  and  O_28
REMARK   15  A    between atoms: C_29  and  O_30
REMARK                            x       y       z     vdW  Elec       q    Type
REMARK                         _______ _______ _______ _____ _____    ______ ____
ROOT
ATOM      1  S   UNL     1       3.076   7.128  18.451  0.00  0.00    +0.000 S 
ENDROOT
BRANCH   1   3
ATOM      2  C   UNL     1       3.984   4.534  17.764  0.00  0.00    +0.000 C 
ATOM      3  C   UNL     1       2.710   5.432  17.819  0.00  0.00    +0.000 C 
ATOM      4  O   UNL     1       1.614   4.796  18.493  0.00  0.00    +0.000 OA
ATOM      5  C   UNL     1       1.857   4.176  19.757  0.00  0.00    +0.000 C 
ATOM      6  C   UNL     1       3.062   3.221  19.705  0.00  0.00    +0.000 C 
ATOM      7  C   UNL     1       4.298   3.934  19.146  0.00  0.00    +0.000 C 
BRANCH   2  11
ATOM      8  C   UNL     1       7.122   5.462  15.829  0.00  0.00    +0.000 C 
ATOM      9  C   UNL     1       6.006   4.581  16.315  0.00  0.00    +0.000 C 
ATOM     10  O   UNL     1       5.812   3.450  15.889  0.00  0.00    +0.000 OA
ATOM     11  N   UNL     1       5.184   5.194  17.228  0.00  0.00    +0.000 N 
ATOM     12  H   UNL     1       5.544   5.987  17.752  0.00  0.00    +0.000 HD
ENDBRANCH   2  11
BRANCH   6  13
ATOM     13  O   UNL     1       3.353   2.611  20.967  0.00  0.00    +0.000 OA
ATOM     14  H   UNL     1       3.736   3.296  21.552  0.00  0.00    +0.000 HD
ENDBRANCH   6  13
BRANCH   7  15
ATOM     15  O   UNL     1       5.416   3.036  19.010  0.00  0.00    +0.000 OA
ATOM     16  H   UNL     1       5.830   2.931  19.886  0.00  0.00    +0.000 HD
ENDBRANCH   7  15
BRANCH   5  17
ATOM     17  C   UNL     1       1.888   5.194  20.912  0.00  0.00    +0.000 C 
BRANCH  17  18
ATOM     18  O   UNL     1       0.846   6.158  20.798  0.00  0.00    +0.000 OA
ATOM     19  H   UNL     1       0.330   6.127  21.626  0.00  0.00    +0.000 HD
ENDBRANCH  17  18
ENDBRANCH   5  17
ENDBRANCH   1   3
BRANCH   1  20
ATOM     20  S   UNL     1       1.606   8.317  17.631  0.00  0.00    +0.000 S 
BRANCH  20  21
ATOM     21  C   UNL     1       1.377   9.599  18.930  0.00  0.00    +0.000 C 
ATOM     22  O   UNL     1       1.091   8.978  20.205  0.00  0.00    +0.000 OA
ATOM     23  C   UNL     1       1.177   9.926  21.295  0.00  0.00    +0.000 C 
ATOM     24  C   UNL     1       0.139  11.047  21.122  0.00  0.00    +0.000 C 
ATOM     25  C   UNL     1       0.236  11.658  19.715  0.00  0.00    +0.000 C 
ATOM     26  C   UNL     1       0.232  10.591  18.596  0.00  0.00    +0.000 C 
BRANCH  26  27
ATOM     27  N   UNL     1      -1.061   9.885  18.498  0.00  0.00    +0.000 N 
ATOM     28  C   UNL     1      -2.163  10.153  17.751  0.00  0.00    +0.000 C 
ATOM     29  C   UNL     1      -2.119  11.205  16.680  0.00  0.00    +0.000 C 
ATOM     30  O   UNL     1      -3.174   9.479  17.948  0.00  0.00    +0.000 OA
ATOM     31  H   UNL     1      -1.193   9.075  19.092  0.00  0.00    +0.000 HD
ENDBRANCH  26  27
BRANCH  24  32
ATOM     32  O   UNL     1      -1.201  10.583  21.345  0.00  0.00    +0.000 OA
ATOM     33  H   UNL     1      -1.359   9.799  20.787  0.00  0.00    +0.000 HD
ENDBRANCH  24  32
BRANCH  25  34
ATOM     34  O   UNL     1      -0.797  12.624  19.521  0.00  0.00    +0.000 OA
ATOM     35  H   UNL     1      -1.201  12.759  20.403  0.00  0.00    +0.000 HD
ENDBRANCH  25  34
BRANCH  23  36
ATOM     36  C   UNL     1       0.966   9.174  22.616  0.00  0.00    +0.000 C 
BRANCH  36  37
ATOM     37  O   UNL     1       0.266  10.002  23.543  0.00  0.00    +0.000 OA
ATOM     38  H   UNL     1       0.948  10.442  24.084  0.00  0.00    +0.000 HD
ENDBRANCH  36  37
ENDBRANCH  23  36
ENDBRANCH  20  21
ENDBRANCH   1  20
TORSDOF 13
ENDMDL
MODEL 5
REMARK VINA RESULT:      -6.3      1.916      8.376
REMARK  Name = 
REMARK  15 active torsions:
REMARK  status: ('A' for Active; 'I' for Inactive)
REMARK    1  A    between atoms: C_1  and  C_2
REMARK    2  A    between atoms: N_4  and  C_5
REMARK    3  A    between atoms: C_6  and  S_7
REMARK    4  A    between atoms: S_7  and  S_8
REMARK    5  A    between atoms: S_8  and  C_9
REMARK    6  A    between atoms: C_11  and  C_12
REMARK    7  A    between atoms: C_12  and  O_13
REMARK    8  A    between atoms: C_14  and  O_15
REMARK    9  A    between atoms: C_16  and  O_17
REMARK   10  A    between atoms: C_18  and  N_19
REMARK   11  A    between atoms: C_20  and  C_21
REMARK   12  A    between atoms: C_24  and  C_25
REMARK   13  A    between atoms: C_25  and  O_26
REMARK   14  A    between atoms: C_27  and  O_28
REMARK   15  A    between atoms: C_29  and  O_30
REMARK                            x       y       z     vdW  Elec       q    Type
REMARK                         _______ _______ _______ _____ _____    ______ ____
ROOT
ATOM      1  S   UNL     1       0.785   8.080  18.421  0.00  0.00    +0.000 S 
ENDROOT
BRANCH   1   3
ATOM      2  C   UNL     1      -0.508  10.584  18.132  0.00  0.00    +0.000 C 
ATOM      3  C   UNL     1       0.891   9.921  18.318  0.00  0.00    +0.000 C 
ATOM      4  O   UNL     1       1.644  10.510  19.387  0.00  0.00    +0.000 OA
ATOM      5  C   UNL     1       1.001  10.706  20.647  0.00  0.00    +0.000 C 
ATOM      6  C   UNL     1      -0.346  11.434  20.497  0.00  0.00    +0.000 C 
ATOM      7  C   UNL     1      -1.240  10.718  19.480  0.00  0.00    +0.000 C 
BRANCH   2  11
ATOM      8  C   UNL     1      -3.006   9.757  15.387  0.00  0.00    +0.000 C 
ATOM      9  C   UNL     1      -2.272  10.617  16.378  0.00  0.00    +0.000 C 
ATOM     10  O   UNL     1      -2.407  11.832  16.439  0.00  0.00    +0.000 OA
ATOM     11  N   UNL     1      -1.386   9.917  17.159  0.00  0.00    +0.000 N 
ATOM     12  H   UNL     1      -1.523   8.917  17.275  0.00  0.00    +0.000 HD
ENDBRANCH   2  11
BRANCH   6  13
ATOM     13  O   UNL     1      -1.031  11.614  21.740  0.00  0.00    +0.000 OA
ATOM     14  H   UNL     1      -1.994  11.566  21.565  0.00  0.00    +0.000 HD
ENDBRANCH   6  13
BRANCH   7  15
ATOM     15  O   UNL     1      -2.473  11.428  19.260  0.00  0.00    +0.000 OA
ATOM     16  H   UNL     1      -2.329  12.077  18.548  0.00  0.00    +0.000 HD
ENDBRANCH   7  15
BRANCH   5  17
ATOM     17  C   UNL     1       0.949   9.416  21.487  0.00  0.00    +0.000 C 
BRANCH  17  18
ATOM     18  O   UNL     1       0.987   9.690  22.884  0.00  0.00    +0.000 OA
ATOM     19  H   UNL     1       0.170   9.324  23.274  0.00  0.00    +0.000 HD
ENDBRANCH  17  18
ENDBRANCH   5  17
ENDBRANCH   1   3
BRANCH   1  20
ATOM     20  S   UNL     1       2.729   7.464  18.716  0.00  0.00    +0.000 S 
BRANCH  20  21
ATOM     21  C   UNL     1       2.588   5.639  18.532  0.00  0.00    +0.000 C 
ATOM     22  O   UNL     1       2.182   5.037  19.784  0.00  0.00    +0.000 OA
ATOM     23  C   UNL     1       1.796   3.653  19.613  0.00  0.00    +0.000 C 
ATOM     24  C   UNL     1       2.981   2.818  19.100  0.00  0.00    +0.000 C 
ATOM     25  C   UNL     1       3.609   3.478  17.862  0.00  0.00    +0.000 C 
ATOM     26  C   UNL     1       3.915   4.979  18.074  0.00  0.00    +0.000 C 
BRANCH  26  27
ATOM     27  N   UNL     1       4.981   5.200  19.071  0.00  0.00    +0.000 N 
ATOM     28  C   UNL     1       6.303   5.467  18.911  0.00  0.00    +0.000 C 
ATOM     29  C   UNL     1       6.855   5.791  17.552  0.00  0.00    +0.000 C 
ATOM     30  O   UNL     1       7.017   5.479  19.914  0.00  0.00    +0.000 OA
ATOM     31  H   UNL     1       4.725   5.122  20.048  0.00  0.00    +0.000 HD
ENDBRANCH  26  27
BRANCH  24  32
ATOM     32  O   UNL     1       3.991   2.638  20.104  0.00  0.00    +0.000 OA
ATOM     33  H   UNL     1       3.562   2.373  20.938  0.00  0.00    +0.000 HD
ENDBRANCH  24  32
BRANCH  25  34
ATOM     34  O   UNL     1       4.772   2.759  17.452  0.00  0.00    +0.000 OA
ATOM     35  H   UNL     1       4.689   2.656  16.481  0.00  0.00    +0.000 HD
ENDBRANCH  25  34
BRANCH  23  36
ATOM     36  C   UNL     1       1.282   3.119  20.957  0.00  0.00    +0.000 C 
BRANCH  36  37
ATOM     37  O   UNL     1       2.191   3.462  22.000  0.00  0.00    +0.000 OA
ATOM     38  H   UNL     1       2.417   2.628  22.452  0.00  0.00    +0.000 HD
ENDBRANCH  36  37
ENDBRANCH  23  36
ENDBRANCH  20  21
ENDBRANCH   1  20
TORSDOF 13
ENDMDL
MODEL 6
REMARK VINA RESULT:      -6.3      1.569      3.469
REMARK  Name = 
REMARK  15 active torsions:
REMARK  status: ('A' for Active; 'I' for Inactive)
REMARK    1  A    between atoms: C_1  and  C_2
REMARK    2  A    between atoms: N_4  and  C_5
REMARK    3  A    between atoms: C_6  and  S_7
REMARK    4  A    between atoms: S_7  and  S_8
REMARK    5  A    between atoms: S_8  and  C_9
REMARK    6  A    between atoms: C_11  and  C_12
REMARK    7  A    between atoms: C_12  and  O_13
REMARK    8  A    between atoms: C_14  and  O_15
REMARK    9  A    between atoms: C_16  and  O_17
REMARK   10  A    between atoms: C_18  and  N_19
REMARK   11  A    between atoms: C_20  and  C_21
REMARK   12  A    between atoms: C_24  and  C_25
REMARK   13  A    between atoms: C_25  and  O_26
REMARK   14  A    between atoms: C_27  and  O_28
REMARK   15  A    between atoms: C_29  and  O_30
REMARK                            x       y       z     vdW  Elec       q    Type
REMARK                         _______ _______ _______ _____ _____    ______ ____
ROOT
ATOM      1  S   UNL     1       2.362   6.755  18.218  0.00  0.00    +0.000 S 
ENDROOT
BRANCH   1   3
ATOM      2  C   UNL     1       3.872   4.655  19.373  0.00  0.00    +0.000 C 
ATOM      3  C   UNL     1       3.870   6.195  19.124  0.00  0.00    +0.000 C 
ATOM      4  O   UNL     1       5.094   6.661  18.538  0.00  0.00    +0.000 OA
ATOM      5  C   UNL     1       5.620   5.963  17.409  0.00  0.00    +0.000 C 
ATOM      6  C   UNL     1       5.708   4.448  17.662  0.00  0.00    +0.000 C 
ATOM      7  C   UNL     1       4.357   3.894  18.126  0.00  0.00    +0.000 C 
BRANCH   2  11
ATOM      8  C   UNL     1       1.103   2.761  21.161  0.00  0.00    +0.000 C 
ATOM      9  C   UNL     1       2.512   3.124  20.785  0.00  0.00    +0.000 C 
ATOM     10  O   UNL     1       3.496   2.641  21.331  0.00  0.00    +0.000 OA
ATOM     11  N   UNL     1       2.587   4.098  19.821  0.00  0.00    +0.000 N 
ATOM     12  H   UNL     1       1.787   4.243  19.212  0.00  0.00    +0.000 HD
ENDBRANCH   2  11
BRANCH   6  13
ATOM     13  O   UNL     1       6.200   3.716  16.535  0.00  0.00    +0.000 OA
ATOM     14  H   UNL     1       6.481   2.831  16.848  0.00  0.00    +0.000 HD
ENDBRANCH   6  13
BRANCH   7  15
ATOM     15  O   UNL     1       4.437   2.493  18.449  0.00  0.00    +0.000 OA
ATOM     16  H   UNL     1       4.528   1.993  17.617  0.00  0.00    +0.000 HD
ENDBRANCH   7  15
BRANCH   5  17
ATOM     17  C   UNL     1       4.921   6.359  16.096  0.00  0.00    +0.000 C 
BRANCH  17  18
ATOM     18  O   UNL     1       5.713   6.041  14.955  0.00  0.00    +0.000 OA
ATOM     19  H   UNL     1       6.334   6.781  14.818  0.00  0.00    +0.000 HD
ENDBRANCH  17  18
ENDBRANCH   5  17
ENDBRANCH   1   3
BRANCH   1  20
ATOM     20  S   UNL     1       2.597   8.794  18.030  0.00  0.00    +0.000 S 
BRANCH  20  21
ATOM     21  C   UNL     1       0.952   9.423  18.560  0.00  0.00    +0.000 C 
ATOM     22  O   UNL     1       0.078   9.573  17.416  0.00  0.00    +0.000 OA
ATOM     23  C   UNL     1      -1.294   9.798  17.815  0.00  0.00    +0.000 C 
ATOM     24  C   UNL     1      -1.419  11.101  18.623  0.00  0.00    +0.000 C 
ATOM     25  C   UNL     1      -0.393  11.124  19.768  0.00  0.00    +0.000 C 
ATOM     26  C   UNL     1       1.040  10.786  19.296  0.00  0.00    +0.000 C 
BRANCH  26  27
ATOM     27  N   UNL     1       1.599  11.825  18.409  0.00  0.00    +0.000 N 
ATOM     28  C   UNL     1       2.225  12.995  18.699  0.00  0.00    +0.000 C 
ATOM     29  C   UNL     1       2.633  13.311  20.109  0.00  0.00    +0.000 C 
ATOM     30  O   UNL     1       2.485  13.758  17.769  0.00  0.00    +0.000 OA
ATOM     31  H   UNL     1       1.495  11.687  17.411  0.00  0.00    +0.000 HD
ENDBRANCH  26  27
BRANCH  24  32
ATOM     32  O   UNL     1      -1.238  12.265  17.803  0.00  0.00    +0.000 OA
ATOM     33  H   UNL     1      -0.293  12.352  17.583  0.00  0.00    +0.000 HD
ENDBRANCH  24  32
BRANCH  25  34
ATOM     34  O   UNL     1      -0.438  12.377  20.450  0.00  0.00    +0.000 OA
ATOM     35  H   UNL     1      -0.398  13.060  19.748  0.00  0.00    +0.000 HD
ENDBRANCH  25  34
BRANCH  23  36
ATOM     36  C   UNL     1      -2.170   9.842  16.555  0.00  0.00    +0.000 C 
BRANCH  36  37
ATOM     37  O   UNL     1      -3.402  10.500  16.840  0.00  0.00    +0.000 OA
ATOM     38  H   UNL     1      -3.457  10.571  17.811  0.00  0.00    +0.000 HD
ENDBRANCH  36  37
ENDBRANCH  23  36
ENDBRANCH  20  21
ENDBRANCH   1  20
TORSDOF 13
ENDMDL
MODEL 7
REMARK VINA RESULT:      -6.1      1.655      2.805
REMARK  Name = 
REMARK  15 active torsions:
REMARK  status: ('A' for Active; 'I' for Inactive)
REMARK    1  A    between atoms: C_1  and  C_2
REMARK    2  A    between atoms: N_4  and  C_5
REMARK    3  A    between atoms: C_6  and  S_7
REMARK    4  A    between atoms: S_7  and  S_8
REMARK    5  A    between atoms: S_8  and  C_9
REMARK    6  A    between atoms: C_11  and  C_12
REMARK    7  A    between atoms: C_12  and  O_13
REMARK    8  A    between atoms: C_14  and  O_15
REMARK    9  A    between atoms: C_16  and  O_17
REMARK   10  A    between atoms: C_18  and  N_19
REMARK   11  A    between atoms: C_20  and  C_21
REMARK   12  A    between atoms: C_24  and  C_25
REMARK   13  A    between atoms: C_25  and  O_26
REMARK   14  A    between atoms: C_27  and  O_28
REMARK   15  A    between atoms: C_29  and  O_30
REMARK                            x       y       z     vdW  Elec       q    Type
REMARK                         _______ _______ _______ _____ _____    ______ ____
ROOT
ATOM      1  S   UNL     1       2.552   7.092  19.205  0.00  0.00    +0.000 S 
ENDROOT
BRANCH   1   3
ATOM      2  C   UNL     1       4.139   5.233  17.774  0.00  0.00    +0.000 C 
ATOM      3  C   UNL     1       2.728   5.895  17.810  0.00  0.00    +0.000 C 
ATOM      4  O   UNL     1       1.665   4.935  17.744  0.00  0.00    +0.000 OA
ATOM      5  C   UNL     1       1.716   3.799  18.609  0.00  0.00    +0.000 C 
ATOM      6  C   UNL     1       3.074   3.079  18.529  0.00  0.00    +0.000 C 
ATOM      7  C   UNL     1       4.225   4.061  18.769  0.00  0.00    +0.000 C 
BRANCH   2  11
ATOM      8  C   UNL     1       7.377   7.213  17.558  0.00  0.00    +0.000 C 
ATOM      9  C   UNL     1       6.392   6.131  17.219  0.00  0.00    +0.000 C 
ATOM     10  O   UNL     1       6.554   5.344  16.295  0.00  0.00    +0.000 OA
ATOM     11  N   UNL     1       5.263   6.154  17.999  0.00  0.00    +0.000 N 
ATOM     12  H   UNL     1       5.307   6.611  18.906  0.00  0.00    +0.000 HD
ENDBRANCH   2  11
BRANCH   6  13
ATOM     13  O   UNL     1       3.169   1.956  19.411  0.00  0.00    +0.000 OA
ATOM     14  H   UNL     1       2.471   1.316  19.163  0.00  0.00    +0.000 HD
ENDBRANCH   6  13
BRANCH   7  15
ATOM     15  O   UNL     1       5.509   3.426  18.616  0.00  0.00    +0.000 OA
ATOM     16  H   UNL     1       5.682   2.894  19.414  0.00  0.00    +0.000 HD
ENDBRANCH   7  15
BRANCH   5  17
ATOM     17  C   UNL     1       1.241   4.126  20.037  0.00  0.00    +0.000 C 
BRANCH  17  18
ATOM     18  O   UNL     1       0.711   2.980  20.695  0.00  0.00    +0.000 OA
ATOM     19  H   UNL     1       0.423   2.355  20.003  0.00  0.00    +0.000 HD
ENDBRANCH  17  18
ENDBRANCH   5  17
ENDBRANCH   1   3
BRANCH   1  20
ATOM     20  S   UNL     1       1.693   8.760  18.352  0.00  0.00    +0.000 S 
BRANCH  20  21
ATOM     21  C   UNL     1       1.460   9.861  19.807  0.00  0.00    +0.000 C 
ATOM     22  O   UNL     1       0.512   9.279  20.733  0.00  0.00    +0.000 OA
ATOM     23  C   UNL     1       0.510   9.970  22.004  0.00  0.00    +0.000 C 
ATOM     24  C   UNL     1       0.086  11.437  21.823  0.00  0.00    +0.000 C 
ATOM     25  C   UNL     1       0.919  12.106  20.718  0.00  0.00    +0.000 C 
ATOM     26  C   UNL     1       0.961  11.277  19.414  0.00  0.00    +0.000 C 
BRANCH  26  27
ATOM     27  N   UNL     1      -0.357  11.202  18.753  0.00  0.00    +0.000 N 
ATOM     28  C   UNL     1      -1.071  12.147  18.089  0.00  0.00    +0.000 C 
ATOM     29  C   UNL     1      -0.449  13.470  17.748  0.00  0.00    +0.000 C 
ATOM     30  O   UNL     1      -2.218  11.867  17.738  0.00  0.00    +0.000 OA
ATOM     31  H   UNL     1      -0.853  10.319  18.806  0.00  0.00    +0.000 HD
ENDBRANCH  26  27
BRANCH  24  32
ATOM     32  O   UNL     1      -1.308  11.563  21.506  0.00  0.00    +0.000 OA
ATOM     33  H   UNL     1      -1.522  10.950  20.779  0.00  0.00    +0.000 HD
ENDBRANCH  24  32
BRANCH  25  34
ATOM     34  O   UNL     1       0.453  13.434  20.479  0.00  0.00    +0.000 OA
ATOM     35  H   UNL     1       1.188  14.024  20.749  0.00  0.00    +0.000 HD
ENDBRANCH  25  34
BRANCH  23  36
ATOM     36  C   UNL     1      -0.438   9.234  22.960  0.00  0.00    +0.000 C 
BRANCH  36  37
ATOM     37  O   UNL     1       0.045   9.330  24.298  0.00  0.00    +0.000 OA
ATOM     38  H   UNL     1      -0.147   8.471  24.720  0.00  0.00    +0.000 HD
ENDBRANCH  36  37
ENDBRANCH  23  36
ENDBRANCH  20  21
ENDBRANCH   1  20
TORSDOF 13
ENDMDL
MODEL 8
REMARK VINA RESULT:      -6.1      1.661      8.360
REMARK  Name = 
REMARK  15 active torsions:
REMARK  status: ('A' for Active; 'I' for Inactive)
REMARK    1  A    between atoms: C_1  and  C_2
REMARK    2  A    between atoms: N_4  and  C_5
REMARK    3  A    between atoms: C_6  and  S_7
REMARK    4  A    between atoms: S_7  and  S_8
REMARK    5  A    between atoms: S_8  and  C_9
REMARK    6  A    between atoms: C_11  and  C_12
REMARK    7  A    between atoms: C_12  and  O_13
REMARK    8  A    between atoms: C_14  and  O_15
REMARK    9  A    between atoms: C_16  and  O_17
REMARK   10  A    between atoms: C_18  and  N_19
REMARK   11  A    between atoms: C_20  and  C_21
REMARK   12  A    between atoms: C_24  and  C_25
REMARK   13  A    between atoms: C_25  and  O_26
REMARK   14  A    between atoms: C_27  and  O_28
REMARK   15  A    between atoms: C_29  and  O_30
REMARK                            x       y       z     vdW  Elec       q    Type
REMARK                         _______ _______ _______ _____ _____    ______ ____
ROOT
ATOM      1  S   UNL     1       1.842   9.804  18.142  0.00  0.00    +0.000 S 
ENDROOT
BRANCH   1   3
ATOM      2  C   UNL     1       0.851  12.195  19.293  0.00  0.00    +0.000 C 
ATOM      3  C   UNL     1       0.913  10.650  19.495  0.00  0.00    +0.000 C 
ATOM      4  O   UNL     1      -0.377  10.074  19.749  0.00  0.00    +0.000 OA
ATOM      5  C   UNL     1      -1.465  10.434  18.897  0.00  0.00    +0.000 C 
ATOM      6  C   UNL     1      -1.597  11.959  18.748  0.00  0.00    +0.000 C 
ATOM      7  C   UNL     1      -0.267  12.579  18.307  0.00  0.00    +0.000 C 
BRANCH   2  11
ATOM      8  C   UNL     1       3.912  14.415  18.903  0.00  0.00    +0.000 C 
ATOM      9  C   UNL     1       2.556  14.003  19.403  0.00  0.00    +0.000 C 
ATOM     10  O   UNL     1       1.934  14.633  20.249  0.00  0.00    +0.000 OA
ATOM     11  N   UNL     1       2.115  12.817  18.872  0.00  0.00    +0.000 N 
ATOM     12  H   UNL     1       2.510  12.501  17.990  0.00  0.00    +0.000 HD
ENDBRANCH   2  11
BRANCH   6  13
ATOM     13  O   UNL     1      -2.658  12.351  17.872  0.00  0.00    +0.000 OA
ATOM     14  H   UNL     1      -3.286  12.901  18.383  0.00  0.00    +0.000 HD
ENDBRANCH   6  13
BRANCH   7  15
ATOM     15  O   UNL     1      -0.344  14.016  18.242  0.00  0.00    +0.000 OA
ATOM     16  H   UNL     1      -0.178  14.289  17.322  0.00  0.00    +0.000 HD
ENDBRANCH   7  15
BRANCH   5  17
ATOM     17  C   UNL     1      -1.453   9.653  17.570  0.00  0.00    +0.000 C 
BRANCH  17  18
ATOM     18  O   UNL     1      -2.716   9.706  16.912  0.00  0.00    +0.000 OA
ATOM     19  H   UNL     1      -3.283  10.316  17.421  0.00  0.00    +0.000 HD
ENDBRANCH  17  18
ENDBRANCH   5  17
ENDBRANCH   1   3
BRANCH   1  20
ATOM     20  S   UNL     1       1.508   7.796  18.460  0.00  0.00    +0.000 S 
BRANCH  20  21
ATOM     21  C   UNL     1       3.208   7.101  18.361  0.00  0.00    +0.000 C 
ATOM     22  O   UNL     1       3.611   6.950  16.980  0.00  0.00    +0.000 OA
ATOM     23  C   UNL     1       5.025   6.671  16.860  0.00  0.00    +0.000 C 
ATOM     24  C   UNL     1       5.378   5.346  17.557  0.00  0.00    +0.000 C 
ATOM     25  C   UNL     1       4.827   5.329  18.992  0.00  0.00    +0.000 C 
ATOM     26  C   UNL     1       3.334   5.725  19.067  0.00  0.00    +0.000 C 
BRANCH  26  27
ATOM     27  N   UNL     1       2.456   4.726  18.426  0.00  0.00    +0.000 N 
ATOM     28  C   UNL     1       1.496   3.923  18.953  0.00  0.00    +0.000 C 
ATOM     29  C   UNL     1       1.035   4.115  20.369  0.00  0.00    +0.000 C 
ATOM     30  O   UNL     1       0.988   3.072  18.222  0.00  0.00    +0.000 OA
ATOM     31  H   UNL     1       2.580   4.569  17.433  0.00  0.00    +0.000 HD
ENDBRANCH  26  27
BRANCH  24  32
ATOM     32  O   UNL     1       4.872   4.208  16.844  0.00  0.00    +0.000 OA
ATOM     33  H   UNL     1       3.902   4.187  16.932  0.00  0.00    +0.000 HD
ENDBRANCH  24  32
BRANCH  25  34
ATOM     34  O   UNL     1       5.063   4.059  19.600  0.00  0.00    +0.000 OA
ATOM     35  H   UNL     1       4.264   3.871  20.136  0.00  0.00    +0.000 HD
ENDBRANCH  25  34
BRANCH  23  36
ATOM     36  C   UNL     1       5.392   6.628  15.371  0.00  0.00    +0.000 C 
BRANCH  36  37
ATOM     37  O   UNL     1       6.562   5.836  15.179  0.00  0.00    +0.000 OA
ATOM     38  H   UNL     1       6.271   4.905  15.218  0.00  0.00    +0.000 HD
ENDBRANCH  36  37
ENDBRANCH  23  36
ENDBRANCH  20  21
ENDBRANCH   1  20
TORSDOF 13
ENDMDL
MODEL 9
REMARK VINA RESULT:      -6.1      2.085      4.496
REMARK  Name = 
REMARK  15 active torsions:
REMARK  status: ('A' for Active; 'I' for Inactive)
REMARK    1  A    between atoms: C_1  and  C_2
REMARK    2  A    between atoms: N_4  and  C_5
REMARK    3  A    between atoms: C_6  and  S_7
REMARK    4  A    between atoms: S_7  and  S_8
REMARK    5  A    between atoms: S_8  and  C_9
REMARK    6  A    between atoms: C_11  and  C_12
REMARK    7  A    between atoms: C_12  and  O_13
REMARK    8  A    between atoms: C_14  and  O_15
REMARK    9  A    between atoms: C_16  and  O_17
REMARK   10  A    between atoms: C_18  and  N_19
REMARK   11  A    between atoms: C_20  and  C_21
REMARK   12  A    between atoms: C_24  and  C_25
REMARK   13  A    between atoms: C_25  and  O_26
REMARK   14  A    between atoms: C_27  and  O_28
REMARK   15  A    between atoms: C_29  and  O_30
REMARK                            x       y       z     vdW  Elec       q    Type
REMARK                         _______ _______ _______ _____ _____    ______ ____
ROOT
ATOM      1  S   UNL     1       2.868   6.899  18.212  0.00  0.00    +0.000 S 
ENDROOT
BRANCH   1   3
ATOM      2  C   UNL     1       4.019   4.457  19.069  0.00  0.00    +0.000 C 
ATOM      3  C   UNL     1       4.287   5.990  18.967  0.00  0.00    +0.000 C 
ATOM      4  O   UNL     1       5.549   6.290  18.354  0.00  0.00    +0.000 OA
ATOM      5  C   UNL     1       5.890   5.631  17.134  0.00  0.00    +0.000 C 
ATOM      6  C   UNL     1       5.712   4.106  17.237  0.00  0.00    +0.000 C 
ATOM      7  C   UNL     1       4.303   3.755  17.729  0.00  0.00    +0.000 C 
BRANCH   2  11
ATOM      8  C   UNL     1       1.036   2.975  20.901  0.00  0.00    +0.000 C 
ATOM      9  C   UNL     1       2.475   3.127  20.496  0.00  0.00    +0.000 C 
ATOM     10  O   UNL     1       3.387   2.495  21.014  0.00  0.00    +0.000 OA
ATOM     11  N   UNL     1       2.675   4.093  19.541  0.00  0.00    +0.000 N 
ATOM     12  H   UNL     1       1.893   4.364  18.952  0.00  0.00    +0.000 HD
ENDBRANCH   2  11
BRANCH   6  13
ATOM     13  O   UNL     1       6.012   3.419  16.018  0.00  0.00    +0.000 OA
ATOM     14  H   UNL     1       6.774   3.869  15.598  0.00  0.00    +0.000 HD
ENDBRANCH   6  13
BRANCH   7  15
ATOM     15  O   UNL     1       4.141   2.336  17.913  0.00  0.00    +0.000 OA
ATOM     16  H   UNL     1       5.007   1.910  17.778  0.00  0.00    +0.000 HD
ENDBRANCH   7  15
BRANCH   5  17
ATOM     17  C   UNL     1       5.218   6.279  15.909  0.00  0.00    +0.000 C 
BRANCH  17  18
ATOM     18  O   UNL     1       5.843   5.884  14.691  0.00  0.00    +0.000 OA
ATOM     19  H   UNL     1       5.641   6.570  14.026  0.00  0.00    +0.000 HD
ENDBRANCH  17  18
ENDBRANCH   5  17
ENDBRANCH   1   3
BRANCH   1  20
ATOM     20  S   UNL     1       1.963   7.857  19.796  0.00  0.00    +0.000 S 
BRANCH  20  21
ATOM     21  C   UNL     1       1.262   9.355  18.992  0.00  0.00    +0.000 C 
ATOM     22  O   UNL     1       2.248  10.413  18.951  0.00  0.00    +0.000 OA
ATOM     23  C   UNL     1       1.834  11.500  18.091  0.00  0.00    +0.000 C 
ATOM     24  C   UNL     1       0.538  12.143  18.614  0.00  0.00    +0.000 C 
ATOM     25  C   UNL     1      -0.531  11.067  18.869  0.00  0.00    +0.000 C 
ATOM     26  C   UNL     1      -0.003   9.887  19.716  0.00  0.00    +0.000 C 
BRANCH  26  27
ATOM     27  N   UNL     1       0.315  10.287  21.101  0.00  0.00    +0.000 N 
ATOM     28  C   UNL     1      -0.016   9.716  22.287  0.00  0.00    +0.000 C 
ATOM     29  C   UNL     1      -0.655   8.358  22.326  0.00  0.00    +0.000 C 
ATOM     30  O   UNL     1       0.265  10.323  23.321  0.00  0.00    +0.000 OA
ATOM     31  H   UNL     1       0.848  11.140  21.226  0.00  0.00    +0.000 HD
ENDBRANCH  26  27
BRANCH  24  32
ATOM     32  O   UNL     1       0.753  12.891  19.819  0.00  0.00    +0.000 OA
ATOM     33  H   UNL     1       0.489  13.816  19.666  0.00  0.00    +0.000 HD
ENDBRANCH  24  32
BRANCH  25  34
ATOM     34  O   UNL     1      -1.695  11.652  19.453  0.00  0.00    +0.000 OA
ATOM     35  H   UNL     1      -1.625  11.473  20.414  0.00  0.00    +0.000 HD
ENDBRANCH  25  34
BRANCH  23  36
ATOM     36  C   UNL     1       2.971  12.528  18.019  0.00  0.00    +0.000 C 
BRANCH  36  37
ATOM     37  O   UNL     1       2.464  13.788  17.583  0.00  0.00    +0.000 OA
ATOM     38  H   UNL     1       3.181  14.208  17.072  0.00  0.00    +0.000 HD
ENDBRANCH  36  37
ENDBRANCH  23  36
ENDBRANCH  20  21
ENDBRANCH   1  20
TORSDOF 13
ENDMDL
