MODEL 1
REMARK VINA RESULT:      -7.0      0.000      0.000
REMARK  Name = 
REMARK  7 active torsions:
REMARK  status: ('A' for Active; 'I' for Inactive)
REMARK    1  A    between atoms: S_2  and  C_3
REMARK    2  A    between atoms: S_2  and  C_13
REMARK    3  A    between atoms: C_4  and  C_5
REMARK    4  A    between atoms: C_8  and  O_9
REMARK    5  A    between atoms: C_10  and  O_11
REMARK    6  A    between atoms: C_13  and  C_14
REMARK    7  A    between atoms: C_14  and  C_15
REMARK                            x       y       z     vdW  Elec       q    Type
REMARK                         _______ _______ _______ _____ _____    ______ ____
ROOT
ATOM      1  C   UNL     1       4.595   5.805  18.372  0.00  0.00    +0.000 C 
ATOM      2  C   UNL     1       3.344   6.133  18.015  0.00  0.00    +0.000 C 
ENDROOT
BRANCH   2   3
ATOM      3  C   UNL     1       2.561   7.197  18.662  0.00  0.00    +0.000 A 
ATOM      4  C   UNL     1       2.167   7.132  20.011  0.00  0.00    +0.000 A 
ATOM      5  C   UNL     1       1.413   8.158  20.594  0.00  0.00    +0.000 A 
ATOM      6  C   UNL     1       1.068   9.262  19.825  0.00  0.00    +0.000 A 
ATOM      7  C   UNL     1       1.483   9.351  18.500  0.00  0.00    +0.000 A 
ATOM      8  C   UNL     1       2.229   8.336  17.915  0.00  0.00    +0.000 A 
BRANCH   6   9
ATOM      9  O   UNL     1       0.320  10.288  20.330  0.00  0.00    +0.000 OA
ATOM     10  H   UNL     1      -0.293   9.918  20.990  0.00  0.00    +0.000 HD
ENDBRANCH   6   9
BRANCH   7  11
ATOM     11  O   UNL     1       1.151  10.447  17.755  0.00  0.00    +0.000 OA
ATOM     12  H   UNL     1       0.465  10.125  17.136  0.00  0.00    +0.000 HD
ENDBRANCH   7  11
ENDBRANCH   2   3
BRANCH   1  14
ATOM     13  O   UNL     1       6.116   5.151  16.294  0.00  0.00    +0.000 OA
ATOM     14  S   UNL     1       5.428   4.466  17.528  0.00  0.00    +0.000 S 
BRANCH  14  15
ATOM     15  C   UNL     1       3.939   3.605  16.916  0.00  0.00    +0.000 C 
BRANCH  15  16
ATOM     16  C   UNL     1       3.668   2.359  17.754  0.00  0.00    +0.000 C 
BRANCH  16  17
ATOM     17  C   UNL     1       2.851   2.690  18.979  0.00  0.00    +0.000 A 
ATOM     18  C   UNL     1       3.412   2.570  20.258  0.00  0.00    +0.000 A 
ATOM     19  C   UNL     1       2.644   2.832  21.395  0.00  0.00    +0.000 A 
ATOM     20  C   UNL     1       1.311   3.216  21.263  0.00  0.00    +0.000 A 
ATOM     21  C   UNL     1       0.747   3.347  19.996  0.00  0.00    +0.000 A 
ATOM     22  C   UNL     1       1.511   3.084  18.858  0.00  0.00    +0.000 A 
ENDBRANCH  16  17
ENDBRANCH  15  16
ENDBRANCH  14  15
ENDBRANCH   1  14
TORSDOF 7
ENDMDL
MODEL 2
REMARK VINA RESULT:      -6.9      0.214      1.094
REMARK  Name = 
REMARK  7 active torsions:
REMARK  status: ('A' for Active; 'I' for Inactive)
REMARK    1  A    between atoms: S_2  and  C_3
REMARK    2  A    between atoms: S_2  and  C_13
REMARK    3  A    between atoms: C_4  and  C_5
REMARK    4  A    between atoms: C_8  and  O_9
REMARK    5  A    between atoms: C_10  and  O_11
REMARK    6  A    between atoms: C_13  and  C_14
REMARK    7  A    between atoms: C_14  and  C_15
REMARK                            x       y       z     vdW  Elec       q    Type
REMARK                         _______ _______ _______ _____ _____    ______ ____
ROOT
ATOM      1  C   UNL     1       4.505   5.677  18.712  0.00  0.00    +0.000 C 
ATOM      2  C   UNL     1       3.502   6.297  18.070  0.00  0.00    +0.000 C 
ENDROOT
BRANCH   2   3
ATOM      3  C   UNL     1       2.634   7.309  18.692  0.00  0.00    +0.000 A 
ATOM      4  C   UNL     1       2.190   7.209  20.023  0.00  0.00    +0.000 A 
ATOM      5  C   UNL     1       1.357   8.186  20.582  0.00  0.00    +0.000 A 
ATOM      6  C   UNL     1       0.982   9.276  19.808  0.00  0.00    +0.000 A 
ATOM      7  C   UNL     1       1.444   9.401  18.501  0.00  0.00    +0.000 A 
ATOM      8  C   UNL     1       2.270   8.435  17.941  0.00  0.00    +0.000 A 
BRANCH   6   9
ATOM      9  O   UNL     1       0.157  10.253  20.289  0.00  0.00    +0.000 OA
ATOM     10  H   UNL     1      -0.075  10.844  19.551  0.00  0.00    +0.000 HD
ENDBRANCH   6   9
BRANCH   7  11
ATOM     11  O   UNL     1       1.081  10.484  17.752  0.00  0.00    +0.000 OA
ATOM     12  H   UNL     1       0.518  10.114  17.042  0.00  0.00    +0.000 HD
ENDBRANCH   7  11
ENDBRANCH   2   3
BRANCH   1  14
ATOM     13  O   UNL     1       6.260   5.245  16.764  0.00  0.00    +0.000 OA
ATOM     14  S   UNL     1       5.465   4.437  17.852  0.00  0.00    +0.000 S 
BRANCH  14  15
ATOM     15  C   UNL     1       4.079   3.601  17.009  0.00  0.00    +0.000 C 
BRANCH  15  16
ATOM     16  C   UNL     1       3.670   2.350  17.780  0.00  0.00    +0.000 C 
BRANCH  16  17
ATOM     17  C   UNL     1       2.836   2.701  18.990  0.00  0.00    +0.000 A 
ATOM     18  C   UNL     1       1.581   3.303  18.833  0.00  0.00    +0.000 A 
ATOM     19  C   UNL     1       0.827   3.669  19.951  0.00  0.00    +0.000 A 
ATOM     20  C   UNL     1       1.322   3.435  21.233  0.00  0.00    +0.000 A 
ATOM     21  C   UNL     1       2.565   2.828  21.398  0.00  0.00    +0.000 A 
ATOM     22  C   UNL     1       3.321   2.463  20.283  0.00  0.00    +0.000 A 
ENDBRANCH  16  17
ENDBRANCH  15  16
ENDBRANCH  14  15
ENDBRANCH   1  14
TORSDOF 7
ENDMDL
MODEL 3
REMARK VINA RESULT:      -6.9      2.249      3.843
REMARK  Name = 
REMARK  7 active torsions:
REMARK  status: ('A' for Active; 'I' for Inactive)
REMARK    1  A    between atoms: S_2  and  C_3
REMARK    2  A    between atoms: S_2  and  C_13
REMARK    3  A    between atoms: C_4  and  C_5
REMARK    4  A    between atoms: C_8  and  O_9
REMARK    5  A    between atoms: C_10  and  O_11
REMARK    6  A    between atoms: C_13  and  C_14
REMARK    7  A    between atoms: C_14  and  C_15
REMARK                            x       y       z     vdW  Elec       q    Type
REMARK                         _______ _______ _______ _____ _____    ______ ____
ROOT
ATOM      1  C   UNL     1       1.763   4.458  19.864  0.00  0.00    +0.000 C 
ATOM      2  C   UNL     1       2.443   5.566  20.197  0.00  0.00    +0.000 C 
ENDROOT
BRANCH   2   3
ATOM      3  C   UNL     1       2.211   6.884  19.586  0.00  0.00    +0.000 A 
ATOM      4  C   UNL     1       2.609   7.189  18.272  0.00  0.00    +0.000 A 
ATOM      5  C   UNL     1       2.381   8.457  17.724  0.00  0.00    +0.000 A 
ATOM      6  C   UNL     1       1.734   9.417  18.490  0.00  0.00    +0.000 A 
ATOM      7  C   UNL     1       1.306   9.114  19.779  0.00  0.00    +0.000 A 
ATOM      8  C   UNL     1       1.531   7.859  20.330  0.00  0.00    +0.000 A 
BRANCH   6   9
ATOM      9  O   UNL     1       1.498  10.678  18.019  0.00  0.00    +0.000 OA
ATOM     10  H   UNL     1       1.796  11.313  18.693  0.00  0.00    +0.000 HD
ENDBRANCH   6   9
BRANCH   7  11
ATOM     11  O   UNL     1       0.659  10.060  20.522  0.00  0.00    +0.000 OA
ATOM     12  H   UNL     1       0.111   9.548  21.150  0.00  0.00    +0.000 HD
ENDBRANCH   7  11
ENDBRANCH   2   3
BRANCH   1  14
ATOM     13  O   UNL     1       2.185   3.247  22.191  0.00  0.00    +0.000 OA
ATOM     14  S   UNL     1       2.167   2.907  20.658  0.00  0.00    +0.000 S 
BRANCH  14  15
ATOM     15  C   UNL     1       3.902   2.797  20.102  0.00  0.00    +0.000 C 
BRANCH  15  16
ATOM     16  C   UNL     1       3.964   2.710  18.580  0.00  0.00    +0.000 C 
BRANCH  16  17
ATOM     17  C   UNL     1       4.687   3.899  17.993  0.00  0.00    +0.000 A 
ATOM     18  C   UNL     1       5.598   4.627  18.769  0.00  0.00    +0.000 A 
ATOM     19  C   UNL     1       6.235   5.753  18.243  0.00  0.00    +0.000 A 
ATOM     20  C   UNL     1       5.966   6.160  16.937  0.00  0.00    +0.000 A 
ATOM     21  C   UNL     1       5.069   5.437  16.154  0.00  0.00    +0.000 A 
ATOM     22  C   UNL     1       4.429   4.312  16.679  0.00  0.00    +0.000 A 
ENDBRANCH  16  17
ENDBRANCH  15  16
ENDBRANCH  14  15
ENDBRANCH   1  14
TORSDOF 7
ENDMDL
MODEL 4
REMARK VINA RESULT:      -6.8      1.063      1.483
REMARK  Name = 
REMARK  7 active torsions:
REMARK  status: ('A' for Active; 'I' for Inactive)
REMARK    1  A    between atoms: S_2  and  C_3
REMARK    2  A    between atoms: S_2  and  C_13
REMARK    3  A    between atoms: C_4  and  C_5
REMARK    4  A    between atoms: C_8  and  O_9
REMARK    5  A    between atoms: C_10  and  O_11
REMARK    6  A    between atoms: C_13  and  C_14
REMARK    7  A    between atoms: C_14  and  C_15
REMARK                            x       y       z     vdW  Elec       q    Type
REMARK                         _______ _______ _______ _____ _____    ______ ____
ROOT
ATOM      1  C   UNL     1       4.625   6.811  17.736  0.00  0.00    +0.000 C 
ATOM      2  C   UNL     1       3.330   7.058  17.485  0.00  0.00    +0.000 C 
ENDROOT
BRANCH   2   3
ATOM      3  C   UNL     1       2.458   7.838  18.377  0.00  0.00    +0.000 A 
ATOM      4  C   UNL     1       2.230   7.477  19.717  0.00  0.00    +0.000 A 
ATOM      5  C   UNL     1       1.387   8.236  20.537  0.00  0.00    +0.000 A 
ATOM      6  C   UNL     1       0.784   9.373  20.015  0.00  0.00    +0.000 A 
ATOM      7  C   UNL     1       1.031   9.758  18.701  0.00  0.00    +0.000 A 
ATOM      8  C   UNL     1       1.865   9.008  17.882  0.00  0.00    +0.000 A 
BRANCH   6   9
ATOM      9  O   UNL     1      -0.063  10.147  20.758  0.00  0.00    +0.000 OA
ATOM     10  H   UNL     1       0.159  10.021  21.697  0.00  0.00    +0.000 HD
ENDBRANCH   6   9
BRANCH   7  11
ATOM     11  O   UNL     1       0.445  10.886  18.200  0.00  0.00    +0.000 OA
ATOM     12  H   UNL     1       0.043  10.599  17.355  0.00  0.00    +0.000 HD
ENDBRANCH   7  11
ENDBRANCH   2   3
BRANCH   1  14
ATOM     13  O   UNL     1       5.345   6.511  15.196  0.00  0.00    +0.000 OA
ATOM     14  S   UNL     1       5.569   5.817  16.586  0.00  0.00    +0.000 S 
BRANCH  14  15
ATOM     15  C   UNL     1       4.512   4.329  16.632  0.00  0.00    +0.000 C 
BRANCH  15  16
ATOM     16  C   UNL     1       4.650   3.625  17.978  0.00  0.00    +0.000 C 
BRANCH  16  17
ATOM     17  C   UNL     1       3.341   3.618  18.729  0.00  0.00    +0.000 A 
ATOM     18  C   UNL     1       2.144   3.322  18.063  0.00  0.00    +0.000 A 
ATOM     19  C   UNL     1       0.926   3.358  18.745  0.00  0.00    +0.000 A 
ATOM     20  C   UNL     1       0.894   3.690  20.099  0.00  0.00    +0.000 A 
ATOM     21  C   UNL     1       2.080   3.976  20.772  0.00  0.00    +0.000 A 
ATOM     22  C   UNL     1       3.299   3.942  20.092  0.00  0.00    +0.000 A 
ENDBRANCH  16  17
ENDBRANCH  15  16
ENDBRANCH  14  15
ENDBRANCH   1  14
TORSDOF 7
ENDMDL
MODEL 5
REMARK VINA RESULT:      -6.8      2.293      3.502
REMARK  Name = 
REMARK  7 active torsions:
REMARK  status: ('A' for Active; 'I' for Inactive)
REMARK    1  A    between atoms: S_2  and  C_3
REMARK    2  A    between atoms: S_2  and  C_13
REMARK    3  A    between atoms: C_4  and  C_5
REMARK    4  A    between atoms: C_8  and  O_9
REMARK    5  A    between atoms: C_10  and  O_11
REMARK    6  A    between atoms: C_13  and  C_14
REMARK    7  A    between atoms: C_14  and  C_15
REMARK                            x       y       z     vdW  Elec       q    Type
REMARK                         _______ _______ _______ _____ _____    ______ ____
ROOT
ATOM      1  C   UNL     1       1.119   4.385  20.489  0.00  0.00    +0.000 C 
ATOM      2  C   UNL     1       2.027   5.364  20.619  0.00  0.00    +0.000 C 
ENDROOT
BRANCH   2   3
ATOM      3  C   UNL     1       1.792   6.758  20.211  0.00  0.00    +0.000 A 
ATOM      4  C   UNL     1       1.195   7.704  21.062  0.00  0.00    +0.000 A 
ATOM      5  C   UNL     1       0.977   9.021  20.639  0.00  0.00    +0.000 A 
ATOM      6  C   UNL     1       1.377   9.394  19.363  0.00  0.00    +0.000 A 
ATOM      7  C   UNL     1       2.001   8.474  18.526  0.00  0.00    +0.000 A 
ATOM      8  C   UNL     1       2.218   7.166  18.939  0.00  0.00    +0.000 A 
BRANCH   6   9
ATOM      9  O   UNL     1       1.177  10.659  18.885  0.00  0.00    +0.000 OA
ATOM     10  H   UNL     1       2.035  11.117  18.875  0.00  0.00    +0.000 HD
ENDBRANCH   6   9
BRANCH   7  11
ATOM     11  O   UNL     1       2.404   8.853  17.277  0.00  0.00    +0.000 OA
ATOM     12  H   UNL     1       3.121   9.500  17.436  0.00  0.00    +0.000 HD
ENDBRANCH   7  11
ENDBRANCH   2   3
BRANCH   1  14
ATOM     13  O   UNL     1       2.702   2.911  22.033  0.00  0.00    +0.000 OA
ATOM     14  S   UNL     1       1.542   2.721  20.991  0.00  0.00    +0.000 S 
BRANCH  14  15
ATOM     15  C   UNL     1       2.299   2.181  19.421  0.00  0.00    +0.000 C 
BRANCH  15  16
ATOM     16  C   UNL     1       3.819   2.273  19.510  0.00  0.00    +0.000 C 
BRANCH  16  17
ATOM     17  C   UNL     1       4.344   3.451  18.723  0.00  0.00    +0.000 A 
ATOM     18  C   UNL     1       5.217   4.368  19.322  0.00  0.00    +0.000 A 
ATOM     19  C   UNL     1       5.668   5.483  18.611  0.00  0.00    +0.000 A 
ATOM     20  C   UNL     1       5.250   5.689  17.297  0.00  0.00    +0.000 A 
ATOM     21  C   UNL     1       4.390   4.777  16.691  0.00  0.00    +0.000 A 
ATOM     22  C   UNL     1       3.935   3.663  17.400  0.00  0.00    +0.000 A 
ENDBRANCH  16  17
ENDBRANCH  15  16
ENDBRANCH  14  15
ENDBRANCH   1  14
TORSDOF 7
ENDMDL
MODEL 6
REMARK VINA RESULT:      -6.7      1.085      1.221
REMARK  Name = 
REMARK  7 active torsions:
REMARK  status: ('A' for Active; 'I' for Inactive)
REMARK    1  A    between atoms: S_2  and  C_3
REMARK    2  A    between atoms: S_2  and  C_13
REMARK    3  A    between atoms: C_4  and  C_5
REMARK    4  A    between atoms: C_8  and  O_9
REMARK    5  A    between atoms: C_10  and  O_11
REMARK    6  A    between atoms: C_13  and  C_14
REMARK    7  A    between atoms: C_14  and  C_15
REMARK                            x       y       z     vdW  Elec       q    Type
REMARK                         _______ _______ _______ _____ _____    ______ ____
ROOT
ATOM      1  C   UNL     1       4.791   6.782  17.601  0.00  0.00    +0.000 C 
ATOM      2  C   UNL     1       3.501   7.055  17.351  0.00  0.00    +0.000 C 
ENDROOT
BRANCH   2   3
ATOM      3  C   UNL     1       2.626   7.793  18.275  0.00  0.00    +0.000 A 
ATOM      4  C   UNL     1       2.353   7.343  19.579  0.00  0.00    +0.000 A 
ATOM      5  C   UNL     1       1.509   8.065  20.431  0.00  0.00    +0.000 A 
ATOM      6  C   UNL     1       0.949   9.252  19.979  0.00  0.00    +0.000 A 
ATOM      7  C   UNL     1       1.241   9.724  18.703  0.00  0.00    +0.000 A 
ATOM      8  C   UNL     1       2.077   9.011  17.852  0.00  0.00    +0.000 A 
BRANCH   6   9
ATOM      9  O   UNL     1       0.104   9.994  20.755  0.00  0.00    +0.000 OA
ATOM     10  H   UNL     1      -0.491   9.382  21.223  0.00  0.00    +0.000 HD
ENDBRANCH   6   9
BRANCH   7  11
ATOM     11  O   UNL     1       0.698  10.900  18.271  0.00  0.00    +0.000 OA
ATOM     12  H   UNL     1       1.380  11.573  18.469  0.00  0.00    +0.000 HD
ENDBRANCH   7  11
ENDBRANCH   2   3
BRANCH   1  14
ATOM     13  O   UNL     1       5.351   6.473  15.022  0.00  0.00    +0.000 OA
ATOM     14  S   UNL     1       5.738   5.844  16.408  0.00  0.00    +0.000 S 
BRANCH  14  15
ATOM     15  C   UNL     1       4.832   4.269  16.567  0.00  0.00    +0.000 C 
BRANCH  15  16
ATOM     16  C   UNL     1       4.878   3.776  18.010  0.00  0.00    +0.000 C 
BRANCH  16  17
ATOM     17  C   UNL     1       3.498   3.740  18.622  0.00  0.00    +0.000 A 
ATOM     18  C   UNL     1       3.341   3.741  20.014  0.00  0.00    +0.000 A 
ATOM     19  C   UNL     1       2.067   3.662  20.582  0.00  0.00    +0.000 A 
ATOM     20  C   UNL     1       0.942   3.582  19.764  0.00  0.00    +0.000 A 
ATOM     21  C   UNL     1       1.088   3.591  18.379  0.00  0.00    +0.000 A 
ATOM     22  C   UNL     1       2.360   3.667  17.808  0.00  0.00    +0.000 A 
ENDBRANCH  16  17
ENDBRANCH  15  16
ENDBRANCH  14  15
ENDBRANCH   1  14
TORSDOF 7
ENDMDL
MODEL 7
REMARK VINA RESULT:      -6.7      0.943      1.940
REMARK  Name = 
REMARK  7 active torsions:
REMARK  status: ('A' for Active; 'I' for Inactive)
REMARK    1  A    between atoms: S_2  and  C_3
REMARK    2  A    between atoms: S_2  and  C_13
REMARK    3  A    between atoms: C_4  and  C_5
REMARK    4  A    between atoms: C_8  and  O_9
REMARK    5  A    between atoms: C_10  and  O_11
REMARK    6  A    between atoms: C_13  and  C_14
REMARK    7  A    between atoms: C_14  and  C_15
REMARK                            x       y       z     vdW  Elec       q    Type
REMARK                         _______ _______ _______ _____ _____    ______ ____
ROOT
ATOM      1  C   UNL     1       4.749   6.351  17.848  0.00  0.00    +0.000 C 
ATOM      2  C   UNL     1       3.444   6.544  17.604  0.00  0.00    +0.000 C 
ENDROOT
BRANCH   2   3
ATOM      3  C   UNL     1       2.607   7.505  18.339  0.00  0.00    +0.000 A 
ATOM      4  C   UNL     1       1.995   8.607  17.715  0.00  0.00    +0.000 A 
ATOM      5  C   UNL     1       1.212   9.508  18.446  0.00  0.00    +0.000 A 
ATOM      6  C   UNL     1       1.028   9.294  19.806  0.00  0.00    +0.000 A 
ATOM      7  C   UNL     1       1.600   8.187  20.425  0.00  0.00    +0.000 A 
ATOM      8  C   UNL     1       2.380   7.290  19.706  0.00  0.00    +0.000 A 
BRANCH   6   9
ATOM      9  O   UNL     1       0.289  10.146  20.577  0.00  0.00    +0.000 OA
ATOM     10  H   UNL     1      -0.074   9.640  21.324  0.00  0.00    +0.000 HD
ENDBRANCH   6   9
BRANCH   7  11
ATOM     11  O   UNL     1       1.402   7.976  21.760  0.00  0.00    +0.000 OA
ATOM     12  H   UNL     1       1.474   8.865  22.163  0.00  0.00    +0.000 HD
ENDBRANCH   7  11
ENDBRANCH   2   3
BRANCH   1  14
ATOM     13  O   UNL     1       5.950   5.829  15.535  0.00  0.00    +0.000 OA
ATOM     14  S   UNL     1       5.648   5.124  16.906  0.00  0.00    +0.000 S 
BRANCH  14  15
ATOM     15  C   UNL     1       4.262   3.968  16.634  0.00  0.00    +0.000 C 
BRANCH  15  16
ATOM     16  C   UNL     1       4.232   2.911  17.733  0.00  0.00    +0.000 C 
BRANCH  16  17
ATOM     17  C   UNL     1       3.109   3.166  18.709  0.00  0.00    +0.000 A 
ATOM     18  C   UNL     1       1.775   3.079  18.291  0.00  0.00    +0.000 A 
ATOM     19  C   UNL     1       0.735   3.359  19.180  0.00  0.00    +0.000 A 
ATOM     20  C   UNL     1       1.020   3.727  20.494  0.00  0.00    +0.000 A 
ATOM     21  C   UNL     1       2.343   3.806  20.922  0.00  0.00    +0.000 A 
ATOM     22  C   UNL     1       3.385   3.530  20.034  0.00  0.00    +0.000 A 
ENDBRANCH  16  17
ENDBRANCH  15  16
ENDBRANCH  14  15
ENDBRANCH   1  14
TORSDOF 7
ENDMDL
MODEL 8
REMARK VINA RESULT:      -6.7      2.270      3.983
REMARK  Name = 
REMARK  7 active torsions:
REMARK  status: ('A' for Active; 'I' for Inactive)
REMARK    1  A    between atoms: S_2  and  C_3
REMARK    2  A    between atoms: S_2  and  C_13
REMARK    3  A    between atoms: C_4  and  C_5
REMARK    4  A    between atoms: C_8  and  O_9
REMARK    5  A    between atoms: C_10  and  O_11
REMARK    6  A    between atoms: C_13  and  C_14
REMARK    7  A    between atoms: C_14  and  C_15
REMARK                            x       y       z     vdW  Elec       q    Type
REMARK                         _______ _______ _______ _____ _____    ______ ____
ROOT
ATOM      1  C   UNL     1       1.764   4.402  19.984  0.00  0.00    +0.000 C 
ATOM      2  C   UNL     1       2.518   5.488  20.216  0.00  0.00    +0.000 C 
ENDROOT
BRANCH   2   3
ATOM      3  C   UNL     1       2.257   6.807  19.618  0.00  0.00    +0.000 A 
ATOM      4  C   UNL     1       2.659   7.137  18.311  0.00  0.00    +0.000 A 
ATOM      5  C   UNL     1       2.404   8.405  17.775  0.00  0.00    +0.000 A 
ATOM      6  C   UNL     1       1.727   9.340  18.547  0.00  0.00    +0.000 A 
ATOM      7  C   UNL     1       1.294   9.011  19.828  0.00  0.00    +0.000 A 
ATOM      8  C   UNL     1       1.546   7.755  20.366  0.00  0.00    +0.000 A 
BRANCH   6   9
ATOM      9  O   UNL     1       1.462  10.600  18.088  0.00  0.00    +0.000 OA
ATOM     10  H   UNL     1       2.172  11.189  18.397  0.00  0.00    +0.000 HD
ENDBRANCH   6   9
BRANCH   7  11
ATOM     11  O   UNL     1       0.617   9.932  20.575  0.00  0.00    +0.000 OA
ATOM     12  H   UNL     1       1.265  10.230  21.245  0.00  0.00    +0.000 HD
ENDBRANCH   7  11
ENDBRANCH   2   3
BRANCH   1  14
ATOM     13  O   UNL     1       2.220   3.154  22.286  0.00  0.00    +0.000 OA
ATOM     14  S   UNL     1       2.209   2.846  20.746  0.00  0.00    +0.000 S 
BRANCH  14  15
ATOM     15  C   UNL     1       3.945   2.792  20.187  0.00  0.00    +0.000 C 
BRANCH  15  16
ATOM     16  C   UNL     1       4.007   2.628  18.672  0.00  0.00    +0.000 C 
BRANCH  16  17
ATOM     17  C   UNL     1       4.659   3.822  18.017  0.00  0.00    +0.000 A 
ATOM     18  C   UNL     1       4.316   4.188  16.709  0.00  0.00    +0.000 A 
ATOM     19  C   UNL     1       4.950   5.265  16.086  0.00  0.00    +0.000 A 
ATOM     20  C   UNL     1       5.932   5.985  16.764  0.00  0.00    +0.000 A 
ATOM     21  C   UNL     1       6.273   5.635  18.069  0.00  0.00    +0.000 A 
ATOM     22  C   UNL     1       5.643   4.557  18.694  0.00  0.00    +0.000 A 
ENDBRANCH  16  17
ENDBRANCH  15  16
ENDBRANCH  14  15
ENDBRANCH   1  14
TORSDOF 7
ENDMDL
MODEL 9
REMARK VINA RESULT:      -6.7      0.641      1.473
REMARK  Name = 
REMARK  7 active torsions:
REMARK  status: ('A' for Active; 'I' for Inactive)
REMARK    1  A    between atoms: S_2  and  C_3
REMARK    2  A    between atoms: S_2  and  C_13
REMARK    3  A    between atoms: C_4  and  C_5
REMARK    4  A    between atoms: C_8  and  O_9
REMARK    5  A    between atoms: C_10  and  O_11
REMARK    6  A    between atoms: C_13  and  C_14
REMARK    7  A    between atoms: C_14  and  C_15
REMARK                            x       y       z     vdW  Elec       q    Type
REMARK                         _______ _______ _______ _____ _____    ______ ____
ROOT
ATOM      1  C   UNL     1       4.386   5.992  17.956  0.00  0.00    +0.000 C 
ATOM      2  C   UNL     1       3.331   6.104  18.777  0.00  0.00    +0.000 C 
ENDROOT
BRANCH   2   3
ATOM      3  C   UNL     1       2.539   7.335  18.929  0.00  0.00    +0.000 A 
ATOM      4  C   UNL     1       2.331   8.236  17.869  0.00  0.00    +0.000 A 
ATOM      5  C   UNL     1       1.579   9.403  18.049  0.00  0.00    +0.000 A 
ATOM      6  C   UNL     1       1.018   9.658  19.294  0.00  0.00    +0.000 A 
ATOM      7  C   UNL     1       1.189   8.755  20.338  0.00  0.00    +0.000 A 
ATOM      8  C   UNL     1       1.936   7.597  20.167  0.00  0.00    +0.000 A 
BRANCH   6   9
ATOM      9  O   UNL     1       0.289  10.788  19.538  0.00  0.00    +0.000 OA
ATOM     10  H   UNL     1       0.192  11.272  18.700  0.00  0.00    +0.000 HD
ENDBRANCH   6   9
BRANCH   7  11
ATOM     11  O   UNL     1       0.622   9.008  21.556  0.00  0.00    +0.000 OA
ATOM     12  H   UNL     1      -0.084   9.658  21.367  0.00  0.00    +0.000 HD
ENDBRANCH   7  11
ENDBRANCH   2   3
BRANCH   1  14
ATOM     13  O   UNL     1       6.445   4.717  16.861  0.00  0.00    +0.000 OA
ATOM     14  S   UNL     1       5.289   4.449  17.890  0.00  0.00    +0.000 S 
BRANCH  14  15
ATOM     15  C   UNL     1       4.014   3.461  17.036  0.00  0.00    +0.000 C 
BRANCH  15  16
ATOM     16  C   UNL     1       3.667   2.223  17.857  0.00  0.00    +0.000 C 
BRANCH  16  17
ATOM     17  C   UNL     1       2.840   2.583  19.068  0.00  0.00    +0.000 A 
ATOM     18  C   UNL     1       3.398   2.512  20.352  0.00  0.00    +0.000 A 
ATOM     19  C   UNL     1       2.622   2.801  21.477  0.00  0.00    +0.000 A 
ATOM     20  C   UNL     1       1.284   3.164  21.328  0.00  0.00    +0.000 A 
ATOM     21  C   UNL     1       0.725   3.247  20.055  0.00  0.00    +0.000 A 
ATOM     22  C   UNL     1       1.497   2.957  18.929  0.00  0.00    +0.000 A 
ENDBRANCH  16  17
ENDBRANCH  15  16
ENDBRANCH  14  15
ENDBRANCH   1  14
TORSDOF 7
ENDMDL
