MODEL 1
REMARK VINA RESULT:      -7.5      0.000      0.000
REMARK  Name = 
REMARK  5 active torsions:
REMARK  status: ('A' for Active; 'I' for Inactive)
REMARK    1  A    between atoms: C_2  and  C_5
REMARK    2  A    between atoms: C_9  and  N_10
REMARK    3  A    between atoms: N_10  and  C_11
REMARK    4  A    between atoms: C_11  and  N_13
REMARK    5  A    between atoms: N_13  and  C_14
REMARK                            x       y       z     vdW  Elec       q    Type
REMARK                         _______ _______ _______ _____ _____    ______ ____
ROOT
ATOM      1  N   UNL     1       4.135   4.049  19.405  0.00  0.00    +0.000 N 
ATOM      2  H   UNL     1       4.363   3.200  19.906  0.00  0.00    +0.000 HD
ENDROOT
BRANCH   1   7
ATOM      3  C   UNL     1       6.305   4.906  16.498  0.00  0.00    +0.000 A 
ATOM      4  C   UNL     1       7.331   5.592  17.159  0.00  0.00    +0.000 A 
ATOM      5  C   UNL     1       7.287   5.763  18.543  0.00  0.00    +0.000 A 
ATOM      6  C   UNL     1       6.217   5.250  19.276  0.00  0.00    +0.000 A 
ATOM      7  C   UNL     1       5.164   4.603  18.622  0.00  0.00    +0.000 A 
ATOM      8  C   UNL     1       5.221   4.416  17.242  0.00  0.00    +0.000 A 
BRANCH   3  10
ATOM      9  F   UNL     1       7.504   5.063  14.423  0.00  0.00    +0.000 F 
ATOM     10  C   UNL     1       6.351   4.647  15.014  0.00  0.00    +0.000 C 
ATOM     11  F   UNL     1       5.340   5.263  14.341  0.00  0.00    +0.000 F 
ATOM     12  F   UNL     1       6.243   3.320  14.718  0.00  0.00    +0.000 F 
ENDBRANCH   3  10
ENDBRANCH   1   7
BRANCH   1  13
ATOM     13  C   UNL     1       2.886   4.557  19.694  0.00  0.00    +0.000 C 
ATOM     14  S   UNL     1       1.410   3.909  19.263  0.00  0.00    +0.000 S 
BRANCH  13  15
ATOM     15  N   UNL     1       2.925   5.807  20.272  0.00  0.00    +0.000 N 
ATOM     16  H   UNL     1       3.555   5.913  21.060  0.00  0.00    +0.000 HD
BRANCH  15  17
ATOM     17  C   UNL     1       2.446   6.996  19.686  0.00  0.00    +0.000 A 
ATOM     18  C   UNL     1       2.701   7.225  18.333  0.00  0.00    +0.000 A 
ATOM     19  C   UNL     1       2.237   8.395  17.725  0.00  0.00    +0.000 A 
ATOM     20  C   UNL     1       1.473   9.310  18.452  0.00  0.00    +0.000 A 
ATOM     21  C   UNL     1       1.185   9.057  19.789  0.00  0.00    +0.000 A 
ATOM     22 BR   UNL     1       0.095  10.253  20.766  0.00  0.00    +0.000 Br
ATOM     23  C   UNL     1       1.677   7.913  20.412  0.00  0.00    +0.000 A 
ENDBRANCH  15  17
ENDBRANCH  13  15
ENDBRANCH   1  13
TORSDOF 5
ENDMDL
MODEL 2
REMARK VINA RESULT:      -7.5      4.499      6.327
REMARK  Name = 
REMARK  5 active torsions:
REMARK  status: ('A' for Active; 'I' for Inactive)
REMARK    1  A    between atoms: C_2  and  C_5
REMARK    2  A    between atoms: C_9  and  N_10
REMARK    3  A    between atoms: N_10  and  C_11
REMARK    4  A    between atoms: C_11  and  N_13
REMARK    5  A    between atoms: N_13  and  C_14
REMARK                            x       y       z     vdW  Elec       q    Type
REMARK                         _______ _______ _______ _____ _____    ______ ____
ROOT
ATOM      1  N   UNL     1       2.062   5.939  17.675  0.00  0.00    +0.000 N 
ATOM      2  H   UNL     1       1.406   6.092  16.920  0.00  0.00    +0.000 HD
ENDROOT
BRANCH   1   7
ATOM      3  C   UNL     1       2.185   3.085  20.068  0.00  0.00    +0.000 A 
ATOM      4  C   UNL     1       2.382   2.028  19.170  0.00  0.00    +0.000 A 
ATOM      5  C   UNL     1       2.465   2.274  17.800  0.00  0.00    +0.000 A 
ATOM      6  C   UNL     1       2.352   3.577  17.316  0.00  0.00    +0.000 A 
ATOM      7  C   UNL     1       2.110   4.635  18.198  0.00  0.00    +0.000 A 
ATOM      8  C   UNL     1       2.047   4.388  19.568  0.00  0.00    +0.000 A 
BRANCH   3  10
ATOM      9  F   UNL     1       3.088   1.978  21.999  0.00  0.00    +0.000 F 
ATOM     10  C   UNL     1       2.154   2.865  21.559  0.00  0.00    +0.000 C 
ATOM     11  F   UNL     1       0.953   2.393  21.996  0.00  0.00    +0.000 F 
ATOM     12  F   UNL     1       2.380   4.014  22.255  0.00  0.00    +0.000 F 
ENDBRANCH   3  10
ENDBRANCH   1   7
BRANCH   1  13
ATOM     13  C   UNL     1       2.691   7.084  18.118  0.00  0.00    +0.000 C 
ATOM     14  S   UNL     1       2.073   8.236  19.153  0.00  0.00    +0.000 S 
BRANCH  13  15
ATOM     15  N   UNL     1       3.896   7.321  17.494  0.00  0.00    +0.000 N 
ATOM     16  H   UNL     1       4.180   8.292  17.431  0.00  0.00    +0.000 HD
BRANCH  15  17
ATOM     17  C   UNL     1       4.893   6.356  17.245  0.00  0.00    +0.000 A 
ATOM     18  C   UNL     1       5.609   5.840  18.327  0.00  0.00    +0.000 A 
ATOM     19  C   UNL     1       6.602   4.881  18.110  0.00  0.00    +0.000 A 
ATOM     20  C   UNL     1       6.844   4.397  16.822  0.00  0.00    +0.000 A 
ATOM     21  C   UNL     1       6.099   4.884  15.753  0.00  0.00    +0.000 A 
ATOM     22 BR   UNL     1       6.370   4.189  14.016  0.00  0.00    +0.000 Br
ATOM     23  C   UNL     1       5.135   5.868  15.956  0.00  0.00    +0.000 A 
ENDBRANCH  15  17
ENDBRANCH  13  15
ENDBRANCH   1  13
TORSDOF 5
ENDMDL
MODEL 3
REMARK VINA RESULT:      -7.4      5.385      7.378
REMARK  Name = 
REMARK  5 active torsions:
REMARK  status: ('A' for Active; 'I' for Inactive)
REMARK    1  A    between atoms: C_2  and  C_5
REMARK    2  A    between atoms: C_9  and  N_10
REMARK    3  A    between atoms: N_10  and  C_11
REMARK    4  A    between atoms: C_11  and  N_13
REMARK    5  A    between atoms: N_13  and  C_14
REMARK                            x       y       z     vdW  Elec       q    Type
REMARK                         _______ _______ _______ _____ _____    ______ ____
ROOT
ATOM      1  N   UNL     1       5.267   3.392  17.415  0.00  0.00    +0.000 N 
ATOM      2  H   UNL     1       5.543   2.444  17.191  0.00  0.00    +0.000 HD
ENDROOT
BRANCH   1   7
ATOM      3  C   UNL     1       2.447   3.481  19.850  0.00  0.00    +0.000 A 
ATOM      4  C   UNL     1       1.380   3.710  18.972  0.00  0.00    +0.000 A 
ATOM      5  C   UNL     1       1.609   3.834  17.602  0.00  0.00    +0.000 A 
ATOM      6  C   UNL     1       2.906   3.732  17.099  0.00  0.00    +0.000 A 
ATOM      7  C   UNL     1       3.984   3.549  17.970  0.00  0.00    +0.000 A 
ATOM      8  C   UNL     1       3.749   3.405  19.336  0.00  0.00    +0.000 A 
BRANCH   3  10
ATOM      9  F   UNL     1       2.487   4.386  22.074  0.00  0.00    +0.000 F 
ATOM     10  C   UNL     1       2.229   3.278  21.327  0.00  0.00    +0.000 C 
ATOM     11  F   UNL     1       3.010   2.288  21.843  0.00  0.00    +0.000 F 
ATOM     12  F   UNL     1       0.944   2.930  21.617  0.00  0.00    +0.000 F 
ENDBRANCH   3  10
ENDBRANCH   1   7
BRANCH   1  13
ATOM     13  C   UNL     1       6.171   4.353  17.014  0.00  0.00    +0.000 C 
ATOM     14  S   UNL     1       7.516   4.881  17.847  0.00  0.00    +0.000 S 
BRANCH  13  15
ATOM     15  N   UNL     1       5.791   5.015  15.867  0.00  0.00    +0.000 N 
ATOM     16  H   UNL     1       5.308   5.897  16.002  0.00  0.00    +0.000 HD
BRANCH  15  17
ATOM     17  C   UNL     1       6.287   4.760  14.573  0.00  0.00    +0.000 A 
ATOM     18  C   UNL     1       7.404   5.472  14.133  0.00  0.00    +0.000 A 
ATOM     19  C   UNL     1       7.918   5.240  12.854  0.00  0.00    +0.000 A 
ATOM     20  C   UNL     1       7.352   4.259  12.036  0.00  0.00    +0.000 A 
ATOM     21  C   UNL     1       6.266   3.522  12.496  0.00  0.00    +0.000 A 
ATOM     22 BR   UNL     1       5.533   2.147  11.425  0.00  0.00    +0.000 Br
ATOM     23  C   UNL     1       5.723   3.776  13.752  0.00  0.00    +0.000 A 
ENDBRANCH  15  17
ENDBRANCH  13  15
ENDBRANCH   1  13
TORSDOF 5
ENDMDL
MODEL 4
REMARK VINA RESULT:      -7.3      1.682      2.271
REMARK  Name = 
REMARK  5 active torsions:
REMARK  status: ('A' for Active; 'I' for Inactive)
REMARK    1  A    between atoms: C_2  and  C_5
REMARK    2  A    between atoms: C_9  and  N_10
REMARK    3  A    between atoms: N_10  and  C_11
REMARK    4  A    between atoms: C_11  and  N_13
REMARK    5  A    between atoms: N_13  and  C_14
REMARK                            x       y       z     vdW  Elec       q    Type
REMARK                         _______ _______ _______ _____ _____    ______ ____
ROOT
ATOM      1  N   UNL     1       3.784   4.159  19.703  0.00  0.00    +0.000 N 
ATOM      2  H   UNL     1       4.219   3.518  20.354  0.00  0.00    +0.000 HD
ENDROOT
BRANCH   1   7
ATOM      3  C   UNL     1       6.236   5.858  17.468  0.00  0.00    +0.000 A 
ATOM      4  C   UNL     1       5.901   5.259  16.247  0.00  0.00    +0.000 A 
ATOM      5  C   UNL     1       4.882   4.308  16.184  0.00  0.00    +0.000 A 
ATOM      6  C   UNL     1       4.191   3.949  17.341  0.00  0.00    +0.000 A 
ATOM      7  C   UNL     1       4.546   4.506  18.573  0.00  0.00    +0.000 A 
ATOM      8  C   UNL     1       5.551   5.470  18.629  0.00  0.00    +0.000 A 
BRANCH   3  10
ATOM      9  F   UNL     1       8.158   6.756  18.593  0.00  0.00    +0.000 F 
ATOM     10  C   UNL     1       7.286   6.934  17.563  0.00  0.00    +0.000 C 
ATOM     11  F   UNL     1       6.754   8.176  17.732  0.00  0.00    +0.000 F 
ATOM     12  F   UNL     1       8.055   7.006  16.439  0.00  0.00    +0.000 F 
ENDBRANCH   3  10
ENDBRANCH   1   7
BRANCH   1  13
ATOM     13  C   UNL     1       2.571   4.659  20.127  0.00  0.00    +0.000 C 
ATOM     14  S   UNL     1       1.072   3.950  19.950  0.00  0.00    +0.000 S 
BRANCH  13  15
ATOM     15  N   UNL     1       2.650   5.948  20.610  0.00  0.00    +0.000 N 
ATOM     16  H   UNL     1       3.278   6.091  21.393  0.00  0.00    +0.000 HD
BRANCH  15  17
ATOM     17  C   UNL     1       2.216   7.104  19.930  0.00  0.00    +0.000 A 
ATOM     18  C   UNL     1       2.483   7.217  18.565  0.00  0.00    +0.000 A 
ATOM     19  C   UNL     1       2.064   8.353  17.866  0.00  0.00    +0.000 A 
ATOM     20  C   UNL     1       1.333   9.349  18.516  0.00  0.00    +0.000 A 
ATOM     21  C   UNL     1       1.033   9.212  19.867  0.00  0.00    +0.000 A 
ATOM     22 BR   UNL     1      -0.013  10.521  20.743  0.00  0.00    +0.000 Br
ATOM     23  C   UNL     1       1.481   8.103  20.580  0.00  0.00    +0.000 A 
ENDBRANCH  15  17
ENDBRANCH  13  15
ENDBRANCH   1  13
TORSDOF 5
ENDMDL
MODEL 5
REMARK VINA RESULT:      -7.3      4.684      6.853
REMARK  Name = 
REMARK  5 active torsions:
REMARK  status: ('A' for Active; 'I' for Inactive)
REMARK    1  A    between atoms: C_2  and  C_5
REMARK    2  A    between atoms: C_9  and  N_10
REMARK    3  A    between atoms: N_10  and  C_11
REMARK    4  A    between atoms: C_11  and  N_13
REMARK    5  A    between atoms: N_13  and  C_14
REMARK                            x       y       z     vdW  Elec       q    Type
REMARK                         _______ _______ _______ _____ _____    ______ ____
ROOT
ATOM      1  N   UNL     1       2.944   5.829  20.230  0.00  0.00    +0.000 N 
ATOM      2  H   UNL     1       3.220   5.858  21.204  0.00  0.00    +0.000 HD
ENDROOT
BRANCH   1   7
ATOM      3  C   UNL     1       1.116   9.045  19.777  0.00  0.00    +0.000 A 
ATOM      4  C   UNL     1       1.479   9.343  18.457  0.00  0.00    +0.000 A 
ATOM      5  C   UNL     1       2.319   8.485  17.747  0.00  0.00    +0.000 A 
ATOM      6  C   UNL     1       2.803   7.325  18.350  0.00  0.00    +0.000 A 
ATOM      7  C   UNL     1       2.484   7.039  19.681  0.00  0.00    +0.000 A 
ATOM      8  C   UNL     1       1.628   7.888  20.381  0.00  0.00    +0.000 A 
BRANCH   3  10
ATOM      9  F   UNL     1      -0.188   9.399  21.763  0.00  0.00    +0.000 F 
ATOM     10  C   UNL     1       0.160   9.915  20.552  0.00  0.00    +0.000 C 
ATOM     11  F   UNL     1      -1.008  10.135  19.888  0.00  0.00    +0.000 F 
ATOM     12  F   UNL     1       0.680  11.148  20.814  0.00  0.00    +0.000 F 
ENDBRANCH   3  10
ENDBRANCH   1   7
BRANCH   1  13
ATOM     13  C   UNL     1       2.963   4.567  19.675  0.00  0.00    +0.000 C 
ATOM     14  S   UNL     1       1.650   3.591  19.348  0.00  0.00    +0.000 S 
BRANCH  13  15
ATOM     15  N   UNL     1       4.233   4.053  19.530  0.00  0.00    +0.000 N 
ATOM     16  H   UNL     1       4.386   3.130  19.923  0.00  0.00    +0.000 HD
BRANCH  15  17
ATOM     17  C   UNL     1       5.208   4.523  18.629  0.00  0.00    +0.000 A 
ATOM     18  C   UNL     1       6.249   5.312  19.120  0.00  0.00    +0.000 A 
ATOM     19  C   UNL     1       7.231   5.792  18.249  0.00  0.00    +0.000 A 
ATOM     20  C   UNL     1       7.205   5.439  16.898  0.00  0.00    +0.000 A 
ATOM     21  C   UNL     1       6.189   4.618  16.420  0.00  0.00    +0.000 A 
ATOM     22 BR   UNL     1       6.180   4.079  14.608  0.00  0.00    +0.000 Br
ATOM     23  C   UNL     1       5.186   4.169  17.274  0.00  0.00    +0.000 A 
ENDBRANCH  15  17
ENDBRANCH  13  15
ENDBRANCH   1  13
TORSDOF 5
ENDMDL
MODEL 6
REMARK VINA RESULT:      -7.2      4.786      6.257
REMARK  Name = 
REMARK  5 active torsions:
REMARK  status: ('A' for Active; 'I' for Inactive)
REMARK    1  A    between atoms: C_2  and  C_5
REMARK    2  A    between atoms: C_9  and  N_10
REMARK    3  A    between atoms: N_10  and  C_11
REMARK    4  A    between atoms: C_11  and  N_13
REMARK    5  A    between atoms: N_13  and  C_14
REMARK                            x       y       z     vdW  Elec       q    Type
REMARK                         _______ _______ _______ _____ _____    ______ ____
ROOT
ATOM      1  N   UNL     1       4.711   3.317  16.899  0.00  0.00    +0.000 N 
ATOM      2  H   UNL     1       5.086   2.378  16.852  0.00  0.00    +0.000 HD
ENDROOT
BRANCH   1   7
ATOM      3  C   UNL     1       2.432   3.270  19.848  0.00  0.00    +0.000 A 
ATOM      4  C   UNL     1       1.248   3.710  19.242  0.00  0.00    +0.000 A 
ATOM      5  C   UNL     1       1.225   4.017  17.882  0.00  0.00    +0.000 A 
ATOM      6  C   UNL     1       2.383   3.887  17.117  0.00  0.00    +0.000 A 
ATOM      7  C   UNL     1       3.582   3.492  17.719  0.00  0.00    +0.000 A 
ATOM      8  C   UNL     1       3.597   3.167  19.074  0.00  0.00    +0.000 A 
BRANCH   3  10
ATOM      9  F   UNL     1       1.437   2.080  21.682  0.00  0.00    +0.000 F 
ATOM     10  C   UNL     1       2.479   2.868  21.299  0.00  0.00    +0.000 C 
ATOM     11  F   UNL     1       2.470   3.938  22.142  0.00  0.00    +0.000 F 
ATOM     12  F   UNL     1       3.605   2.163  21.603  0.00  0.00    +0.000 F 
ENDBRANCH   3  10
ENDBRANCH   1   7
BRANCH   1  13
ATOM     13  C   UNL     1       5.321   4.213  16.046  0.00  0.00    +0.000 C 
ATOM     14  S   UNL     1       6.135   3.863  14.633  0.00  0.00    +0.000 S 
BRANCH  13  15
ATOM     15  N   UNL     1       5.354   5.499  16.538  0.00  0.00    +0.000 N 
ATOM     16  H   UNL     1       4.481   6.014  16.495  0.00  0.00    +0.000 HD
BRANCH  15  17
ATOM     17  C   UNL     1       6.358   6.031  17.372  0.00  0.00    +0.000 A 
ATOM     18  C   UNL     1       6.984   5.184  18.288  0.00  0.00    +0.000 A 
ATOM     19  C   UNL     1       7.984   5.684  19.128  0.00  0.00    +0.000 A 
ATOM     20  C   UNL     1       8.397   7.013  19.016  0.00  0.00    +0.000 A 
ATOM     21  C   UNL     1       7.799   7.842  18.071  0.00  0.00    +0.000 A 
ATOM     22 BR   UNL     1       8.395   9.624  17.864  0.00  0.00    +0.000 Br
ATOM     23  C   UNL     1       6.775   7.363  17.260  0.00  0.00    +0.000 A 
ENDBRANCH  15  17
ENDBRANCH  13  15
ENDBRANCH   1  13
TORSDOF 5
ENDMDL
MODEL 7
REMARK VINA RESULT:      -7.2      2.570      3.746
REMARK  Name = 
REMARK  5 active torsions:
REMARK  status: ('A' for Active; 'I' for Inactive)
REMARK    1  A    between atoms: C_2  and  C_5
REMARK    2  A    between atoms: C_9  and  N_10
REMARK    3  A    between atoms: N_10  and  C_11
REMARK    4  A    between atoms: C_11  and  N_13
REMARK    5  A    between atoms: N_13  and  C_14
REMARK                            x       y       z     vdW  Elec       q    Type
REMARK                         _______ _______ _______ _____ _____    ______ ____
ROOT
ATOM      1  N   UNL     1       4.092   6.331  18.646  0.00  0.00    +0.000 N 
ATOM      2  H   UNL     1       4.137   6.407  19.654  0.00  0.00    +0.000 HD
ENDROOT
BRANCH   1   7
ATOM      3  C   UNL     1       6.384   4.930  16.063  0.00  0.00    +0.000 A 
ATOM      4  C   UNL     1       7.503   4.656  16.859  0.00  0.00    +0.000 A 
ATOM      5  C   UNL     1       7.483   4.942  18.224  0.00  0.00    +0.000 A 
ATOM      6  C   UNL     1       6.346   5.503  18.803  0.00  0.00    +0.000 A 
ATOM      7  C   UNL     1       5.239   5.822  18.012  0.00  0.00    +0.000 A 
ATOM      8  C   UNL     1       5.254   5.517  16.652  0.00  0.00    +0.000 A 
BRANCH   3  10
ATOM      9  F   UNL     1       6.402   3.237  14.359  0.00  0.00    +0.000 F 
ATOM     10  C   UNL     1       6.345   4.576  14.598  0.00  0.00    +0.000 C 
ATOM     11  F   UNL     1       7.375   5.127  13.897  0.00  0.00    +0.000 F 
ATOM     12  F   UNL     1       5.205   5.011  13.992  0.00  0.00    +0.000 F 
ENDBRANCH   3  10
ENDBRANCH   1   7
BRANCH   1  13
ATOM     13  C   UNL     1       2.947   6.862  18.090  0.00  0.00    +0.000 C 
ATOM     14  S   UNL     1       2.591   8.476  17.866  0.00  0.00    +0.000 S 
BRANCH  13  15
ATOM     15  N   UNL     1       1.971   5.920  17.846  0.00  0.00    +0.000 N 
ATOM     16  H   UNL     1       1.324   6.135  17.095  0.00  0.00    +0.000 HD
BRANCH  15  17
ATOM     17  C   UNL     1       1.990   4.586  18.298  0.00  0.00    +0.000 A 
ATOM     18  C   UNL     1       2.302   3.575  17.387  0.00  0.00    +0.000 A 
ATOM     19  C   UNL     1       2.330   2.242  17.809  0.00  0.00    +0.000 A 
ATOM     20  C   UNL     1       2.100   1.923  19.149  0.00  0.00    +0.000 A 
ATOM     21  C   UNL     1       1.832   2.938  20.062  0.00  0.00    +0.000 A 
ATOM     22 BR   UNL     1       1.587   2.526  21.890  0.00  0.00    +0.000 Br
ATOM     23  C   UNL     1       1.763   4.264  19.642  0.00  0.00    +0.000 A 
ENDBRANCH  15  17
ENDBRANCH  13  15
ENDBRANCH   1  13
TORSDOF 5
ENDMDL
MODEL 8
REMARK VINA RESULT:      -7.1      1.122      1.280
REMARK  Name = 
REMARK  5 active torsions:
REMARK  status: ('A' for Active; 'I' for Inactive)
REMARK    1  A    between atoms: C_2  and  C_5
REMARK    2  A    between atoms: C_9  and  N_10
REMARK    3  A    between atoms: N_10  and  C_11
REMARK    4  A    between atoms: C_11  and  N_13
REMARK    5  A    between atoms: N_13  and  C_14
REMARK                            x       y       z     vdW  Elec       q    Type
REMARK                         _______ _______ _______ _____ _____    ______ ____
ROOT
ATOM      1  N   UNL     1       4.692   3.802  19.526  0.00  0.00    +0.000 N 
ATOM      2  H   UNL     1       4.960   3.786  20.502  0.00  0.00    +0.000 HD
ENDROOT
BRANCH   1   7
ATOM      3  C   UNL     1       6.432   5.013  16.460  0.00  0.00    +0.000 A 
ATOM      4  C   UNL     1       7.344   5.904  17.039  0.00  0.00    +0.000 A 
ATOM      5  C   UNL     1       7.366   6.092  18.421  0.00  0.00    +0.000 A 
ATOM      6  C   UNL     1       6.476   5.391  19.235  0.00  0.00    +0.000 A 
ATOM      7  C   UNL     1       5.530   4.533  18.665  0.00  0.00    +0.000 A 
ATOM      8  C   UNL     1       5.525   4.332  17.286  0.00  0.00    +0.000 A 
BRANCH   3  10
ATOM      9  F   UNL     1       7.556   5.139  14.342  0.00  0.00    +0.000 F 
ATOM     10  C   UNL     1       6.423   4.737  14.979  0.00  0.00    +0.000 C 
ATOM     11  F   UNL     1       5.392   5.353  14.335  0.00  0.00    +0.000 F 
ATOM     12  F   UNL     1       6.296   3.409  14.702  0.00  0.00    +0.000 F 
ENDBRANCH   3  10
ENDBRANCH   1   7
BRANCH   1  13
ATOM     13  C   UNL     1       3.481   3.196  19.262  0.00  0.00    +0.000 C 
ATOM     14  S   UNL     1       3.227   1.774  18.430  0.00  0.00    +0.000 S 
BRANCH  13  15
ATOM     15  N   UNL     1       2.396   3.967  19.619  0.00  0.00    +0.000 N 
ATOM     16  H   UNL     1       1.745   3.543  20.271  0.00  0.00    +0.000 HD
BRANCH  15  17
ATOM     17  C   UNL     1       2.287   5.360  19.436  0.00  0.00    +0.000 A 
ATOM     18  C   UNL     1       2.484   5.885  18.158  0.00  0.00    +0.000 A 
ATOM     19  C   UNL     1       2.380   7.263  17.948  0.00  0.00    +0.000 A 
ATOM     20  C   UNL     1       2.027   8.111  19.000  0.00  0.00    +0.000 A 
ATOM     21  C   UNL     1       1.791   7.578  20.263  0.00  0.00    +0.000 A 
ATOM     22 BR   UNL     1       1.247   8.706  21.679  0.00  0.00    +0.000 Br
ATOM     23  C   UNL     1       1.931   6.212  20.489  0.00  0.00    +0.000 A 
ENDBRANCH  15  17
ENDBRANCH  13  15
ENDBRANCH   1  13
TORSDOF 5
ENDMDL
MODEL 9
REMARK VINA RESULT:      -7.1      4.630      6.736
REMARK  Name = 
REMARK  5 active torsions:
REMARK  status: ('A' for Active; 'I' for Inactive)
REMARK    1  A    between atoms: C_2  and  C_5
REMARK    2  A    between atoms: C_9  and  N_10
REMARK    3  A    between atoms: N_10  and  C_11
REMARK    4  A    between atoms: C_11  and  N_13
REMARK    5  A    between atoms: N_13  and  C_14
REMARK                            x       y       z     vdW  Elec       q    Type
REMARK                         _______ _______ _______ _____ _____    ______ ____
ROOT
ATOM      1  N   UNL     1       2.808   6.019  20.267  0.00  0.00    +0.000 N 
ATOM      2  H   UNL     1       3.319   6.086  21.138  0.00  0.00    +0.000 HD
ENDROOT
BRANCH   1   7
ATOM      3  C   UNL     1       0.980   9.250  19.940  0.00  0.00    +0.000 A 
ATOM      4  C   UNL     1       1.221   9.525  18.588  0.00  0.00    +0.000 A 
ATOM      5  C   UNL     1       1.982   8.648  17.815  0.00  0.00    +0.000 A 
ATOM      6  C   UNL     1       2.507   7.490  18.387  0.00  0.00    +0.000 A 
ATOM      7  C   UNL     1       2.312   7.227  19.746  0.00  0.00    +0.000 A 
ATOM      8  C   UNL     1       1.534   8.095  20.510  0.00  0.00    +0.000 A 
BRANCH   3  10
ATOM      9  F   UNL     1      -0.271   9.572  21.965  0.00  0.00    +0.000 F 
ATOM     10  C   UNL     1       0.110  10.141  20.789  0.00  0.00    +0.000 C 
ATOM     11  F   UNL     1      -1.041  10.507  20.159  0.00  0.00    +0.000 F 
ATOM     12  F   UNL     1       0.737  11.303  21.128  0.00  0.00    +0.000 F 
ENDBRANCH   3  10
ENDBRANCH   1   7
BRANCH   1  13
ATOM     13  C   UNL     1       2.600   4.727  19.832  0.00  0.00    +0.000 C 
ATOM     14  S   UNL     1       1.187   3.847  19.930  0.00  0.00    +0.000 S 
BRANCH  13  15
ATOM     15  N   UNL     1       3.753   4.098  19.416  0.00  0.00    +0.000 N 
ATOM     16  H   UNL     1       3.896   3.155  19.763  0.00  0.00    +0.000 HD
BRANCH  15  17
ATOM     17  C   UNL     1       4.555   4.496  18.328  0.00  0.00    +0.000 A 
ATOM     18  C   UNL     1       4.329   3.912  17.081  0.00  0.00    +0.000 A 
ATOM     19  C   UNL     1       5.109   4.289  15.983  0.00  0.00    +0.000 A 
ATOM     20  C   UNL     1       6.077   5.286  16.118  0.00  0.00    +0.000 A 
ATOM     21  C   UNL     1       6.270   5.895  17.354  0.00  0.00    +0.000 A 
ATOM     22 BR   UNL     1       7.531   7.293  17.533  0.00  0.00    +0.000 Br
ATOM     23  C   UNL     1       5.525   5.498  18.460  0.00  0.00    +0.000 A 
ENDBRANCH  15  17
ENDBRANCH  13  15
ENDBRANCH   1  13
TORSDOF 5
ENDMDL
