MODEL 1
REMARK VINA RESULT:      -8.7      0.000      0.000
REMARK  Name = 
REMARK  6 active torsions:
REMARK  status: ('A' for Active; 'I' for Inactive)
REMARK    1  A    between atoms: C_1  and  C_2
REMARK    2  A    between atoms: C_5  and  C_6
REMARK    3  A    between atoms: C_8  and  C_9
REMARK    4  A    between atoms: C_15  and  C_16
REMARK    5  A    between atoms: N_18  and  C_19
REMARK    6  A    between atoms: C_24  and  C_25
REMARK                            x       y       z     vdW  Elec       q    Type
REMARK                         _______ _______ _______ _____ _____    ______ ____
ROOT
ATOM      1  C   UNL     1      -1.904  12.659  21.033  0.00  0.00    +0.000 A 
ATOM      2  C   UNL     1      -2.787  12.414  19.854  0.00  0.00    +0.000 A 
ATOM      3  C   UNL     1      -2.315  11.586  18.911  0.00  0.00    +0.000 A 
ATOM      4  N   UNL     1      -1.071  10.994  19.086  0.00  0.00    +0.000 N 
ATOM      5  N   UNL     1      -0.412  10.142  18.247  0.00  0.00    +0.000 NA
ATOM      6  C   UNL     1       0.741   9.853  18.833  0.00  0.00    +0.000 A 
ATOM      7  C   UNL     1       0.846  10.507  20.096  0.00  0.00    +0.000 A 
ATOM      8  C   UNL     1      -0.311  11.246  20.226  0.00  0.00    +0.000 A 
ATOM      9  N   UNL     1      -0.738  12.095  21.211  0.00  0.00    +0.000 NA
ENDROOT
BRANCH   1  14
ATOM     10  C   UNL     1      -3.968  16.361  24.976  0.00  0.00    +0.000 C 
ATOM     11  C   UNL     1      -3.433  15.403  23.953  0.00  0.00    +0.000 A 
ATOM     12  C   UNL     1      -4.170  15.100  22.799  0.00  0.00    +0.000 A 
ATOM     13  C   UNL     1      -3.665  14.213  21.851  0.00  0.00    +0.000 A 
ATOM     14  C   UNL     1      -2.415  13.618  22.044  0.00  0.00    +0.000 A 
ATOM     15  C   UNL     1      -1.676  13.920  23.193  0.00  0.00    +0.000 A 
ATOM     16  C   UNL     1      -2.182  14.805  24.140  0.00  0.00    +0.000 A 
ENDBRANCH   1  14
BRANCH   3  17
ATOM     17  C   UNL     1      -3.037  11.298  17.650  0.00  0.00    +0.000 C 
ATOM     18  F   UNL     1      -2.356  11.583  16.513  0.00  0.00    +0.000 F 
ATOM     19  F   UNL     1      -3.394   9.988  17.555  0.00  0.00    +0.000 F 
ATOM     20  F   UNL     1      -4.197  12.007  17.577  0.00  0.00    +0.000 F 
ENDBRANCH   3  17
BRANCH   6  21
ATOM     21  C   UNL     1       1.728   8.972  18.174  0.00  0.00    +0.000 C 
ATOM     22  O   UNL     1       2.292   9.362  17.161  0.00  0.00    +0.000 OA
ATOM     23  N   UNL     1       1.896   7.704  18.734  0.00  0.00    +0.000 N 
ATOM     24  H   UNL     1       1.220   7.441  19.449  0.00  0.00    +0.000 HD
BRANCH  23  25
ATOM     25  C   UNL     1       2.774   6.721  18.230  0.00  0.00    +0.000 A 
ATOM     26  C   UNL     1       3.931   7.056  17.517  0.00  0.00    +0.000 A 
ATOM     27  C   UNL     1       4.739   6.073  16.961  0.00  0.00    +0.000 A 
ATOM     28  C   UNL     1       4.421   4.722  17.105  0.00  0.00    +0.000 A 
ATOM     29 CL   UNL     1       5.502   3.613  16.346  0.00  0.00    +0.000 Cl
ATOM     30  C   UNL     1       3.269   4.348  17.826  0.00  0.00    +0.000 A 
ATOM     31  C   UNL     1       2.483   5.361  18.413  0.00  0.00    +0.000 A 
BRANCH  30  32
ATOM     32  C   UNL     1       2.852   2.904  17.984  0.00  0.00    +0.000 C 
ATOM     33  F   UNL     1       1.742   2.702  18.733  0.00  0.00    +0.000 F 
ATOM     34  F   UNL     1       2.592   2.318  16.777  0.00  0.00    +0.000 F 
ATOM     35  F   UNL     1       3.814   2.126  18.558  0.00  0.00    +0.000 F 
ENDBRANCH  30  32
ENDBRANCH  23  25
ENDBRANCH   6  21
TORSDOF 5
ENDMDL
MODEL 2
REMARK VINA RESULT:      -8.7      0.831      1.117
REMARK  Name = 
REMARK  6 active torsions:
REMARK  status: ('A' for Active; 'I' for Inactive)
REMARK    1  A    between atoms: C_1  and  C_2
REMARK    2  A    between atoms: C_5  and  C_6
REMARK    3  A    between atoms: C_8  and  C_9
REMARK    4  A    between atoms: C_15  and  C_16
REMARK    5  A    between atoms: N_18  and  C_19
REMARK    6  A    between atoms: C_24  and  C_25
REMARK                            x       y       z     vdW  Elec       q    Type
REMARK                         _______ _______ _______ _____ _____    ______ ____
ROOT
ATOM      1  C   UNL     1      -2.701  12.431  20.451  0.00  0.00    +0.000 A 
ATOM      2  C   UNL     1      -3.385  12.121  19.161  0.00  0.00    +0.000 A 
ATOM      3  C   UNL     1      -2.712  11.352  18.293  0.00  0.00    +0.000 A 
ATOM      4  N   UNL     1      -1.454  10.876  18.639  0.00  0.00    +0.000 N 
ATOM      5  N   UNL     1      -0.610  10.099  17.900  0.00  0.00    +0.000 NA
ATOM      6  C   UNL     1       0.473   9.909  18.641  0.00  0.00    +0.000 A 
ATOM      7  C   UNL     1       0.341  10.555  19.906  0.00  0.00    +0.000 A 
ATOM      8  C   UNL     1      -0.887  11.181  19.874  0.00  0.00    +0.000 A 
ATOM      9  N   UNL     1      -1.524  11.975  20.789  0.00  0.00    +0.000 NA
ENDROOT
BRANCH   1  14
ATOM     10  C   UNL     1      -5.629  15.882  24.061  0.00  0.00    +0.000 C 
ATOM     11  C   UNL     1      -4.869  14.990  23.124  0.00  0.00    +0.000 A 
ATOM     12  C   UNL     1      -5.336  14.751  21.824  0.00  0.00    +0.000 A 
ATOM     13  C   UNL     1      -4.624  13.925  20.957  0.00  0.00    +0.000 A 
ATOM     14  C   UNL     1      -3.434  13.326  21.381  0.00  0.00    +0.000 A 
ATOM     15  C   UNL     1      -2.964  13.564  22.677  0.00  0.00    +0.000 A 
ATOM     16  C   UNL     1      -3.677  14.389  23.542  0.00  0.00    +0.000 A 
ENDBRANCH   1  14
BRANCH   3  17
ATOM     17  C   UNL     1      -3.223  11.015  16.943  0.00  0.00    +0.000 C 
ATOM     18  F   UNL     1      -2.420  11.374  15.913  0.00  0.00    +0.000 F 
ATOM     19  F   UNL     1      -3.442   9.679  16.801  0.00  0.00    +0.000 F 
ATOM     20  F   UNL     1      -4.422  11.617  16.709  0.00  0.00    +0.000 F 
ENDBRANCH   3  17
BRANCH   6  21
ATOM     21  C   UNL     1       1.619   9.132  18.125  0.00  0.00    +0.000 C 
ATOM     22  O   UNL     1       2.340   9.629  17.270  0.00  0.00    +0.000 OA
ATOM     23  N   UNL     1       1.756   7.832  18.617  0.00  0.00    +0.000 N 
ATOM     24  H   UNL     1       0.975   7.482  19.167  0.00  0.00    +0.000 HD
BRANCH  23  25
ATOM     25  C   UNL     1       2.772   6.935  18.226  0.00  0.00    +0.000 A 
ATOM     26  C   UNL     1       3.873   7.348  17.464  0.00  0.00    +0.000 A 
ATOM     27  C   UNL     1       4.820   6.434  17.022  0.00  0.00    +0.000 A 
ATOM     28  C   UNL     1       4.703   5.079  17.330  0.00  0.00    +0.000 A 
ATOM     29 CL   UNL     1       5.940   4.057  16.699  0.00  0.00    +0.000 Cl
ATOM     30  C   UNL     1       3.614   4.630  18.104  0.00  0.00    +0.000 A 
ATOM     31  C   UNL     1       2.683   5.579  18.574  0.00  0.00    +0.000 A 
BRANCH  30  32
ATOM     32  C   UNL     1       3.412   3.170  18.439  0.00  0.00    +0.000 C 
ATOM     33  F   UNL     1       4.414   2.596  19.147  0.00  0.00    +0.000 F 
ATOM     34  F   UNL     1       2.279   2.972  19.178  0.00  0.00    +0.000 F 
ATOM     35  F   UNL     1       3.261   2.381  17.337  0.00  0.00    +0.000 F 
ENDBRANCH  30  32
ENDBRANCH  23  25
ENDBRANCH   6  21
TORSDOF 5
ENDMDL
MODEL 3
REMARK VINA RESULT:      -8.7      0.532      1.264
REMARK  Name = 
REMARK  6 active torsions:
REMARK  status: ('A' for Active; 'I' for Inactive)
REMARK    1  A    between atoms: C_1  and  C_2
REMARK    2  A    between atoms: C_5  and  C_6
REMARK    3  A    between atoms: C_8  and  C_9
REMARK    4  A    between atoms: C_15  and  C_16
REMARK    5  A    between atoms: N_18  and  C_19
REMARK    6  A    between atoms: C_24  and  C_25
REMARK                            x       y       z     vdW  Elec       q    Type
REMARK                         _______ _______ _______ _____ _____    ______ ____
ROOT
ATOM      1  C   UNL     1      -2.378  12.707  20.811  0.00  0.00    +0.000 A 
ATOM      2  C   UNL     1      -3.192  12.394  19.598  0.00  0.00    +0.000 A 
ATOM      3  C   UNL     1      -2.635  11.573  18.696  0.00  0.00    +0.000 A 
ATOM      4  N   UNL     1      -1.372  11.050  18.940  0.00  0.00    +0.000 N 
ATOM      5  N   UNL     1      -0.633  10.217  18.150  0.00  0.00    +0.000 NA
ATOM      6  C   UNL     1       0.505   9.999  18.794  0.00  0.00    +0.000 A 
ATOM      7  C   UNL     1       0.518  10.682  20.046  0.00  0.00    +0.000 A 
ATOM      8  C   UNL     1      -0.680  11.362  20.108  0.00  0.00    +0.000 A 
ATOM      9  N   UNL     1      -1.195  12.207  21.054  0.00  0.00    +0.000 NA
ENDROOT
BRANCH   1  14
ATOM     10  C   UNL     1      -4.674  16.411  24.621  0.00  0.00    +0.000 C 
ATOM     11  C   UNL     1      -4.081  15.449  23.634  0.00  0.00    +0.000 A 
ATOM     12  C   UNL     1      -3.481  14.258  24.065  0.00  0.00    +0.000 A 
ATOM     13  C   UNL     1      -2.936  13.367  23.143  0.00  0.00    +0.000 A 
ATOM     14  C   UNL     1      -2.984  13.657  21.776  0.00  0.00    +0.000 A 
ATOM     15  C   UNL     1      -3.584  14.845  21.342  0.00  0.00    +0.000 A 
ATOM     16  C   UNL     1      -4.127  15.734  22.265  0.00  0.00    +0.000 A 
ENDBRANCH   1  14
BRANCH   3  17
ATOM     17  C   UNL     1      -3.282  11.224  17.410  0.00  0.00    +0.000 C 
ATOM     18  F   UNL     1      -3.610   9.918  17.260  0.00  0.00    +0.000 F 
ATOM     19  F   UNL     1      -4.432  11.925  17.212  0.00  0.00    +0.000 F 
ATOM     20  F   UNL     1      -2.474  11.528  16.357  0.00  0.00    +0.000 F 
ENDBRANCH   3  17
BRANCH   6  21
ATOM     21  C   UNL     1       1.565   9.158  18.200  0.00  0.00    +0.000 C 
ATOM     22  O   UNL     1       2.249   9.613  17.294  0.00  0.00    +0.000 OA
ATOM     23  N   UNL     1       1.662   7.852  18.684  0.00  0.00    +0.000 N 
ATOM     24  H   UNL     1       0.904   7.546  19.291  0.00  0.00    +0.000 HD
BRANCH  23  25
ATOM     25  C   UNL     1       2.595   6.899  18.224  0.00  0.00    +0.000 A 
ATOM     26  C   UNL     1       3.760   7.271  17.542  0.00  0.00    +0.000 A 
ATOM     27  C   UNL     1       4.625   6.314  17.027  0.00  0.00    +0.000 A 
ATOM     28  C   UNL     1       4.357   4.954  17.180  0.00  0.00    +0.000 A 
ATOM     29 CL   UNL     1       5.506   3.879  16.473  0.00  0.00    +0.000 Cl
ATOM     30  C   UNL     1       3.199   4.543  17.871  0.00  0.00    +0.000 A 
ATOM     31  C   UNL     1       2.354   5.531  18.417  0.00  0.00    +0.000 A 
BRANCH  30  32
ATOM     32  C   UNL     1       2.835   3.086  18.037  0.00  0.00    +0.000 C 
ATOM     33  F   UNL     1       2.559   2.424  16.888  0.00  0.00    +0.000 F 
ATOM     34  F   UNL     1       3.841   2.379  18.636  0.00  0.00    +0.000 F 
ATOM     35  F   UNL     1       1.742   2.891  18.830  0.00  0.00    +0.000 F 
ENDBRANCH  30  32
ENDBRANCH  23  25
ENDBRANCH   6  21
TORSDOF 5
ENDMDL
MODEL 4
REMARK VINA RESULT:      -8.6      1.028      1.464
REMARK  Name = 
REMARK  6 active torsions:
REMARK  status: ('A' for Active; 'I' for Inactive)
REMARK    1  A    between atoms: C_1  and  C_2
REMARK    2  A    between atoms: C_5  and  C_6
REMARK    3  A    between atoms: C_8  and  C_9
REMARK    4  A    between atoms: C_15  and  C_16
REMARK    5  A    between atoms: N_18  and  C_19
REMARK    6  A    between atoms: C_24  and  C_25
REMARK                            x       y       z     vdW  Elec       q    Type
REMARK                         _______ _______ _______ _____ _____    ______ ____
ROOT
ATOM      1  C   UNL     1      -2.898  12.299  20.220  0.00  0.00    +0.000 A 
ATOM      2  C   UNL     1      -3.520  11.962  18.905  0.00  0.00    +0.000 A 
ATOM      3  C   UNL     1      -2.784  11.219  18.065  0.00  0.00    +0.000 A 
ATOM      4  N   UNL     1      -1.523  10.793  18.460  0.00  0.00    +0.000 N 
ATOM      5  N   UNL     1      -0.620  10.049  17.756  0.00  0.00    +0.000 NA
ATOM      6  C   UNL     1       0.439   9.902  18.538  0.00  0.00    +0.000 A 
ATOM      7  C   UNL     1       0.234  10.543  19.796  0.00  0.00    +0.000 A 
ATOM      8  C   UNL     1      -1.016  11.121  19.715  0.00  0.00    +0.000 A 
ATOM      9  N   UNL     1      -1.718  11.890  20.604  0.00  0.00    +0.000 NA
ENDROOT
BRANCH   1  14
ATOM     10  C   UNL     1      -5.967  15.726  23.734  0.00  0.00    +0.000 C 
ATOM     11  C   UNL     1      -5.172  14.836  22.824  0.00  0.00    +0.000 A 
ATOM     12  C   UNL     1      -3.880  14.422  23.177  0.00  0.00    +0.000 A 
ATOM     13  C   UNL     1      -3.148  13.592  22.330  0.00  0.00    +0.000 A 
ATOM     14  C   UNL     1      -3.701  13.165  21.119  0.00  0.00    +0.000 A 
ATOM     15  C   UNL     1      -4.992  13.575  20.765  0.00  0.00    +0.000 A 
ATOM     16  C   UNL     1      -5.720  14.404  21.612  0.00  0.00    +0.000 A 
ENDBRANCH   1  14
BRANCH   3  17
ATOM     17  C   UNL     1      -3.229  10.861  16.698  0.00  0.00    +0.000 C 
ATOM     18  F   UNL     1      -2.430  11.298  15.695  0.00  0.00    +0.000 F 
ATOM     19  F   UNL     1      -3.335   9.514  16.533  0.00  0.00    +0.000 F 
ATOM     20  F   UNL     1      -4.465  11.368  16.437  0.00  0.00    +0.000 F 
ENDBRANCH   3  17
BRANCH   6  21
ATOM     21  C   UNL     1       1.634   9.171  18.068  0.00  0.00    +0.000 C 
ATOM     22  O   UNL     1       2.388   9.710  17.269  0.00  0.00    +0.000 OA
ATOM     23  N   UNL     1       1.780   7.862  18.533  0.00  0.00    +0.000 N 
ATOM     24  H   UNL     1       0.979   7.475  19.029  0.00  0.00    +0.000 HD
BRANCH  23  25
ATOM     25  C   UNL     1       2.841   7.003  18.177  0.00  0.00    +0.000 A 
ATOM     26  C   UNL     1       3.916   7.439  17.393  0.00  0.00    +0.000 A 
ATOM     27  C   UNL     1       4.910   6.558  16.987  0.00  0.00    +0.000 A 
ATOM     28  C   UNL     1       4.865   5.213  17.355  0.00  0.00    +0.000 A 
ATOM     29 CL   UNL     1       6.154   4.231  16.764  0.00  0.00    +0.000 Cl
ATOM     30  C   UNL     1       3.803   4.742  18.153  0.00  0.00    +0.000 A 
ATOM     31  C   UNL     1       2.825   5.662  18.585  0.00  0.00    +0.000 A 
BRANCH  30  32
ATOM     32  C   UNL     1       3.681   3.290  18.554  0.00  0.00    +0.000 C 
ATOM     33  F   UNL     1       2.572   2.979  19.266  0.00  0.00    +0.000 F 
ATOM     34  F   UNL     1       3.661   2.465  17.464  0.00  0.00    +0.000 F 
ATOM     35  F   UNL     1       4.725   2.851  19.314  0.00  0.00    +0.000 F 
ENDBRANCH  30  32
ENDBRANCH  23  25
ENDBRANCH   6  21
TORSDOF 5
ENDMDL
MODEL 5
REMARK VINA RESULT:      -8.6      1.799      2.420
REMARK  Name = 
REMARK  6 active torsions:
REMARK  status: ('A' for Active; 'I' for Inactive)
REMARK    1  A    between atoms: C_1  and  C_2
REMARK    2  A    between atoms: C_5  and  C_6
REMARK    3  A    between atoms: C_8  and  C_9
REMARK    4  A    between atoms: C_15  and  C_16
REMARK    5  A    between atoms: N_18  and  C_19
REMARK    6  A    between atoms: C_24  and  C_25
REMARK                            x       y       z     vdW  Elec       q    Type
REMARK                         _______ _______ _______ _____ _____    ______ ____
ROOT
ATOM      1  C   UNL     1      -1.759  12.532  21.034  0.00  0.00    +0.000 A 
ATOM      2  C   UNL     1      -2.653  12.296  19.861  0.00  0.00    +0.000 A 
ATOM      3  C   UNL     1      -2.185  11.483  18.903  0.00  0.00    +0.000 A 
ATOM      4  N   UNL     1      -0.936  10.898  19.056  0.00  0.00    +0.000 N 
ATOM      5  N   UNL     1      -0.280  10.062  18.199  0.00  0.00    +0.000 NA
ATOM      6  C   UNL     1       0.880   9.772  18.769  0.00  0.00    +0.000 A 
ATOM      7  C   UNL     1       0.996  10.411  20.038  0.00  0.00    +0.000 A 
ATOM      8  C   UNL     1      -0.166  11.140  20.191  0.00  0.00    +0.000 A 
ATOM      9  N   UNL     1      -0.587  11.974  21.191  0.00  0.00    +0.000 NA
ENDROOT
BRANCH   1  14
ATOM     10  C   UNL     1      -3.665  16.249  25.041  0.00  0.00    +0.000 C 
ATOM     11  C   UNL     1      -3.172  15.283  24.004  0.00  0.00    +0.000 A 
ATOM     12  C   UNL     1      -1.904  14.696  24.117  0.00  0.00    +0.000 A 
ATOM     13  C   UNL     1      -1.453  13.797  23.153  0.00  0.00    +0.000 A 
ATOM     14  C   UNL     1      -2.265  13.474  22.062  0.00  0.00    +0.000 A 
ATOM     15  C   UNL     1      -3.533  14.057  21.947  0.00  0.00    +0.000 A 
ATOM     16  C   UNL     1      -3.981  14.955  22.911  0.00  0.00    +0.000 A 
ENDBRANCH   1  14
BRANCH   3  17
ATOM     17  C   UNL     1      -2.920  11.206  17.645  0.00  0.00    +0.000 C 
ATOM     18  F   UNL     1      -2.260  11.526  16.506  0.00  0.00    +0.000 F 
ATOM     19  F   UNL     1      -3.254   9.892  17.530  0.00  0.00    +0.000 F 
ATOM     20  F   UNL     1      -4.094  11.895  17.603  0.00  0.00    +0.000 F 
ENDBRANCH   3  17
BRANCH   6  21
ATOM     21  C   UNL     1       1.866   8.907  18.087  0.00  0.00    +0.000 C 
ATOM     22  O   UNL     1       2.438   9.326  17.090  0.00  0.00    +0.000 OA
ATOM     23  N   UNL     1       2.024   7.621  18.608  0.00  0.00    +0.000 N 
ATOM     24  H   UNL     1       1.344   7.341  19.311  0.00  0.00    +0.000 HD
BRANCH  23  25
ATOM     25  C   UNL     1       2.900   6.649  18.079  0.00  0.00    +0.000 A 
ATOM     26  C   UNL     1       2.493   5.328  17.856  0.00  0.00    +0.000 A 
ATOM     27  C   UNL     1       3.391   4.368  17.410  0.00  0.00    +0.000 A 
ATOM     28  C   UNL     1       4.725   4.697  17.167  0.00  0.00    +0.000 A 
ATOM     29 CL   UNL     1       5.731   3.400  16.637  0.00  0.00    +0.000 Cl
ATOM     30  C   UNL     1       5.166   6.019  17.371  0.00  0.00    +0.000 A 
ATOM     31  C   UNL     1       4.229   6.987  17.789  0.00  0.00    +0.000 A 
BRANCH  30  32
ATOM     32  C   UNL     1       6.606   6.428  17.161  0.00  0.00    +0.000 C 
ATOM     33  F   UNL     1       6.842   7.761  17.212  0.00  0.00    +0.000 F 
ATOM     34  F   UNL     1       7.432   5.873  18.099  0.00  0.00    +0.000 F 
ATOM     35  F   UNL     1       7.110   6.025  15.959  0.00  0.00    +0.000 F 
ENDBRANCH  30  32
ENDBRANCH  23  25
ENDBRANCH   6  21
TORSDOF 5
ENDMDL
MODEL 6
REMARK VINA RESULT:      -8.5      1.942      2.472
REMARK  Name = 
REMARK  6 active torsions:
REMARK  status: ('A' for Active; 'I' for Inactive)
REMARK    1  A    between atoms: C_1  and  C_2
REMARK    2  A    between atoms: C_5  and  C_6
REMARK    3  A    between atoms: C_8  and  C_9
REMARK    4  A    between atoms: C_15  and  C_16
REMARK    5  A    between atoms: N_18  and  C_19
REMARK    6  A    between atoms: C_24  and  C_25
REMARK                            x       y       z     vdW  Elec       q    Type
REMARK                         _______ _______ _______ _____ _____    ______ ____
ROOT
ATOM      1  C   UNL     1      -1.289  12.394  21.501  0.00  0.00    +0.000 A 
ATOM      2  C   UNL     1      -2.264  12.269  20.377  0.00  0.00    +0.000 A 
ATOM      3  C   UNL     1      -1.900  11.486  19.351  0.00  0.00    +0.000 A 
ATOM      4  N   UNL     1      -0.677  10.830  19.395  0.00  0.00    +0.000 N 
ATOM      5  N   UNL     1      -0.122  10.008  18.457  0.00  0.00    +0.000 NA
ATOM      6  C   UNL     1       1.053   9.629  18.937  0.00  0.00    +0.000 A 
ATOM      7  C   UNL     1       1.280  10.191  20.228  0.00  0.00    +0.000 A 
ATOM      8  C   UNL     1       0.172  10.970  20.490  0.00  0.00    +0.000 A 
ATOM      9  N   UNL     1      -0.143  11.769  21.556  0.00  0.00    +0.000 NA
ENDROOT
BRANCH   1  14
ATOM     10  C   UNL     1      -2.835  15.881  25.856  0.00  0.00    +0.000 C 
ATOM     11  C   UNL     1      -2.436  14.979  24.726  0.00  0.00    +0.000 A 
ATOM     12  C   UNL     1      -3.295  13.965  24.280  0.00  0.00    +0.000 A 
ATOM     13  C   UNL     1      -2.920  13.132  23.228  0.00  0.00    +0.000 A 
ATOM     14  C   UNL     1      -1.680  13.304  22.606  0.00  0.00    +0.000 A 
ATOM     15  C   UNL     1      -0.821  14.318  23.047  0.00  0.00    +0.000 A 
ATOM     16  C   UNL     1      -1.196  15.147  24.099  0.00  0.00    +0.000 A 
ENDBRANCH   1  14
BRANCH   3  17
ATOM     17  C   UNL     1      -2.723  11.316  18.130  0.00  0.00    +0.000 C 
ATOM     18  F   UNL     1      -3.058  10.038  17.829  0.00  0.00    +0.000 F 
ATOM     19  F   UNL     1      -3.895  12.004  18.207  0.00  0.00    +0.000 F 
ATOM     20  F   UNL     1      -2.077  11.801  17.034  0.00  0.00    +0.000 F 
ENDBRANCH   3  17
BRANCH   6  21
ATOM     21  C   UNL     1       1.947   8.752  18.152  0.00  0.00    +0.000 C 
ATOM     22  O   UNL     1       2.310   9.112  17.040  0.00  0.00    +0.000 OA
ATOM     23  N   UNL     1       2.264   7.519  18.726  0.00  0.00    +0.000 N 
ATOM     24  H   UNL     1       1.735   7.268  19.559  0.00  0.00    +0.000 HD
BRANCH  23  25
ATOM     25  C   UNL     1       3.082   6.544  18.117  0.00  0.00    +0.000 A 
ATOM     26  C   UNL     1       2.616   5.251  17.845  0.00  0.00    +0.000 A 
ATOM     27  C   UNL     1       3.461   4.282  17.320  0.00  0.00    +0.000 A 
ATOM     28  C   UNL     1       4.797   4.574  17.044  0.00  0.00    +0.000 A 
ATOM     29 CL   UNL     1       5.734   3.270  16.414  0.00  0.00    +0.000 Cl
ATOM     30  C   UNL     1       5.296   5.867  17.295  0.00  0.00    +0.000 A 
ATOM     31  C   UNL     1       4.412   6.846  17.794  0.00  0.00    +0.000 A 
BRANCH  30  32
ATOM     32  C   UNL     1       6.742   6.233  17.052  0.00  0.00    +0.000 C 
ATOM     33  F   UNL     1       7.038   7.547  17.194  0.00  0.00    +0.000 F 
ATOM     34  F   UNL     1       7.582   5.574  17.906  0.00  0.00    +0.000 F 
ATOM     35  F   UNL     1       7.177   5.906  15.801  0.00  0.00    +0.000 F 
ENDBRANCH  30  32
ENDBRANCH  23  25
ENDBRANCH   6  21
TORSDOF 5
ENDMDL
MODEL 7
REMARK VINA RESULT:      -8.5      1.845      2.368
REMARK  Name = 
REMARK  6 active torsions:
REMARK  status: ('A' for Active; 'I' for Inactive)
REMARK    1  A    between atoms: C_1  and  C_2
REMARK    2  A    between atoms: C_5  and  C_6
REMARK    3  A    between atoms: C_8  and  C_9
REMARK    4  A    between atoms: C_15  and  C_16
REMARK    5  A    between atoms: N_18  and  C_19
REMARK    6  A    between atoms: C_24  and  C_25
REMARK                            x       y       z     vdW  Elec       q    Type
REMARK                         _______ _______ _______ _____ _____    ______ ____
ROOT
ATOM      1  C   UNL     1      -1.995  12.524  20.952  0.00  0.00    +0.000 A 
ATOM      2  C   UNL     1      -2.852  12.290  19.752  0.00  0.00    +0.000 A 
ATOM      3  C   UNL     1      -2.352  11.483  18.805  0.00  0.00    +0.000 A 
ATOM      4  N   UNL     1      -1.106  10.902  18.993  0.00  0.00    +0.000 N 
ATOM      5  N   UNL     1      -0.422  10.071  18.153  0.00  0.00    +0.000 NA
ATOM      6  C   UNL     1       0.722   9.783  18.757  0.00  0.00    +0.000 A 
ATOM      7  C   UNL     1       0.796  10.417  20.032  0.00  0.00    +0.000 A 
ATOM      8  C   UNL     1      -0.372  11.141  20.152  0.00  0.00    +0.000 A 
ATOM      9  N   UNL     1      -0.827  11.969  21.143  0.00  0.00    +0.000 NA
ENDROOT
BRANCH   1  14
ATOM     10  C   UNL     1      -4.169  16.187  24.871  0.00  0.00    +0.000 C 
ATOM     11  C   UNL     1      -3.603  15.239  23.855  0.00  0.00    +0.000 A 
ATOM     12  C   UNL     1      -3.525  15.600  22.503  0.00  0.00    +0.000 A 
ATOM     13  C   UNL     1      -2.995  14.717  21.565  0.00  0.00    +0.000 A 
ATOM     14  C   UNL     1      -2.536  13.459  21.969  0.00  0.00    +0.000 A 
ATOM     15  C   UNL     1      -2.610  13.097  23.318  0.00  0.00    +0.000 A 
ATOM     16  C   UNL     1      -3.141  13.980  24.253  0.00  0.00    +0.000 A 
ENDBRANCH   1  14
BRANCH   3  17
ATOM     17  C   UNL     1      -3.047  11.210  17.524  0.00  0.00    +0.000 C 
ATOM     18  F   UNL     1      -4.210  11.881  17.340  0.00  0.00    +0.000 F 
ATOM     19  F   UNL     1      -2.268  11.507  16.449  0.00  0.00    +0.000 F 
ATOM     20  F   UNL     1      -3.356   9.889  17.408  0.00  0.00    +0.000 F 
ENDBRANCH   3  17
BRANCH   6  21
ATOM     21  C   UNL     1       1.731   8.925  18.102  0.00  0.00    +0.000 C 
ATOM     22  O   UNL     1       2.299   9.332  17.097  0.00  0.00    +0.000 OA
ATOM     23  N   UNL     1       1.915   7.656  18.655  0.00  0.00    +0.000 N 
ATOM     24  H   UNL     1       1.237   7.376  19.361  0.00  0.00    +0.000 HD
BRANCH  23  25
ATOM     25  C   UNL     1       2.815   6.691  18.154  0.00  0.00    +0.000 A 
ATOM     26  C   UNL     1       2.434   5.361  17.941  0.00  0.00    +0.000 A 
ATOM     27  C   UNL     1       3.355   4.410  17.524  0.00  0.00    +0.000 A 
ATOM     28  C   UNL     1       4.688   4.757  17.301  0.00  0.00    +0.000 A 
ATOM     29 CL   UNL     1       5.725   3.470  16.806  0.00  0.00    +0.000 Cl
ATOM     30  C   UNL     1       5.105   6.089  17.495  0.00  0.00    +0.000 A 
ATOM     31  C   UNL     1       4.145   7.046  17.883  0.00  0.00    +0.000 A 
BRANCH  30  32
ATOM     32  C   UNL     1       6.541   6.518  17.306  0.00  0.00    +0.000 C 
ATOM     33  F   UNL     1       7.426   5.974  18.175  0.00  0.00    +0.000 F 
ATOM     34  F   UNL     1       7.005   6.198  16.060  0.00  0.00    +0.000 F 
ATOM     35  F   UNL     1       6.719   7.866  17.416  0.00  0.00    +0.000 F 
ENDBRANCH  30  32
ENDBRANCH  23  25
ENDBRANCH   6  21
TORSDOF 5
ENDMDL
MODEL 8
REMARK VINA RESULT:      -8.5      4.191     11.131
REMARK  Name = 
REMARK  6 active torsions:
REMARK  status: ('A' for Active; 'I' for Inactive)
REMARK    1  A    between atoms: C_1  and  C_2
REMARK    2  A    between atoms: C_5  and  C_6
REMARK    3  A    between atoms: C_8  and  C_9
REMARK    4  A    between atoms: C_15  and  C_16
REMARK    5  A    between atoms: N_18  and  C_19
REMARK    6  A    between atoms: C_24  and  C_25
REMARK                            x       y       z     vdW  Elec       q    Type
REMARK                         _______ _______ _______ _____ _____    ______ ____
ROOT
ATOM      1  C   UNL     1       3.649   5.732  17.825  0.00  0.00    +0.000 A 
ATOM      2  C   UNL     1       3.231   4.643  18.758  0.00  0.00    +0.000 A 
ATOM      3  C   UNL     1       2.484   5.008  19.811  0.00  0.00    +0.000 A 
ATOM      4  N   UNL     1       2.127   6.341  19.964  0.00  0.00    +0.000 N 
ATOM      5  N   UNL     1       1.393   6.912  20.962  0.00  0.00    +0.000 NA
ATOM      6  C   UNL     1       1.323   8.206  20.686  0.00  0.00    +0.000 A 
ATOM      7  C   UNL     1       2.007   8.502  19.470  0.00  0.00    +0.000 A 
ATOM      8  C   UNL     1       2.529   7.301  19.038  0.00  0.00    +0.000 A 
ATOM      9  N   UNL     1       3.305   6.986  17.955  0.00  0.00    +0.000 NA
ENDROOT
BRANCH   1  14
ATOM     10  C   UNL     1       6.984   4.088  13.389  0.00  0.00    +0.000 C 
ATOM     11  C   UNL     1       6.122   4.514  14.541  0.00  0.00    +0.000 A 
ATOM     12  C   UNL     1       5.578   3.565  15.418  0.00  0.00    +0.000 A 
ATOM     13  C   UNL     1       4.781   3.967  16.488  0.00  0.00    +0.000 A 
ATOM     14  C   UNL     1       4.518   5.325  16.694  0.00  0.00    +0.000 A 
ATOM     15  C   UNL     1       5.060   6.274  15.820  0.00  0.00    +0.000 A 
ATOM     16  C   UNL     1       5.855   5.871  14.752  0.00  0.00    +0.000 A 
ENDBRANCH   1  14
BRANCH   3  17
ATOM     17  C   UNL     1       2.051   4.059  20.864  0.00  0.00    +0.000 C 
ATOM     18  F   UNL     1       2.452   4.366  22.121  0.00  0.00    +0.000 F 
ATOM     19  F   UNL     1       0.696   3.944  20.919  0.00  0.00    +0.000 F 
ATOM     20  F   UNL     1       2.522   2.806  20.617  0.00  0.00    +0.000 F 
ENDBRANCH   3  17
BRANCH   6  21
ATOM     21  C   UNL     1       0.622   9.140  21.592  0.00  0.00    +0.000 C 
ATOM     22  O   UNL     1       0.224   8.734  22.675  0.00  0.00    +0.000 OA
ATOM     23  N   UNL     1       0.404  10.429  21.102  0.00  0.00    +0.000 N 
ATOM     24  H   UNL     1       0.608  10.570  20.115  0.00  0.00    +0.000 HD
BRANCH  23  25
ATOM     25  C   UNL     1      -0.266  11.448  21.812  0.00  0.00    +0.000 A 
ATOM     26  C   UNL     1      -1.381  11.181  22.617  0.00  0.00    +0.000 A 
ATOM     27  C   UNL     1      -2.074  12.209  23.243  0.00  0.00    +0.000 A 
ATOM     28  C   UNL     1      -1.674  13.536  23.089  0.00  0.00    +0.000 A 
ATOM     29 CL   UNL     1      -2.640  14.709  23.907  0.00  0.00    +0.000 Cl
ATOM     30  C   UNL     1      -0.551  13.840  22.295  0.00  0.00    +0.000 A 
ATOM     31  C   UNL     1       0.161  12.779  21.698  0.00  0.00    +0.000 A 
BRANCH  30  32
ATOM     32  C   UNL     1      -0.092  15.261  22.061  0.00  0.00    +0.000 C 
ATOM     33  F   UNL     1      -1.014  16.083  21.505  0.00  0.00    +0.000 F 
ATOM     34  F   UNL     1       0.288  15.869  23.225  0.00  0.00    +0.000 F 
ATOM     35  F   UNL     1       0.997  15.347  21.243  0.00  0.00    +0.000 F 
ENDBRANCH  30  32
ENDBRANCH  23  25
ENDBRANCH   6  21
TORSDOF 5
ENDMDL
MODEL 9
REMARK VINA RESULT:      -8.4      1.227      1.502
REMARK  Name = 
REMARK  6 active torsions:
REMARK  status: ('A' for Active; 'I' for Inactive)
REMARK    1  A    between atoms: C_1  and  C_2
REMARK    2  A    between atoms: C_5  and  C_6
REMARK    3  A    between atoms: C_8  and  C_9
REMARK    4  A    between atoms: C_15  and  C_16
REMARK    5  A    between atoms: N_18  and  C_19
REMARK    6  A    between atoms: C_24  and  C_25
REMARK                            x       y       z     vdW  Elec       q    Type
REMARK                         _______ _______ _______ _____ _____    ______ ____
ROOT
ATOM      1  C   UNL     1      -1.759  12.748  21.918  0.00  0.00    +0.000 A 
ATOM      2  C   UNL     1      -2.216  12.737  20.497  0.00  0.00    +0.000 A 
ATOM      3  C   UNL     1      -1.682  11.799  19.701  0.00  0.00    +0.000 A 
ATOM      4  N   UNL     1      -0.771  10.895  20.231  0.00  0.00    +0.000 N 
ATOM      5  N   UNL     1      -0.110   9.885  19.593  0.00  0.00    +0.000 NA
ATOM      6  C   UNL     1       0.655   9.301  20.504  0.00  0.00    +0.000 A 
ATOM      7  C   UNL     1       0.487   9.918  21.779  0.00  0.00    +0.000 A 
ATOM      8  C   UNL     1      -0.411  10.945  21.576  0.00  0.00    +0.000 A 
ATOM      9  N   UNL     1      -0.914  11.891  22.428  0.00  0.00    +0.000 NA
ENDROOT
BRANCH   1  14
ATOM     10  C   UNL     1      -3.994  16.888  25.291  0.00  0.00    +0.000 C 
ATOM     11  C   UNL     1      -3.415  15.817  24.415  0.00  0.00    +0.000 A 
ATOM     12  C   UNL     1      -4.245  15.021  23.611  0.00  0.00    +0.000 A 
ATOM     13  C   UNL     1      -3.700  14.031  22.797  0.00  0.00    +0.000 A 
ATOM     14  C   UNL     1      -2.318  13.822  22.775  0.00  0.00    +0.000 A 
ATOM     15  C   UNL     1      -1.487  14.616  23.575  0.00  0.00    +0.000 A 
ATOM     16  C   UNL     1      -2.033  15.605  24.388  0.00  0.00    +0.000 A 
ENDBRANCH   1  14
BRANCH   3  17
ATOM     17  C   UNL     1      -1.976  11.702  18.252  0.00  0.00    +0.000 C 
ATOM     18  F   UNL     1      -1.720  10.497  17.687  0.00  0.00    +0.000 F 
ATOM     19  F   UNL     1      -3.282  11.975  17.979  0.00  0.00    +0.000 F 
ATOM     20  F   UNL     1      -1.249  12.608  17.543  0.00  0.00    +0.000 F 
ENDBRANCH   3  17
BRANCH   6  21
ATOM     21  C   UNL     1       1.543   8.177  20.142  0.00  0.00    +0.000 C 
ATOM     22  O   UNL     1       1.984   7.456  21.027  0.00  0.00    +0.000 OA
ATOM     23  N   UNL     1       1.875   8.062  18.790  0.00  0.00    +0.000 N 
ATOM     24  H   UNL     1       1.602   8.844  18.198  0.00  0.00    +0.000 HD
BRANCH  23  25
ATOM     25  C   UNL     1       2.726   7.069  18.260  0.00  0.00    +0.000 A 
ATOM     26  C   UNL     1       3.868   7.392  17.516  0.00  0.00    +0.000 A 
ATOM     27  C   UNL     1       4.648   6.401  16.936  0.00  0.00    +0.000 A 
ATOM     28  C   UNL     1       4.316   5.054  17.083  0.00  0.00    +0.000 A 
ATOM     29 CL   UNL     1       5.362   3.934  16.292  0.00  0.00    +0.000 Cl
ATOM     30  C   UNL     1       3.179   4.692  17.834  0.00  0.00    +0.000 A 
ATOM     31  C   UNL     1       2.423   5.713  18.446  0.00  0.00    +0.000 A 
BRANCH  30  32
ATOM     32  C   UNL     1       2.748   3.253  17.998  0.00  0.00    +0.000 C 
ATOM     33  F   UNL     1       2.417   2.615  16.851  0.00  0.00    +0.000 F 
ATOM     34  F   UNL     1       3.729   2.493  18.572  0.00  0.00    +0.000 F 
ATOM     35  F   UNL     1       1.663   3.107  18.812  0.00  0.00    +0.000 F 
ENDBRANCH  30  32
ENDBRANCH  23  25
ENDBRANCH   6  21
TORSDOF 5
ENDMDL
