MODEL 1
REMARK VINA RESULT:      -8.1      0.000      0.000
REMARK  Name = 
REMARK  8 active torsions:
REMARK  status: ('A' for Active; 'I' for Inactive)
REMARK    1  A    between atoms: C_1  and  C_2
REMARK    2  A    between atoms: C_2  and  C_3
REMARK    3  A    between atoms: C_2  and  C_6
REMARK    4  A    between atoms: C_3  and  O_5
REMARK    5  A    between atoms: C_9  and  C_10
REMARK    6  A    between atoms: C_10  and  C_11
REMARK    7  A    between atoms: C_18  and  C_19
REMARK    8  A    between atoms: C_22  and  O_23
REMARK                            x       y       z     vdW  Elec       q    Type
REMARK                         _______ _______ _______ _____ _____    ______ ____
ROOT
ATOM      1  C   UNL     1       2.468   5.042  18.679  0.00  0.00    +0.000 A 
ATOM      2  C   UNL     1       3.291   4.168  17.921  0.00  0.00    +0.000 A 
ATOM      3  C   UNL     1       4.298   4.640  17.076  0.00  0.00    +0.000 A 
ATOM      4  C   UNL     1       4.480   6.005  16.907  0.00  0.00    +0.000 A 
ATOM      5  C   UNL     1       3.665   6.876  17.652  0.00  0.00    +0.000 A 
ATOM      6  C   UNL     1       2.675   6.449  18.577  0.00  0.00    +0.000 A 
ENDROOT
BRANCH   6   7
ATOM      7  C   UNL     1       1.989   7.515  19.390  0.00  0.00    +0.000 A 
ATOM      8  C   UNL     1       1.697   7.402  20.760  0.00  0.00    +0.000 A 
ATOM      9  C   UNL     1       1.097   8.432  21.495  0.00  0.00    +0.000 A 
ATOM     10  C   UNL     1       0.707   9.593  20.852  0.00  0.00    +0.000 A 
ATOM     11  C   UNL     1       0.920   9.737  19.494  0.00  0.00    +0.000 A 
ATOM     12  C   UNL     1       1.573   8.722  18.781  0.00  0.00    +0.000 A 
BRANCH  10  13
ATOM     13  O   UNL     1       0.110  10.614  21.526  0.00  0.00    +0.000 OA
ATOM     14  H   UNL     1       0.603  10.775  22.348  0.00  0.00    +0.000 HD
ENDBRANCH  10  13
ENDBRANCH   6   7
BRANCH   1  16
ATOM     15  C   UNL     1       0.696   3.283  18.663  0.00  0.00    +0.000 C 
ATOM     16  C   UNL     1       1.330   4.411  19.492  0.00  0.00    +0.000 C 
BRANCH  16  17
ATOM     17  C   UNL     1       1.707   3.872  20.870  0.00  0.00    +0.000 C 
ATOM     18  O   UNL     1       2.679   4.235  21.522  0.00  0.00    +0.000 OA
BRANCH  17  19
ATOM     19  O   UNL     1       0.902   2.876  21.307  0.00  0.00    +0.000 OA
ATOM     20  H   UNL     1      -0.050   3.047  21.147  0.00  0.00    +0.000 HD
ENDBRANCH  17  19
ENDBRANCH  16  17
ENDBRANCH   1  16
BRANCH   4  21
ATOM     21  C   UNL     1       5.567   6.571  16.021  0.00  0.00    +0.000 C 
BRANCH  21  22
ATOM     22  C   UNL     1       6.998   6.493  16.564  0.00  0.00    +0.000 C 
ATOM     23  C   UNL     1       7.174   6.935  18.019  0.00  0.00    +0.000 C 
ATOM     24  C   UNL     1       7.485   5.712  18.875  0.00  0.00    +0.000 C 
ATOM     25  C   UNL     1       7.730   4.527  17.960  0.00  0.00    +0.000 C 
ATOM     26  C   UNL     1       7.431   5.048  16.586  0.00  0.00    +0.000 C 
ATOM     27  O   UNL     1       7.506   4.350  15.581  0.00  0.00    +0.000 OA
ENDBRANCH  21  22
ENDBRANCH   4  21
TORSDOF 7
ENDMDL
MODEL 2
REMARK VINA RESULT:      -8.1      1.990      2.638
REMARK  Name = 
REMARK  8 active torsions:
REMARK  status: ('A' for Active; 'I' for Inactive)
REMARK    1  A    between atoms: C_1  and  C_2
REMARK    2  A    between atoms: C_2  and  C_3
REMARK    3  A    between atoms: C_2  and  C_6
REMARK    4  A    between atoms: C_3  and  O_5
REMARK    5  A    between atoms: C_9  and  C_10
REMARK    6  A    between atoms: C_10  and  C_11
REMARK    7  A    between atoms: C_18  and  C_19
REMARK    8  A    between atoms: C_22  and  O_23
REMARK                            x       y       z     vdW  Elec       q    Type
REMARK                         _______ _______ _______ _____ _____    ______ ____
ROOT
ATOM      1  C   UNL     1       3.132   4.429  18.287  0.00  0.00    +0.000 A 
ATOM      2  C   UNL     1       3.963   3.464  17.659  0.00  0.00    +0.000 A 
ATOM      3  C   UNL     1       4.908   3.812  16.690  0.00  0.00    +0.000 A 
ATOM      4  C   UNL     1       5.013   5.129  16.265  0.00  0.00    +0.000 A 
ATOM      5  C   UNL     1       4.190   6.088  16.880  0.00  0.00    +0.000 A 
ATOM      6  C   UNL     1       3.264   5.800  17.919  0.00  0.00    +0.000 A 
ENDROOT
BRANCH   6   7
ATOM      7  C   UNL     1       2.561   6.968  18.558  0.00  0.00    +0.000 A 
ATOM      8  C   UNL     1       2.202   7.031  19.914  0.00  0.00    +0.000 A 
ATOM      9  C   UNL     1       1.589   8.154  20.486  0.00  0.00    +0.000 A 
ATOM     10  C   UNL     1       1.254   9.231  19.685  0.00  0.00    +0.000 A 
ATOM     11  C   UNL     1       1.534   9.201  18.331  0.00  0.00    +0.000 A 
ATOM     12  C   UNL     1       2.199   8.095  17.783  0.00  0.00    +0.000 A 
BRANCH  10  13
ATOM     13  O   UNL     1       0.646  10.336  20.196  0.00  0.00    +0.000 OA
ATOM     14  H   UNL     1       1.004  10.506  21.083  0.00  0.00    +0.000 HD
ENDBRANCH  10  13
ENDBRANCH   6   7
BRANCH   1  16
ATOM     15  C   UNL     1       1.291   2.768  18.585  0.00  0.00    +0.000 C 
ATOM     16  C   UNL     1       2.064   3.912  19.259  0.00  0.00    +0.000 C 
BRANCH  16  17
ATOM     17  C   UNL     1       2.566   3.445  20.623  0.00  0.00    +0.000 C 
ATOM     18  O   UNL     1       2.178   3.882  21.700  0.00  0.00    +0.000 OA
BRANCH  17  19
ATOM     19  O   UNL     1       3.560   2.529  20.556  0.00  0.00    +0.000 OA
ATOM     20  H   UNL     1       3.990   2.356  21.419  0.00  0.00    +0.000 HD
ENDBRANCH  17  19
ENDBRANCH  16  17
ENDBRANCH   1  16
BRANCH   4  21
ATOM     21  C   UNL     1       6.031   5.565  15.235  0.00  0.00    +0.000 C 
BRANCH  21  22
ATOM     22  C   UNL     1       6.785   4.447  14.506  0.00  0.00    +0.000 C 
ATOM     23  C   UNL     1       5.910   3.470  13.718  0.00  0.00    +0.000 C 
ATOM     24  C   UNL     1       6.134   3.694  12.227  0.00  0.00    +0.000 C 
ATOM     25  C   UNL     1       7.301   4.646  12.048  0.00  0.00    +0.000 C 
ATOM     26  C   UNL     1       7.659   5.065  13.443  0.00  0.00    +0.000 C 
ATOM     27  O   UNL     1       8.561   5.858  13.687  0.00  0.00    +0.000 OA
ENDBRANCH  21  22
ENDBRANCH   4  21
TORSDOF 7
ENDMDL
MODEL 3
REMARK VINA RESULT:      -8.1      1.810      2.655
REMARK  Name = 
REMARK  8 active torsions:
REMARK  status: ('A' for Active; 'I' for Inactive)
REMARK    1  A    between atoms: C_1  and  C_2
REMARK    2  A    between atoms: C_2  and  C_3
REMARK    3  A    between atoms: C_2  and  C_6
REMARK    4  A    between atoms: C_3  and  O_5
REMARK    5  A    between atoms: C_9  and  C_10
REMARK    6  A    between atoms: C_10  and  C_11
REMARK    7  A    between atoms: C_18  and  C_19
REMARK    8  A    between atoms: C_22  and  O_23
REMARK                            x       y       z     vdW  Elec       q    Type
REMARK                         _______ _______ _______ _____ _____    ______ ____
ROOT
ATOM      1  C   UNL     1       2.919   4.714  18.460  0.00  0.00    +0.000 A 
ATOM      2  C   UNL     1       3.769   3.702  17.942  0.00  0.00    +0.000 A 
ATOM      3  C   UNL     1       4.780   3.979  17.019  0.00  0.00    +0.000 A 
ATOM      4  C   UNL     1       4.941   5.268  16.530  0.00  0.00    +0.000 A 
ATOM      5  C   UNL     1       4.099   6.274  17.037  0.00  0.00    +0.000 A 
ATOM      6  C   UNL     1       3.103   6.060  18.027  0.00  0.00    +0.000 A 
ENDROOT
BRANCH   6   7
ATOM      7  C   UNL     1       2.385   7.274  18.554  0.00  0.00    +0.000 A 
ATOM      8  C   UNL     1       1.975   8.358  17.761  0.00  0.00    +0.000 A 
ATOM      9  C   UNL     1       1.269   9.453  18.278  0.00  0.00    +0.000 A 
ATOM     10  C   UNL     1       1.011   9.520  19.636  0.00  0.00    +0.000 A 
ATOM     11  C   UNL     1       1.440   8.506  20.472  0.00  0.00    +0.000 A 
ATOM     12  C   UNL     1       2.096   7.390  19.934  0.00  0.00    +0.000 A 
BRANCH  10  13
ATOM     13  O   UNL     1       0.340  10.570  20.181  0.00  0.00    +0.000 OA
ATOM     14  H   UNL     1       0.586  11.379  19.704  0.00  0.00    +0.000 HD
ENDBRANCH  10  13
ENDBRANCH   6   7
BRANCH   1  16
ATOM     15  C   UNL     1       0.935   3.211  18.663  0.00  0.00    +0.000 C 
ATOM     16  C   UNL     1       1.780   4.271  19.387  0.00  0.00    +0.000 C 
BRANCH  16  17
ATOM     17  C   UNL     1       2.197   3.734  20.754  0.00  0.00    +0.000 C 
ATOM     18  O   UNL     1       2.141   2.557  21.091  0.00  0.00    +0.000 OA
BRANCH  17  19
ATOM     19  O   UNL     1       2.581   4.696  21.626  0.00  0.00    +0.000 OA
ATOM     20  H   UNL     1       3.552   4.820  21.665  0.00  0.00    +0.000 HD
ENDBRANCH  17  19
ENDBRANCH  16  17
ENDBRANCH   1  16
BRANCH   4  21
ATOM     21  C   UNL     1       6.032   5.629  15.547  0.00  0.00    +0.000 C 
BRANCH  21  22
ATOM     22  C   UNL     1       6.706   4.460  14.819  0.00  0.00    +0.000 C 
ATOM     23  C   UNL     1       5.755   3.480  14.129  0.00  0.00    +0.000 C 
ATOM     24  C   UNL     1       5.889   3.638  12.618  0.00  0.00    +0.000 C 
ATOM     25  C   UNL     1       7.068   4.546  12.327  0.00  0.00    +0.000 C 
ATOM     26  C   UNL     1       7.527   5.009  13.678  0.00  0.00    +0.000 C 
ATOM     27  O   UNL     1       8.464   5.783  13.831  0.00  0.00    +0.000 OA
ENDBRANCH  21  22
ENDBRANCH   4  21
TORSDOF 7
ENDMDL
MODEL 4
REMARK VINA RESULT:      -8.1      1.792      6.784
REMARK  Name = 
REMARK  8 active torsions:
REMARK  status: ('A' for Active; 'I' for Inactive)
REMARK    1  A    between atoms: C_1  and  C_2
REMARK    2  A    between atoms: C_2  and  C_3
REMARK    3  A    between atoms: C_2  and  C_6
REMARK    4  A    between atoms: C_3  and  O_5
REMARK    5  A    between atoms: C_9  and  C_10
REMARK    6  A    between atoms: C_10  and  C_11
REMARK    7  A    between atoms: C_18  and  C_19
REMARK    8  A    between atoms: C_22  and  O_23
REMARK                            x       y       z     vdW  Elec       q    Type
REMARK                         _______ _______ _______ _____ _____    ______ ____
ROOT
ATOM      1  C   UNL     1       2.756   4.460  20.020  0.00  0.00    +0.000 A 
ATOM      2  C   UNL     1       1.642   4.838  20.814  0.00  0.00    +0.000 A 
ATOM      3  C   UNL     1       1.201   6.161  20.898  0.00  0.00    +0.000 A 
ATOM      4  C   UNL     1       1.896   7.167  20.241  0.00  0.00    +0.000 A 
ATOM      5  C   UNL     1       3.003   6.800  19.456  0.00  0.00    +0.000 A 
ATOM      6  C   UNL     1       3.450   5.463  19.281  0.00  0.00    +0.000 A 
ENDROOT
BRANCH   6   7
ATOM      7  C   UNL     1       4.567   5.235  18.297  0.00  0.00    +0.000 A 
ATOM      8  C   UNL     1       4.398   5.183  16.904  0.00  0.00    +0.000 A 
ATOM      9  C   UNL     1       5.468   5.013  16.015  0.00  0.00    +0.000 A 
ATOM     10  C   UNL     1       6.745   4.821  16.512  0.00  0.00    +0.000 A 
ATOM     11  C   UNL     1       6.961   4.808  17.877  0.00  0.00    +0.000 A 
ATOM     12  C   UNL     1       5.891   5.035  18.754  0.00  0.00    +0.000 A 
BRANCH  10  13
ATOM     13  O   UNL     1       7.810   4.641  15.684  0.00  0.00    +0.000 OA
ATOM     14  H   UNL     1       8.089   5.506  15.343  0.00  0.00    +0.000 HD
ENDBRANCH  10  13
ENDBRANCH   6   7
BRANCH   1  16
ATOM     15  C   UNL     1       2.686   2.378  21.397  0.00  0.00    +0.000 C 
ATOM     16  C   UNL     1       3.207   2.996  20.090  0.00  0.00    +0.000 C 
BRANCH  16  17
ATOM     17  C   UNL     1       2.795   2.109  18.916  0.00  0.00    +0.000 C 
ATOM     18  O   UNL     1       3.500   1.860  17.945  0.00  0.00    +0.000 OA
BRANCH  17  19
ATOM     19  O   UNL     1       1.521   1.657  18.992  0.00  0.00    +0.000 OA
ATOM     20  H   UNL     1       1.349   0.882  18.419  0.00  0.00    +0.000 HD
ENDBRANCH  17  19
ENDBRANCH  16  17
ENDBRANCH   1  16
BRANCH   4  21
ATOM     21  C   UNL     1       1.452   8.613  20.281  0.00  0.00    +0.000 C 
BRANCH  21  22
ATOM     22  C   UNL     1       0.060   8.882  20.863  0.00  0.00    +0.000 C 
ATOM     23  C   UNL     1       0.027   9.233  22.352  0.00  0.00    +0.000 C 
ATOM     24  C   UNL     1      -0.345  10.703  22.509  0.00  0.00    +0.000 C 
ATOM     25  C   UNL     1      -0.767  11.244  21.156  0.00  0.00    +0.000 C 
ATOM     26  C   UNL     1      -0.511  10.114  20.204  0.00  0.00    +0.000 C 
ATOM     27  O   UNL     1      -0.722  10.199  19.000  0.00  0.00    +0.000 OA
ENDBRANCH  21  22
ENDBRANCH   4  21
TORSDOF 7
ENDMDL
MODEL 5
REMARK VINA RESULT:      -8.0      0.356      1.195
REMARK  Name = 
REMARK  8 active torsions:
REMARK  status: ('A' for Active; 'I' for Inactive)
REMARK    1  A    between atoms: C_1  and  C_2
REMARK    2  A    between atoms: C_2  and  C_3
REMARK    3  A    between atoms: C_2  and  C_6
REMARK    4  A    between atoms: C_3  and  O_5
REMARK    5  A    between atoms: C_9  and  C_10
REMARK    6  A    between atoms: C_10  and  C_11
REMARK    7  A    between atoms: C_18  and  C_19
REMARK    8  A    between atoms: C_22  and  O_23
REMARK                            x       y       z     vdW  Elec       q    Type
REMARK                         _______ _______ _______ _____ _____    ______ ____
ROOT
ATOM      1  C   UNL     1       2.552   4.945  18.735  0.00  0.00    +0.000 A 
ATOM      2  C   UNL     1       3.369   3.977  18.093  0.00  0.00    +0.000 A 
ATOM      3  C   UNL     1       4.375   4.332  17.191  0.00  0.00    +0.000 A 
ATOM      4  C   UNL     1       4.561   5.665  16.847  0.00  0.00    +0.000 A 
ATOM      5  C   UNL     1       3.752   6.627  17.477  0.00  0.00    +0.000 A 
ATOM      6  C   UNL     1       2.764   6.326  18.452  0.00  0.00    +0.000 A 
ENDROOT
BRANCH   6   7
ATOM      7  C   UNL     1       2.084   7.490  19.124  0.00  0.00    +0.000 A 
ATOM      8  C   UNL     1       1.660   8.651  18.458  0.00  0.00    +0.000 A 
ATOM      9  C   UNL     1       0.989   9.697  19.108  0.00  0.00    +0.000 A 
ATOM     10  C   UNL     1       0.784   9.632  20.474  0.00  0.00    +0.000 A 
ATOM     11  C   UNL     1       1.230   8.536  21.190  0.00  0.00    +0.000 A 
ATOM     12  C   UNL     1       1.849   7.472  20.519  0.00  0.00    +0.000 A 
BRANCH  10  13
ATOM     13  O   UNL     1       0.149  10.630  21.146  0.00  0.00    +0.000 OA
ATOM     14  H   UNL     1       0.525  11.481  20.867  0.00  0.00    +0.000 HD
ENDBRANCH  10  13
ENDBRANCH   6   7
BRANCH   1  16
ATOM     15  C   UNL     1       0.650   3.332  18.865  0.00  0.00    +0.000 C 
ATOM     16  C   UNL     1       1.415   4.427  19.625  0.00  0.00    +0.000 C 
BRANCH  16  17
ATOM     17  C   UNL     1       1.824   3.896  20.997  0.00  0.00    +0.000 C 
ATOM     18  O   UNL     1       1.359   2.894  21.527  0.00  0.00    +0.000 OA
BRANCH  17  19
ATOM     19  O   UNL     1       2.721   4.679  21.642  0.00  0.00    +0.000 OA
ATOM     20  H   UNL     1       2.393   5.021  22.499  0.00  0.00    +0.000 HD
ENDBRANCH  17  19
ENDBRANCH  16  17
ENDBRANCH   1  16
BRANCH   4  21
ATOM     21  C   UNL     1       5.647   6.108  15.893  0.00  0.00    +0.000 C 
BRANCH  21  22
ATOM     22  C   UNL     1       7.060   6.223  16.475  0.00  0.00    +0.000 C 
ATOM     23  C   UNL     1       7.172   7.019  17.776  0.00  0.00    +0.000 C 
ATOM     24  C   UNL     1       7.491   6.061  18.919  0.00  0.00    +0.000 C 
ATOM     25  C   UNL     1       7.804   4.696  18.336  0.00  0.00    +0.000 C 
ATOM     26  C   UNL     1       7.537   4.846  16.868  0.00  0.00    +0.000 C 
ATOM     27  O   UNL     1       7.668   3.923  16.071  0.00  0.00    +0.000 OA
ENDBRANCH  21  22
ENDBRANCH   4  21
TORSDOF 7
ENDMDL
MODEL 6
REMARK VINA RESULT:      -8.0      1.956      6.199
REMARK  Name = 
REMARK  8 active torsions:
REMARK  status: ('A' for Active; 'I' for Inactive)
REMARK    1  A    between atoms: C_1  and  C_2
REMARK    2  A    between atoms: C_2  and  C_3
REMARK    3  A    between atoms: C_2  and  C_6
REMARK    4  A    between atoms: C_3  and  O_5
REMARK    5  A    between atoms: C_9  and  C_10
REMARK    6  A    between atoms: C_10  and  C_11
REMARK    7  A    between atoms: C_18  and  C_19
REMARK    8  A    between atoms: C_22  and  O_23
REMARK                            x       y       z     vdW  Elec       q    Type
REMARK                         _______ _______ _______ _____ _____    ______ ____
ROOT
ATOM      1  C   UNL     1       3.879   5.777  17.686  0.00  0.00    +0.000 A 
ATOM      2  C   UNL     1       4.283   6.912  16.934  0.00  0.00    +0.000 A 
ATOM      3  C   UNL     1       3.632   8.144  17.036  0.00  0.00    +0.000 A 
ATOM      4  C   UNL     1       2.511   8.271  17.846  0.00  0.00    +0.000 A 
ATOM      5  C   UNL     1       2.104   7.150  18.589  0.00  0.00    +0.000 A 
ATOM      6  C   UNL     1       2.772   5.896  18.576  0.00  0.00    +0.000 A 
ENDROOT
BRANCH   6   7
ATOM      7  C   UNL     1       2.281   4.845  19.536  0.00  0.00    +0.000 A 
ATOM      8  C   UNL     1       1.351   3.844  19.208  0.00  0.00    +0.000 A 
ATOM      9  C   UNL     1       0.950   2.855  20.116  0.00  0.00    +0.000 A 
ATOM     10  C   UNL     1       1.427   2.884  21.414  0.00  0.00    +0.000 A 
ATOM     11  C   UNL     1       2.302   3.879  21.807  0.00  0.00    +0.000 A 
ATOM     12  C   UNL     1       2.740   4.830  20.875  0.00  0.00    +0.000 A 
BRANCH  10  13
ATOM     13  O   UNL     1       1.054   1.949  22.330  0.00  0.00    +0.000 OA
ATOM     14  H   UNL     1       1.846   1.640  22.800  0.00  0.00    +0.000 HD
ENDBRANCH  10  13
ENDBRANCH   6   7
BRANCH   1  16
ATOM     15  C   UNL     1       5.173   4.488  15.983  0.00  0.00    +0.000 C 
ATOM     16  C   UNL     1       4.607   4.455  17.411  0.00  0.00    +0.000 C 
BRANCH  16  17
ATOM     17  C   UNL     1       5.723   4.087  18.387  0.00  0.00    +0.000 C 
ATOM     18  O   UNL     1       6.871   4.512  18.330  0.00  0.00    +0.000 OA
BRANCH  17  19
ATOM     19  O   UNL     1       5.359   3.170  19.314  0.00  0.00    +0.000 OA
ATOM     20  H   UNL     1       4.957   3.565  20.115  0.00  0.00    +0.000 HD
ENDBRANCH  17  19
ENDBRANCH  16  17
ENDBRANCH   1  16
BRANCH   4  21
ATOM     21  C   UNL     1       1.780   9.585  18.010  0.00  0.00    +0.000 C 
BRANCH  21  22
ATOM     22  C   UNL     1       0.626   9.601  19.019  0.00  0.00    +0.000 C 
ATOM     23  C   UNL     1       0.868  10.431  20.281  0.00  0.00    +0.000 C 
ATOM     24  C   UNL     1      -0.022  11.669  20.241  0.00  0.00    +0.000 C 
ATOM     25  C   UNL     1      -0.990  11.533  19.081  0.00  0.00    +0.000 C 
ATOM     26  C   UNL     1      -0.565  10.276  18.383  0.00  0.00    +0.000 C 
ATOM     27  O   UNL     1      -1.120   9.856  17.374  0.00  0.00    +0.000 OA
ENDBRANCH  21  22
ENDBRANCH   4  21
TORSDOF 7
ENDMDL
MODEL 7
REMARK VINA RESULT:      -8.0      1.101      1.663
REMARK  Name = 
REMARK  8 active torsions:
REMARK  status: ('A' for Active; 'I' for Inactive)
REMARK    1  A    between atoms: C_1  and  C_2
REMARK    2  A    between atoms: C_2  and  C_3
REMARK    3  A    between atoms: C_2  and  C_6
REMARK    4  A    between atoms: C_3  and  O_5
REMARK    5  A    between atoms: C_9  and  C_10
REMARK    6  A    between atoms: C_10  and  C_11
REMARK    7  A    between atoms: C_18  and  C_19
REMARK    8  A    between atoms: C_22  and  O_23
REMARK                            x       y       z     vdW  Elec       q    Type
REMARK                         _______ _______ _______ _____ _____    ______ ____
ROOT
ATOM      1  C   UNL     1       2.562   4.057  18.915  0.00  0.00    +0.000 A 
ATOM      2  C   UNL     1       3.240   2.879  18.502  0.00  0.00    +0.000 A 
ATOM      3  C   UNL     1       4.216   2.894  17.503  0.00  0.00    +0.000 A 
ATOM      4  C   UNL     1       4.507   4.074  16.833  0.00  0.00    +0.000 A 
ATOM      5  C   UNL     1       3.835   5.243  17.235  0.00  0.00    +0.000 A 
ATOM      6  C   UNL     1       2.886   5.297  18.291  0.00  0.00    +0.000 A 
ENDROOT
BRANCH   6   7
ATOM      7  C   UNL     1       2.365   6.655  18.678  0.00  0.00    +0.000 A 
ATOM      8  C   UNL     1       2.000   7.021  19.984  0.00  0.00    +0.000 A 
ATOM      9  C   UNL     1       1.560   8.310  20.316  0.00  0.00    +0.000 A 
ATOM     10  C   UNL     1       1.409   9.258  19.320  0.00  0.00    +0.000 A 
ATOM     11  C   UNL     1       1.701   8.936  18.008  0.00  0.00    +0.000 A 
ATOM     12  C   UNL     1       2.194   7.661  17.697  0.00  0.00    +0.000 A 
BRANCH  10  13
ATOM     13  O   UNL     1       0.973  10.517  19.597  0.00  0.00    +0.000 OA
ATOM     14  H   UNL     1       1.510  10.880  20.321  0.00  0.00    +0.000 HD
ENDBRANCH  10  13
ENDBRANCH   6   7
BRANCH   1  16
ATOM     15  C   UNL     1       0.451   2.833  19.445  0.00  0.00    +0.000 C 
ATOM     16  C   UNL     1       1.439   3.897  19.947  0.00  0.00    +0.000 C 
BRANCH  16  17
ATOM     17  C   UNL     1       1.877   3.547  21.368  0.00  0.00    +0.000 C 
ATOM     18  O   UNL     1       1.505   2.561  21.992  0.00  0.00    +0.000 OA
BRANCH  17  19
ATOM     19  O   UNL     1       2.681   4.475  21.937  0.00  0.00    +0.000 OA
ATOM     20  H   UNL     1       2.212   5.066  22.561  0.00  0.00    +0.000 HD
ENDBRANCH  17  19
ENDBRANCH  16  17
ENDBRANCH   1  16
BRANCH   4  21
ATOM     21  C   UNL     1       5.568   4.152  15.758  0.00  0.00    +0.000 C 
BRANCH  21  22
ATOM     22  C   UNL     1       6.576   5.300  15.878  0.00  0.00    +0.000 C 
ATOM     23  C   UNL     1       5.970   6.687  16.101  0.00  0.00    +0.000 C 
ATOM     24  C   UNL     1       6.280   7.142  17.523  0.00  0.00    +0.000 C 
ATOM     25  C   UNL     1       7.263   6.167  18.141  0.00  0.00    +0.000 C 
ATOM     26  C   UNL     1       7.413   5.084  17.115  0.00  0.00    +0.000 C 
ATOM     27  O   UNL     1       8.128   4.103  17.283  0.00  0.00    +0.000 OA
ENDBRANCH  21  22
ENDBRANCH   4  21
TORSDOF 7
ENDMDL
MODEL 8
REMARK VINA RESULT:      -8.0      1.928      6.755
REMARK  Name = 
REMARK  8 active torsions:
REMARK  status: ('A' for Active; 'I' for Inactive)
REMARK    1  A    between atoms: C_1  and  C_2
REMARK    2  A    between atoms: C_2  and  C_3
REMARK    3  A    between atoms: C_2  and  C_6
REMARK    4  A    between atoms: C_3  and  O_5
REMARK    5  A    between atoms: C_9  and  C_10
REMARK    6  A    between atoms: C_10  and  C_11
REMARK    7  A    between atoms: C_18  and  C_19
REMARK    8  A    between atoms: C_22  and  O_23
REMARK                            x       y       z     vdW  Elec       q    Type
REMARK                         _______ _______ _______ _____ _____    ______ ____
ROOT
ATOM      1  C   UNL     1       2.560   4.507  19.651  0.00  0.00    +0.000 A 
ATOM      2  C   UNL     1       1.427   4.763  20.467  0.00  0.00    +0.000 A 
ATOM      3  C   UNL     1       1.060   6.056  20.848  0.00  0.00    +0.000 A 
ATOM      4  C   UNL     1       1.848   7.138  20.480  0.00  0.00    +0.000 A 
ATOM      5  C   UNL     1       2.974   6.890  19.676  0.00  0.00    +0.000 A 
ATOM      6  C   UNL     1       3.352   5.605  19.203  0.00  0.00    +0.000 A 
ENDROOT
BRANCH   6   7
ATOM      7  C   UNL     1       4.507   5.539  18.239  0.00  0.00    +0.000 A 
ATOM      8  C   UNL     1       5.782   5.048  18.564  0.00  0.00    +0.000 A 
ATOM      9  C   UNL     1       6.823   4.960  17.629  0.00  0.00    +0.000 A 
ATOM     10  C   UNL     1       6.628   5.431  16.344  0.00  0.00    +0.000 A 
ATOM     11  C   UNL     1       5.409   5.976  15.984  0.00  0.00    +0.000 A 
ATOM     12  C   UNL     1       4.359   6.006  16.912  0.00  0.00    +0.000 A 
BRANCH  10  13
ATOM     13  O   UNL     1       7.614   5.376  15.408  0.00  0.00    +0.000 OA
ATOM     14  H   UNL     1       7.894   6.282  15.197  0.00  0.00    +0.000 HD
ENDBRANCH  10  13
ENDBRANCH   6   7
BRANCH   1  16
ATOM     15  C   UNL     1       1.891   2.141  20.089  0.00  0.00    +0.000 C 
ATOM     16  C   UNL     1       2.920   3.040  19.385  0.00  0.00    +0.000 C 
BRANCH  16  17
ATOM     17  C   UNL     1       3.026   2.629  17.918  0.00  0.00    +0.000 C 
ATOM     18  O   UNL     1       2.216   2.925  17.048  0.00  0.00    +0.000 OA
BRANCH  17  19
ATOM     19  O   UNL     1       4.081   1.824  17.650  0.00  0.00    +0.000 OA
ATOM     20  H   UNL     1       3.880   0.871  17.756  0.00  0.00    +0.000 HD
ENDBRANCH  17  19
ENDBRANCH  16  17
ENDBRANCH   1  16
BRANCH   4  21
ATOM     21  C   UNL     1       1.488   8.560  20.847  0.00  0.00    +0.000 C 
BRANCH  21  22
ATOM     22  C   UNL     1       0.022   8.819  21.212  0.00  0.00    +0.000 C 
ATOM     23  C   UNL     1      -0.243   9.138  22.685  0.00  0.00    +0.000 C 
ATOM     24  C   UNL     1      -0.638  10.605  22.813  0.00  0.00    +0.000 C 
ATOM     25  C   UNL     1      -0.846  11.175  21.423  0.00  0.00    +0.000 C 
ATOM     26  C   UNL     1      -0.443  10.065  20.499  0.00  0.00    +0.000 C 
ATOM     27  O   UNL     1      -0.465  10.176  19.278  0.00  0.00    +0.000 OA
ENDBRANCH  21  22
ENDBRANCH   4  21
TORSDOF 7
ENDMDL
MODEL 9
REMARK VINA RESULT:      -7.9      0.901      1.471
REMARK  Name = 
REMARK  8 active torsions:
REMARK  status: ('A' for Active; 'I' for Inactive)
REMARK    1  A    between atoms: C_1  and  C_2
REMARK    2  A    between atoms: C_2  and  C_3
REMARK    3  A    between atoms: C_2  and  C_6
REMARK    4  A    between atoms: C_3  and  O_5
REMARK    5  A    between atoms: C_9  and  C_10
REMARK    6  A    between atoms: C_10  and  C_11
REMARK    7  A    between atoms: C_18  and  C_19
REMARK    8  A    between atoms: C_22  and  O_23
REMARK                            x       y       z     vdW  Elec       q    Type
REMARK                         _______ _______ _______ _____ _____    ______ ____
ROOT
ATOM      1  C   UNL     1       2.693   4.418  18.450  0.00  0.00    +0.000 A 
ATOM      2  C   UNL     1       3.484   3.342  17.969  0.00  0.00    +0.000 A 
ATOM      3  C   UNL     1       4.582   3.542  17.129  0.00  0.00    +0.000 A 
ATOM      4  C   UNL     1       4.894   4.820  16.687  0.00  0.00    +0.000 A 
ATOM      5  C   UNL     1       4.111   5.890  17.156  0.00  0.00    +0.000 A 
ATOM      6  C   UNL     1       3.029   5.749  18.065  0.00  0.00    +0.000 A 
ENDROOT
BRANCH   6   7
ATOM      7  C   UNL     1       2.386   7.014  18.570  0.00  0.00    +0.000 A 
ATOM      8  C   UNL     1       2.024   8.099  17.754  0.00  0.00    +0.000 A 
ATOM      9  C   UNL     1       1.386   9.243  18.251  0.00  0.00    +0.000 A 
ATOM     10  C   UNL     1       1.154   9.360  19.610  0.00  0.00    +0.000 A 
ATOM     11  C   UNL     1       1.540   8.346  20.467  0.00  0.00    +0.000 A 
ATOM     12  C   UNL     1       2.125   7.182  19.950  0.00  0.00    +0.000 A 
BRANCH  10  13
ATOM     13  O   UNL     1       0.549  10.459  20.136  0.00  0.00    +0.000 OA
ATOM     14  H   UNL     1      -0.411  10.373  20.018  0.00  0.00    +0.000 HD
ENDBRANCH  10  13
ENDBRANCH   6   7
BRANCH   1  16
ATOM     15  C   UNL     1       0.738   2.874  18.623  0.00  0.00    +0.000 C 
ATOM     16  C   UNL     1       1.452   4.065  19.281  0.00  0.00    +0.000 C 
BRANCH  16  17
ATOM     17  C   UNL     1       1.698   3.753  20.755  0.00  0.00    +0.000 C 
ATOM     18  O   UNL     1       2.622   4.203  21.422  0.00  0.00    +0.000 OA
BRANCH  17  19
ATOM     19  O   UNL     1       0.830   2.854  21.276  0.00  0.00    +0.000 OA
ATOM     20  H   UNL     1       0.674   2.082  20.694  0.00  0.00    +0.000 HD
ENDBRANCH  17  19
ENDBRANCH  16  17
ENDBRANCH   1  16
BRANCH   4  21
ATOM     21  C   UNL     1       6.083   5.097  15.794  0.00  0.00    +0.000 C 
BRANCH  21  22
ATOM     22  C   UNL     1       7.270   5.816  16.444  0.00  0.00    +0.000 C 
ATOM     23  C   UNL     1       6.952   7.175  17.071  0.00  0.00    +0.000 C 
ATOM     24  C   UNL     1       7.040   7.055  18.589  0.00  0.00    +0.000 C 
ATOM     25  C   UNL     1       7.626   5.700  18.935  0.00  0.00    +0.000 C 
ATOM     26  C   UNL     1       7.751   4.997  17.617  0.00  0.00    +0.000 C 
ATOM     27  O   UNL     1       8.178   3.853  17.512  0.00  0.00    +0.000 OA
ENDBRANCH  21  22
ENDBRANCH   4  21
TORSDOF 7
ENDMDL
