MODEL 1
REMARK VINA RESULT:      -7.4      0.000      0.000
REMARK  Name = 
REMARK  8 active torsions:
REMARK  status: ('A' for Active; 'I' for Inactive)
REMARK    1  A    between atoms: N_2  and  C_4
REMARK    2  A    between atoms: C_7  and  N_8
REMARK    3  A    between atoms: C_10  and  C_11
REMARK    4  A    between atoms: C_17  and  C_18
REMARK    5  A    between atoms: N_19  and  C_20
REMARK    6  A    between atoms: C_20  and  C_21
REMARK    7  A    between atoms: C_21  and  N_22
REMARK    8  A    between atoms: C_28  and  O_29
REMARK                            x       y       z     vdW  Elec       q    Type
REMARK                         _______ _______ _______ _____ _____    ______ ____
ROOT
ATOM      1  N   UNL     1       2.793   7.490  18.575  0.00  0.00    +0.000 N 
ATOM      2  N   UNL     1       2.363   8.687  18.070  0.00  0.00    +0.000 NA
ATOM      3  C   UNL     1       1.395   9.098  18.915  0.00  0.00    +0.000 A 
ATOM      4  C   UNL     1       1.318   8.243  20.044  0.00  0.00    +0.000 A 
ATOM      5  C   UNL     1       2.218   7.232  19.806  0.00  0.00    +0.000 A 
ENDROOT
BRANCH   1   9
ATOM      6  C   UNL     1       5.575   5.170  16.395  0.00  0.00    +0.000 A 
ATOM      7  C   UNL     1       4.387   4.580  16.860  0.00  0.00    +0.000 A 
ATOM      8  C   UNL     1       3.486   5.327  17.637  0.00  0.00    +0.000 A 
ATOM      9  C   UNL     1       3.757   6.673  17.910  0.00  0.00    +0.000 A 
ATOM     10  C   UNL     1       4.971   7.232  17.473  0.00  0.00    +0.000 A 
ATOM     11  C   UNL     1       5.882   6.492  16.721  0.00  0.00    +0.000 A 
BRANCH   6  13
ATOM     12  O   UNL     1       7.710   4.447  15.850  0.00  0.00    +0.000 OA
ATOM     13  N   UNL     1       6.507   4.406  15.556  0.00  0.00    +0.000 N 
ATOM     14  O   UNL     1       6.038   3.758  14.609  0.00  0.00    +0.000 OA
ENDBRANCH   6  13
ENDBRANCH   1   9
BRANCH   3  15
ATOM     15  C   UNL     1       0.587  10.308  18.694  0.00  0.00    +0.000 A 
ATOM     16  C   UNL     1       1.151  11.591  18.849  0.00  0.00    +0.000 A 
ATOM     17  C   UNL     1       0.440  12.742  18.498  0.00  0.00    +0.000 A 
ATOM     18  C   UNL     1      -0.863  12.628  18.024  0.00  0.00    +0.000 A 
ATOM     19  C   UNL     1      -1.456  11.369  17.921  0.00  0.00    +0.000 A 
ATOM     20  C   UNL     1      -0.736  10.216  18.254  0.00  0.00    +0.000 A 
ENDBRANCH   3  15
BRANCH   4  21
ATOM     21  C   UNL     1       0.525   8.346  21.240  0.00  0.00    +0.000 C 
ATOM     22  N   UNL     1       0.393   9.528  21.725  0.00  0.00    +0.000 NA
BRANCH  22  23
ATOM     23  C   UNL     1      -0.385   9.588  22.961  0.00  0.00    +0.000 C 
BRANCH  23  24
ATOM     24  C   UNL     1      -0.860  11.041  23.100  0.00  0.00    +0.000 C 
BRANCH  24  25
ATOM     25  N   UNL     1      -0.894  11.802  21.845  0.00  0.00    +0.000 NA
ATOM     26  C   UNL     1      -2.266  12.086  21.372  0.00  0.00    +0.000 C 
ATOM     27  C   UNL     1      -3.054  13.087  22.246  0.00  0.00    +0.000 C 
ATOM     28  N   UNL     1      -2.341  14.356  22.447  0.00  0.00    +0.000 NA
ATOM     29  C   UNL     1      -0.965  14.118  22.906  0.00  0.00    +0.000 C 
ATOM     30  C   UNL     1      -0.198  13.100  22.026  0.00  0.00    +0.000 C 
ATOM     31  H   UNL     1      -2.837  14.921  23.134  0.00  0.00    +0.000 HD
ENDBRANCH  24  25
ENDBRANCH  23  24
ENDBRANCH  22  23
ENDBRANCH   4  21
BRANCH   5  32
ATOM     32  O   UNL     1       2.566   6.213  20.599  0.00  0.00    +0.000 OA
ATOM     33  H   UNL     1       3.541   6.123  20.502  0.00  0.00    +0.000 HD
ENDBRANCH   5  32
TORSDOF 8
ENDMDL
MODEL 2
REMARK VINA RESULT:      -7.3      3.268      9.458
REMARK  Name = 
REMARK  8 active torsions:
REMARK  status: ('A' for Active; 'I' for Inactive)
REMARK    1  A    between atoms: N_2  and  C_4
REMARK    2  A    between atoms: C_7  and  N_8
REMARK    3  A    between atoms: C_10  and  C_11
REMARK    4  A    between atoms: C_17  and  C_18
REMARK    5  A    between atoms: N_19  and  C_20
REMARK    6  A    between atoms: C_20  and  C_21
REMARK    7  A    between atoms: C_21  and  N_22
REMARK    8  A    between atoms: C_28  and  O_29
REMARK                            x       y       z     vdW  Elec       q    Type
REMARK                         _______ _______ _______ _____ _____    ______ ____
ROOT
ATOM      1  N   UNL     1       1.185   8.401  20.600  0.00  0.00    +0.000 N 
ATOM      2  N   UNL     1       1.182   7.146  21.148  0.00  0.00    +0.000 NA
ATOM      3  C   UNL     1       1.698   6.345  20.194  0.00  0.00    +0.000 A 
ATOM      4  C   UNL     1       2.176   7.110  19.100  0.00  0.00    +0.000 A 
ATOM      5  C   UNL     1       1.842   8.413  19.383  0.00  0.00    +0.000 A 
ENDROOT
BRANCH   1   9
ATOM      6  C   UNL     1      -0.700  11.687  22.478  0.00  0.00    +0.000 A 
ATOM      7  C   UNL     1       0.014  11.881  21.283  0.00  0.00    +0.000 A 
ATOM      8  C   UNL     1       0.694  10.807  20.685  0.00  0.00    +0.000 A 
ATOM      9  C   UNL     1       0.622   9.534  21.263  0.00  0.00    +0.000 A 
ATOM     10  C   UNL     1      -0.060   9.369  22.481  0.00  0.00    +0.000 A 
ATOM     11  C   UNL     1      -0.719  10.434  23.093  0.00  0.00    +0.000 A 
BRANCH   6  13
ATOM     12  O   UNL     1      -2.669  12.682  23.191  0.00  0.00    +0.000 OA
ATOM     13  N   UNL     1      -1.440  12.797  23.092  0.00  0.00    +0.000 N 
ATOM     14  O   UNL     1      -0.793  13.778  23.485  0.00  0.00    +0.000 OA
ENDBRANCH   6  13
ENDBRANCH   1   9
BRANCH   3  15
ATOM     15  C   UNL     1       1.790   4.882  20.328  0.00  0.00    +0.000 A 
ATOM     16  C   UNL     1       2.416   4.299  21.449  0.00  0.00    +0.000 A 
ATOM     17  C   UNL     1       2.378   2.917  21.661  0.00  0.00    +0.000 A 
ATOM     18  C   UNL     1       1.747   2.095  20.733  0.00  0.00    +0.000 A 
ATOM     19  C   UNL     1       1.175   2.653  19.589  0.00  0.00    +0.000 A 
ATOM     20  C   UNL     1       1.196   4.038  19.388  0.00  0.00    +0.000 A 
ENDBRANCH   3  15
BRANCH   4  21
ATOM     21  C   UNL     1       2.894   6.705  17.921  0.00  0.00    +0.000 C 
ATOM     22  N   UNL     1       4.081   7.181  17.797  0.00  0.00    +0.000 NA
BRANCH  22  23
ATOM     23  C   UNL     1       4.765   6.780  16.569  0.00  0.00    +0.000 C 
BRANCH  23  24
ATOM     24  C   UNL     1       5.458   5.445  16.879  0.00  0.00    +0.000 C 
BRANCH  24  25
ATOM     25  N   UNL     1       6.899   5.420  16.600  0.00  0.00    +0.000 NA
ATOM     26  C   UNL     1       7.503   6.768  16.530  0.00  0.00    +0.000 C 
ATOM     27  C   UNL     1       7.563   7.517  17.880  0.00  0.00    +0.000 C 
ATOM     28  N   UNL     1       8.232   6.743  18.935  0.00  0.00    +0.000 NA
ATOM     29  C   UNL     1       7.669   5.389  19.029  0.00  0.00    +0.000 C 
ATOM     30  C   UNL     1       7.602   4.661  17.664  0.00  0.00    +0.000 C 
ATOM     31  H   UNL     1       8.126   7.220  19.828  0.00  0.00    +0.000 HD
ENDBRANCH  24  25
ENDBRANCH  23  24
ENDBRANCH  22  23
ENDBRANCH   4  21
BRANCH   5  32
ATOM     32  O   UNL     1       2.130   9.523  18.696  0.00  0.00    +0.000 OA
ATOM     33  H   UNL     1       2.864   9.277  18.090  0.00  0.00    +0.000 HD
ENDBRANCH   5  32
TORSDOF 8
ENDMDL
MODEL 3
REMARK VINA RESULT:      -7.3      3.242      9.427
REMARK  Name = 
REMARK  8 active torsions:
REMARK  status: ('A' for Active; 'I' for Inactive)
REMARK    1  A    between atoms: N_2  and  C_4
REMARK    2  A    between atoms: C_7  and  N_8
REMARK    3  A    between atoms: C_10  and  C_11
REMARK    4  A    between atoms: C_17  and  C_18
REMARK    5  A    between atoms: N_19  and  C_20
REMARK    6  A    between atoms: C_20  and  C_21
REMARK    7  A    between atoms: C_21  and  N_22
REMARK    8  A    between atoms: C_28  and  O_29
REMARK                            x       y       z     vdW  Elec       q    Type
REMARK                         _______ _______ _______ _____ _____    ______ ____
ROOT
ATOM      1  N   UNL     1       0.887   8.422  20.647  0.00  0.00    +0.000 N 
ATOM      2  N   UNL     1       0.874   7.160  21.178  0.00  0.00    +0.000 NA
ATOM      3  C   UNL     1       1.551   6.400  20.293  0.00  0.00    +0.000 A 
ATOM      4  C   UNL     1       2.131   7.206  19.279  0.00  0.00    +0.000 A 
ATOM      5  C   UNL     1       1.697   8.486  19.528  0.00  0.00    +0.000 A 
ENDROOT
BRANCH   1   9
ATOM      6  C   UNL     1      -0.976  11.763  22.450  0.00  0.00    +0.000 A 
ATOM      7  C   UNL     1      -0.874  10.554  23.159  0.00  0.00    +0.000 A 
ATOM      8  C   UNL     1      -0.312   9.422  22.546  0.00  0.00    +0.000 A 
ATOM      9  C   UNL     1       0.185   9.516  21.240  0.00  0.00    +0.000 A 
ATOM     10  C   UNL     1       0.034  10.721  20.532  0.00  0.00    +0.000 A 
ATOM     11  C   UNL     1      -0.544  11.843  21.124  0.00  0.00    +0.000 A 
BRANCH   6  13
ATOM     12  O   UNL     1      -2.760  13.126  23.030  0.00  0.00    +0.000 OA
ATOM     13  N   UNL     1      -1.534  12.959  23.093  0.00  0.00    +0.000 N 
ATOM     14  O   UNL     1      -0.750  13.727  23.668  0.00  0.00    +0.000 OA
ENDBRANCH   6  13
ENDBRANCH   1   9
BRANCH   3  15
ATOM     15  C   UNL     1       1.699   4.942  20.423  0.00  0.00    +0.000 A 
ATOM     16  C   UNL     1       2.497   4.386  21.444  0.00  0.00    +0.000 A 
ATOM     17  C   UNL     1       2.524   3.007  21.671  0.00  0.00    +0.000 A 
ATOM     18  C   UNL     1       1.785   2.160  20.853  0.00  0.00    +0.000 A 
ATOM     19  C   UNL     1       1.037   2.690  19.801  0.00  0.00    +0.000 A 
ATOM     20  C   UNL     1       0.994   4.073  19.587  0.00  0.00    +0.000 A 
ENDBRANCH   3  15
BRANCH   4  21
ATOM     21  C   UNL     1       3.018   6.856  18.202  0.00  0.00    +0.000 C 
ATOM     22  N   UNL     1       4.076   7.577  18.092  0.00  0.00    +0.000 NA
BRANCH  22  23
ATOM     23  C   UNL     1       4.933   7.217  16.963  0.00  0.00    +0.000 C 
BRANCH  23  24
ATOM     24  C   UNL     1       4.521   5.798  16.546  0.00  0.00    +0.000 C 
BRANCH  24  25
ATOM     25  N   UNL     1       5.595   4.799  16.616  0.00  0.00    +0.000 NA
ATOM     26  C   UNL     1       6.534   5.030  17.734  0.00  0.00    +0.000 C 
ATOM     27  C   UNL     1       5.934   4.793  19.138  0.00  0.00    +0.000 C 
ATOM     28  N   UNL     1       5.329   3.462  19.285  0.00  0.00    +0.000 NA
ATOM     29  C   UNL     1       4.395   3.187  18.183  0.00  0.00    +0.000 C 
ATOM     30  C   UNL     1       5.010   3.446  16.786  0.00  0.00    +0.000 C 
ATOM     31  H   UNL     1       4.834   3.408  20.173  0.00  0.00    +0.000 HD
ENDBRANCH  24  25
ENDBRANCH  23  24
ENDBRANCH  22  23
ENDBRANCH   4  21
BRANCH   5  32
ATOM     32  O   UNL     1       2.018   9.620  18.896  0.00  0.00    +0.000 OA
ATOM     33  H   UNL     1       1.946   9.419  17.937  0.00  0.00    +0.000 HD
ENDBRANCH   5  32
TORSDOF 8
ENDMDL
MODEL 4
REMARK VINA RESULT:      -7.2      3.132      4.725
REMARK  Name = 
REMARK  8 active torsions:
REMARK  status: ('A' for Active; 'I' for Inactive)
REMARK    1  A    between atoms: N_2  and  C_4
REMARK    2  A    between atoms: C_7  and  N_8
REMARK    3  A    between atoms: C_10  and  C_11
REMARK    4  A    between atoms: C_17  and  C_18
REMARK    5  A    between atoms: N_19  and  C_20
REMARK    6  A    between atoms: C_20  and  C_21
REMARK    7  A    between atoms: C_21  and  N_22
REMARK    8  A    between atoms: C_28  and  O_29
REMARK                            x       y       z     vdW  Elec       q    Type
REMARK                         _______ _______ _______ _____ _____    ______ ____
ROOT
ATOM      1  N   UNL     1       0.846   9.576  19.412  0.00  0.00    +0.000 N 
ATOM      2  N   UNL     1       0.794  10.187  20.636  0.00  0.00    +0.000 NA
ATOM      3  C   UNL     1      -0.141  11.150  20.509  0.00  0.00    +0.000 A 
ATOM      4  C   UNL     1      -0.798  11.051  19.256  0.00  0.00    +0.000 A 
ATOM      5  C   UNL     1      -0.155  10.043  18.578  0.00  0.00    +0.000 A 
ENDROOT
BRANCH   1   9
ATOM      6  C   UNL     1       3.484   6.455  18.329  0.00  0.00    +0.000 A 
ATOM      7  C   UNL     1       2.792   6.391  19.550  0.00  0.00    +0.000 A 
ATOM      8  C   UNL     1       1.960   7.452  19.945  0.00  0.00    +0.000 A 
ATOM      9  C   UNL     1       1.792   8.554  19.098  0.00  0.00    +0.000 A 
ATOM     10  C   UNL     1       2.528   8.619  17.902  0.00  0.00    +0.000 A 
ATOM     11  C   UNL     1       3.373   7.581  17.512  0.00  0.00    +0.000 A 
BRANCH   6  13
ATOM     12  O   UNL     1       4.830   4.618  18.771  0.00  0.00    +0.000 OA
ATOM     13  N   UNL     1       4.331   5.337  17.893  0.00  0.00    +0.000 N 
ATOM     14  O   UNL     1       4.491   5.170  16.676  0.00  0.00    +0.000 OA
ENDBRANCH   6  13
ENDBRANCH   1   9
BRANCH   3  15
ATOM     15  C   UNL     1      -0.454  12.119  21.572  0.00  0.00    +0.000 A 
ATOM     16  C   UNL     1       0.143  13.396  21.582  0.00  0.00    +0.000 A 
ATOM     17  C   UNL     1      -0.258  14.375  22.496  0.00  0.00    +0.000 A 
ATOM     18  C   UNL     1      -1.235  14.077  23.440  0.00  0.00    +0.000 A 
ATOM     19  C   UNL     1      -1.793  12.799  23.479  0.00  0.00    +0.000 A 
ATOM     20  C   UNL     1      -1.406  11.825  22.551  0.00  0.00    +0.000 A 
ENDBRANCH   3  15
BRANCH   4  21
ATOM     21  C   UNL     1      -1.920  11.781  18.730  0.00  0.00    +0.000 C 
ATOM     22  N   UNL     1      -2.961  11.081  18.449  0.00  0.00    +0.000 NA
BRANCH  22  23
ATOM     23  C   UNL     1      -4.066  11.851  17.881  0.00  0.00    +0.000 C 
BRANCH  23  24
ATOM     24  C   UNL     1      -4.979  12.225  19.057  0.00  0.00    +0.000 C 
BRANCH  24  25
ATOM     25  N   UNL     1      -6.417  12.173  18.762  0.00  0.00    +0.000 NA
ATOM     26  C   UNL     1      -6.904  10.807  18.474  0.00  0.00    +0.000 C 
ATOM     27  C   UNL     1      -6.904   9.854  19.690  0.00  0.00    +0.000 C 
ATOM     28  N   UNL     1      -7.639  10.394  20.841  0.00  0.00    +0.000 NA
ATOM     29  C   UNL     1      -7.193  11.760  21.154  0.00  0.00    +0.000 C 
ATOM     30  C   UNL     1      -7.185  12.695  19.919  0.00  0.00    +0.000 C 
ATOM     31  H   UNL     1      -7.495   9.794  21.651  0.00  0.00    +0.000 HD
ENDBRANCH  24  25
ENDBRANCH  23  24
ENDBRANCH  22  23
ENDBRANCH   4  21
BRANCH   5  32
ATOM     32  O   UNL     1      -0.439   9.520  17.380  0.00  0.00    +0.000 OA
ATOM     33  H   UNL     1      -0.281  10.242  16.732  0.00  0.00    +0.000 HD
ENDBRANCH   5  32
TORSDOF 8
ENDMDL
MODEL 5
REMARK VINA RESULT:      -7.1      3.344      9.276
REMARK  Name = 
REMARK  8 active torsions:
REMARK  status: ('A' for Active; 'I' for Inactive)
REMARK    1  A    between atoms: N_2  and  C_4
REMARK    2  A    between atoms: C_7  and  N_8
REMARK    3  A    between atoms: C_10  and  C_11
REMARK    4  A    between atoms: C_17  and  C_18
REMARK    5  A    between atoms: N_19  and  C_20
REMARK    6  A    between atoms: C_20  and  C_21
REMARK    7  A    between atoms: C_21  and  N_22
REMARK    8  A    between atoms: C_28  and  O_29
REMARK                            x       y       z     vdW  Elec       q    Type
REMARK                         _______ _______ _______ _____ _____    ______ ____
ROOT
ATOM      1  N   UNL     1       1.307   8.458  19.787  0.00  0.00    +0.000 N 
ATOM      2  N   UNL     1       1.081   7.326  20.522  0.00  0.00    +0.000 NA
ATOM      3  C   UNL     1       1.824   6.368  19.930  0.00  0.00    +0.000 A 
ATOM      4  C   UNL     1       2.646   6.924  18.917  0.00  0.00    +0.000 A 
ATOM      5  C   UNL     1       2.302   8.253  18.847  0.00  0.00    +0.000 A 
ENDROOT
BRANCH   1   9
ATOM      6  C   UNL     1      -0.887  11.971  20.635  0.00  0.00    +0.000 A 
ATOM      7  C   UNL     1      -0.974  11.385  19.360  0.00  0.00    +0.000 A 
ATOM      8  C   UNL     1      -0.201  10.253  19.051  0.00  0.00    +0.000 A 
ATOM      9  C   UNL     1       0.623   9.687  20.031  0.00  0.00    +0.000 A 
ATOM     10  C   UNL     1       0.729  10.314  21.285  0.00  0.00    +0.000 A 
ATOM     11  C   UNL     1      -0.017  11.450  21.594  0.00  0.00    +0.000 A 
BRANCH   6  13
ATOM     12  O   UNL     1      -2.887  13.144  20.576  0.00  0.00    +0.000 OA
ATOM     13  N   UNL     1      -1.715  13.135  20.977  0.00  0.00    +0.000 N 
ATOM     14  O   UNL     1      -1.198  14.036  21.653  0.00  0.00    +0.000 OA
ENDBRANCH   6  13
ENDBRANCH   1   9
BRANCH   3  15
ATOM     15  C   UNL     1       1.805   4.956  20.345  0.00  0.00    +0.000 A 
ATOM     16  C   UNL     1       2.471   4.539  21.516  0.00  0.00    +0.000 A 
ATOM     17  C   UNL     1       2.335   3.234  22.000  0.00  0.00    +0.000 A 
ATOM     18  C   UNL     1       1.563   2.316  21.296  0.00  0.00    +0.000 A 
ATOM     19  C   UNL     1       0.946   2.698  20.104  0.00  0.00    +0.000 A 
ATOM     20  C   UNL     1       1.066   4.010  19.631  0.00  0.00    +0.000 A 
ENDBRANCH   3  15
BRANCH   4  21
ATOM     21  C   UNL     1       3.668   6.318  18.107  0.00  0.00    +0.000 C 
ATOM     22  N   UNL     1       3.306   5.291  17.425  0.00  0.00    +0.000 NA
BRANCH  22  23
ATOM     23  C   UNL     1       4.380   4.679  16.645  0.00  0.00    +0.000 C 
BRANCH  23  24
ATOM     24  C   UNL     1       5.533   4.424  17.627  0.00  0.00    +0.000 C 
BRANCH  24  25
ATOM     25  N   UNL     1       6.876   4.625  17.067  0.00  0.00    +0.000 NA
ATOM     26  C   UNL     1       7.028   5.921  16.369  0.00  0.00    +0.000 C 
ATOM     27  C   UNL     1       6.997   7.157  17.294  0.00  0.00    +0.000 C 
ATOM     28  N   UNL     1       7.978   7.080  18.386  0.00  0.00    +0.000 NA
ATOM     29  C   UNL     1       7.869   5.799  19.099  0.00  0.00    +0.000 C 
ATOM     30  C   UNL     1       7.885   4.573  18.153  0.00  0.00    +0.000 C 
ATOM     31  H   UNL     1       7.825   7.847  19.038  0.00  0.00    +0.000 HD
ENDBRANCH  24  25
ENDBRANCH  23  24
ENDBRANCH  22  23
ENDBRANCH   4  21
BRANCH   5  32
ATOM     32  O   UNL     1       2.835   9.222  18.095  0.00  0.00    +0.000 OA
ATOM     33  H   UNL     1       2.380   9.163  17.225  0.00  0.00    +0.000 HD
ENDBRANCH   5  32
TORSDOF 8
ENDMDL
MODEL 6
REMARK VINA RESULT:      -7.1      3.070      9.555
REMARK  Name = 
REMARK  8 active torsions:
REMARK  status: ('A' for Active; 'I' for Inactive)
REMARK    1  A    between atoms: N_2  and  C_4
REMARK    2  A    between atoms: C_7  and  N_8
REMARK    3  A    between atoms: C_10  and  C_11
REMARK    4  A    between atoms: C_17  and  C_18
REMARK    5  A    between atoms: N_19  and  C_20
REMARK    6  A    between atoms: C_20  and  C_21
REMARK    7  A    between atoms: C_21  and  N_22
REMARK    8  A    between atoms: C_28  and  O_29
REMARK                            x       y       z     vdW  Elec       q    Type
REMARK                         _______ _______ _______ _____ _____    ______ ____
ROOT
ATOM      1  N   UNL     1       1.253   8.206  20.353  0.00  0.00    +0.000 N 
ATOM      2  N   UNL     1       1.260   6.939  20.872  0.00  0.00    +0.000 NA
ATOM      3  C   UNL     1       1.881   6.182  19.944  0.00  0.00    +0.000 A 
ATOM      4  C   UNL     1       2.410   6.992  18.907  0.00  0.00    +0.000 A 
ATOM      5  C   UNL     1       2.000   8.273  19.190  0.00  0.00    +0.000 A 
ENDROOT
BRANCH   1   9
ATOM      6  C   UNL     1      -0.904  11.312  22.243  0.00  0.00    +0.000 A 
ATOM      7  C   UNL     1      -0.595  11.409  20.875  0.00  0.00    +0.000 A 
ATOM      8  C   UNL     1       0.173  10.411  20.254  0.00  0.00    +0.000 A 
ATOM      9  C   UNL     1       0.594   9.299  20.993  0.00  0.00    +0.000 A 
ATOM     10  C   UNL     1       0.313   9.242  22.369  0.00  0.00    +0.000 A 
ATOM     11  C   UNL     1      -0.430  10.239  23.000  0.00  0.00    +0.000 A 
BRANCH   6  13
ATOM     12  O   UNL     1      -2.738  11.952  23.509  0.00  0.00    +0.000 OA
ATOM     13  N   UNL     1      -1.733  12.335  22.893  0.00  0.00    +0.000 N 
ATOM     14  O   UNL     1      -1.377  13.518  22.798  0.00  0.00    +0.000 OA
ENDBRANCH   6  13
ENDBRANCH   1   9
BRANCH   3  15
ATOM     15  C   UNL     1       2.024   4.722  20.055  0.00  0.00    +0.000 A 
ATOM     16  C   UNL     1       2.311   4.117  21.295  0.00  0.00    +0.000 A 
ATOM     17  C   UNL     1       2.301   2.726  21.442  0.00  0.00    +0.000 A 
ATOM     18  C   UNL     1       2.043   1.920  20.338  0.00  0.00    +0.000 A 
ATOM     19  C   UNL     1       1.816   2.503  19.091  0.00  0.00    +0.000 A 
ATOM     20  C   UNL     1       1.806   3.895  18.950  0.00  0.00    +0.000 A 
ENDBRANCH   3  15
BRANCH   4  21
ATOM     21  C   UNL     1       3.232   6.645  17.779  0.00  0.00    +0.000 C 
ATOM     22  N   UNL     1       4.324   7.312  17.656  0.00  0.00    +0.000 NA
BRANCH  22  23
ATOM     23  C   UNL     1       5.114   6.959  16.478  0.00  0.00    +0.000 C 
BRANCH  23  24
ATOM     24  C   UNL     1       6.578   6.919  16.938  0.00  0.00    +0.000 C 
BRANCH  24  25
ATOM     25  N   UNL     1       7.293   5.678  16.614  0.00  0.00    +0.000 NA
ATOM     26  C   UNL     1       7.409   4.755  17.764  0.00  0.00    +0.000 C 
ATOM     27  C   UNL     1       6.076   4.119  18.216  0.00  0.00    +0.000 C 
ATOM     28  N   UNL     1       5.366   3.440  17.123  0.00  0.00    +0.000 NA
ATOM     29  C   UNL     1       5.240   4.320  15.953  0.00  0.00    +0.000 C 
ATOM     30  C   UNL     1       6.584   4.961  15.526  0.00  0.00    +0.000 C 
ATOM     31  H   UNL     1       4.440   3.159  17.440  0.00  0.00    +0.000 HD
ENDBRANCH  24  25
ENDBRANCH  23  24
ENDBRANCH  22  23
ENDBRANCH   4  21
BRANCH   5  32
ATOM     32  O   UNL     1       2.294   9.411  18.551  0.00  0.00    +0.000 OA
ATOM     33  H   UNL     1       2.414   9.161  17.608  0.00  0.00    +0.000 HD
ENDBRANCH   5  32
TORSDOF 8
ENDMDL
MODEL 7
REMARK VINA RESULT:      -7.1      1.519      2.260
REMARK  Name = 
REMARK  8 active torsions:
REMARK  status: ('A' for Active; 'I' for Inactive)
REMARK    1  A    between atoms: N_2  and  C_4
REMARK    2  A    between atoms: C_7  and  N_8
REMARK    3  A    between atoms: C_10  and  C_11
REMARK    4  A    between atoms: C_17  and  C_18
REMARK    5  A    between atoms: N_19  and  C_20
REMARK    6  A    between atoms: C_20  and  C_21
REMARK    7  A    between atoms: C_21  and  N_22
REMARK    8  A    between atoms: C_28  and  O_29
REMARK                            x       y       z     vdW  Elec       q    Type
REMARK                         _______ _______ _______ _____ _____    ______ ____
ROOT
ATOM      1  N   UNL     1       2.027   8.121  19.018  0.00  0.00    +0.000 N 
ATOM      2  N   UNL     1       1.819   9.304  18.363  0.00  0.00    +0.000 NA
ATOM      3  C   UNL     1       1.171  10.088  19.249  0.00  0.00    +0.000 A 
ATOM      4  C   UNL     1       1.107   9.462  20.520  0.00  0.00    +0.000 A 
ATOM      5  C   UNL     1       1.660   8.215  20.348  0.00  0.00    +0.000 A 
ENDROOT
BRANCH   1   9
ATOM      6  C   UNL     1       3.830   4.675  17.359  0.00  0.00    +0.000 A 
ATOM      7  C   UNL     1       4.427   5.933  17.173  0.00  0.00    +0.000 A 
ATOM      8  C   UNL     1       3.803   7.090  17.668  0.00  0.00    +0.000 A 
ATOM      9  C   UNL     1       2.606   6.979  18.385  0.00  0.00    +0.000 A 
ATOM     10  C   UNL     1       2.001   5.717  18.522  0.00  0.00    +0.000 A 
ATOM     11  C   UNL     1       2.601   4.566  18.014  0.00  0.00    +0.000 A 
BRANCH   6  13
ATOM     12  O   UNL     1       5.408   3.591  16.052  0.00  0.00    +0.000 OA
ATOM     13  N   UNL     1       4.490   3.457  16.872  0.00  0.00    +0.000 N 
ATOM     14  O   UNL     1       4.099   2.368  17.316  0.00  0.00    +0.000 OA
ENDBRANCH   6  13
ENDBRANCH   1   9
BRANCH   3  15
ATOM     15  C   UNL     1       0.664  11.431  18.924  0.00  0.00    +0.000 A 
ATOM     16  C   UNL     1      -0.718  11.664  18.776  0.00  0.00    +0.000 A 
ATOM     17  C   UNL     1      -1.221  12.959  18.617  0.00  0.00    +0.000 A 
ATOM     18  C   UNL     1      -0.343  14.036  18.562  0.00  0.00    +0.000 A 
ATOM     19  C   UNL     1       1.032  13.815  18.648  0.00  0.00    +0.000 A 
ATOM     20  C   UNL     1       1.534  12.520  18.828  0.00  0.00    +0.000 A 
ENDBRANCH   3  15
BRANCH   4  21
ATOM     21  C   UNL     1       0.617   9.954  21.779  0.00  0.00    +0.000 C 
ATOM     22  N   UNL     1      -0.661  10.011  21.900  0.00  0.00    +0.000 NA
BRANCH  22  23
ATOM     23  C   UNL     1      -1.121  10.553  23.177  0.00  0.00    +0.000 C 
BRANCH  23  24
ATOM     24  C   UNL     1      -1.697  11.943  22.873  0.00  0.00    +0.000 C 
BRANCH  24  25
ATOM     25  N   UNL     1      -3.162  12.028  22.919  0.00  0.00    +0.000 NA
ATOM     26  C   UNL     1      -3.669  12.674  24.149  0.00  0.00    +0.000 C 
ATOM     27  C   UNL     1      -3.368  14.185  24.254  0.00  0.00    +0.000 C 
ATOM     28  N   UNL     1      -3.832  14.944  23.084  0.00  0.00    +0.000 NA
ATOM     29  C   UNL     1      -3.359  14.326  21.837  0.00  0.00    +0.000 C 
ATOM     30  C   UNL     1      -3.657  12.808  21.759  0.00  0.00    +0.000 C 
ATOM     31  H   UNL     1      -3.492  15.902  23.141  0.00  0.00    +0.000 HD
ENDBRANCH  24  25
ENDBRANCH  23  24
ENDBRANCH  22  23
ENDBRANCH   4  21
BRANCH   5  32
ATOM     32  O   UNL     1       1.892   7.265  21.261  0.00  0.00    +0.000 OA
ATOM     33  H   UNL     1       2.640   6.735  20.907  0.00  0.00    +0.000 HD
ENDBRANCH   5  32
TORSDOF 8
ENDMDL
MODEL 8
REMARK VINA RESULT:      -7.0      0.497      1.430
REMARK  Name = 
REMARK  8 active torsions:
REMARK  status: ('A' for Active; 'I' for Inactive)
REMARK    1  A    between atoms: N_2  and  C_4
REMARK    2  A    between atoms: C_7  and  N_8
REMARK    3  A    between atoms: C_10  and  C_11
REMARK    4  A    between atoms: C_17  and  C_18
REMARK    5  A    between atoms: N_19  and  C_20
REMARK    6  A    between atoms: C_20  and  C_21
REMARK    7  A    between atoms: C_21  and  N_22
REMARK    8  A    between atoms: C_28  and  O_29
REMARK                            x       y       z     vdW  Elec       q    Type
REMARK                         _______ _______ _______ _____ _____    ______ ____
ROOT
ATOM      1  N   UNL     1       2.773   7.605  18.414  0.00  0.00    +0.000 N 
ATOM      2  N   UNL     1       2.278   8.782  17.919  0.00  0.00    +0.000 NA
ATOM      3  C   UNL     1       1.357   9.182  18.820  0.00  0.00    +0.000 A 
ATOM      4  C   UNL     1       1.378   8.346  19.965  0.00  0.00    +0.000 A 
ATOM      5  C   UNL     1       2.287   7.354  19.684  0.00  0.00    +0.000 A 
ENDROOT
BRANCH   1   9
ATOM      6  C   UNL     1       5.658   5.169  16.511  0.00  0.00    +0.000 A 
ATOM      7  C   UNL     1       5.802   6.567  16.492  0.00  0.00    +0.000 A 
ATOM      8  C   UNL     1       4.818   7.386  17.068  0.00  0.00    +0.000 A 
ATOM      9  C   UNL     1       3.713   6.802  17.699  0.00  0.00    +0.000 A 
ATOM     10  C   UNL     1       3.564   5.404  17.669  0.00  0.00    +0.000 A 
ATOM     11  C   UNL     1       4.525   4.585  17.080  0.00  0.00    +0.000 A 
BRANCH   6  13
ATOM     12  O   UNL     1       6.398   3.628  14.945  0.00  0.00    +0.000 OA
ATOM     13  N   UNL     1       6.698   4.305  15.939  0.00  0.00    +0.000 N 
ATOM     14  O   UNL     1       7.815   4.308  16.475  0.00  0.00    +0.000 OA
ENDBRANCH   6  13
ENDBRANCH   1   9
BRANCH   3  15
ATOM     15  C   UNL     1       0.504  10.367  18.634  0.00  0.00    +0.000 A 
ATOM     16  C   UNL     1      -0.857  10.230  18.293  0.00  0.00    +0.000 A 
ATOM     17  C   UNL     1      -1.710  11.337  18.262  0.00  0.00    +0.000 A 
ATOM     18  C   UNL     1      -1.204  12.604  18.530  0.00  0.00    +0.000 A 
ATOM     19  C   UNL     1       0.154  12.763  18.811  0.00  0.00    +0.000 A 
ATOM     20  C   UNL     1       1.003  11.652  18.862  0.00  0.00    +0.000 A 
ENDBRANCH   3  15
BRANCH   4  21
ATOM     21  C   UNL     1       0.664   8.449  21.209  0.00  0.00    +0.000 C 
ATOM     22  N   UNL     1      -0.047   9.510  21.361  0.00  0.00    +0.000 NA
BRANCH  22  23
ATOM     23  C   UNL     1      -0.726   9.598  22.652  0.00  0.00    +0.000 C 
BRANCH  23  24
ATOM     24  C   UNL     1      -0.660  11.073  23.073  0.00  0.00    +0.000 C 
BRANCH  24  25
ATOM     25  N   UNL     1      -1.177  12.022  22.078  0.00  0.00    +0.000 NA
ATOM     26  C   UNL     1      -2.654  12.092  22.054  0.00  0.00    +0.000 C 
ATOM     27  C   UNL     1      -3.288  12.735  23.307  0.00  0.00    +0.000 C 
ATOM     28  N   UNL     1      -2.747  14.068  23.604  0.00  0.00    +0.000 NA
ATOM     29  C   UNL     1      -1.277  14.045  23.625  0.00  0.00    +0.000 C 
ATOM     30  C   UNL     1      -0.662  13.382  22.367  0.00  0.00    +0.000 C 
ATOM     31  H   UNL     1      -3.096  14.386  24.506  0.00  0.00    +0.000 HD
ENDBRANCH  24  25
ENDBRANCH  23  24
ENDBRANCH  22  23
ENDBRANCH   4  21
BRANCH   5  32
ATOM     32  O   UNL     1       2.715   6.359  20.469  0.00  0.00    +0.000 OA
ATOM     33  H   UNL     1       3.012   5.648  19.858  0.00  0.00    +0.000 HD
ENDBRANCH   5  32
TORSDOF 8
ENDMDL
MODEL 9
REMARK VINA RESULT:      -7.0      2.135      3.132
REMARK  Name = 
REMARK  8 active torsions:
REMARK  status: ('A' for Active; 'I' for Inactive)
REMARK    1  A    between atoms: N_2  and  C_4
REMARK    2  A    between atoms: C_7  and  N_8
REMARK    3  A    between atoms: C_10  and  C_11
REMARK    4  A    between atoms: C_17  and  C_18
REMARK    5  A    between atoms: N_19  and  C_20
REMARK    6  A    between atoms: C_20  and  C_21
REMARK    7  A    between atoms: C_21  and  N_22
REMARK    8  A    between atoms: C_28  and  O_29
REMARK                            x       y       z     vdW  Elec       q    Type
REMARK                         _______ _______ _______ _____ _____    ______ ____
ROOT
ATOM      1  N   UNL     1       1.033   8.895  19.076  0.00  0.00    +0.000 N 
ATOM      2  N   UNL     1       0.169   9.204  18.061  0.00  0.00    +0.000 NA
ATOM      3  C   UNL     1      -0.725  10.053  18.606  0.00  0.00    +0.000 A 
ATOM      4  C   UNL     1      -0.340  10.410  19.924  0.00  0.00    +0.000 A 
ATOM      5  C   UNL     1       0.781   9.663  20.198  0.00  0.00    +0.000 A 
ENDROOT
BRANCH   1   9
ATOM      6  C   UNL     1       4.005   5.947  18.479  0.00  0.00    +0.000 A 
ATOM      7  C   UNL     1       3.158   5.868  19.598  0.00  0.00    +0.000 A 
ATOM      8  C   UNL     1       2.209   6.875  19.836  0.00  0.00    +0.000 A 
ATOM      9  C   UNL     1       2.082   7.936  18.932  0.00  0.00    +0.000 A 
ATOM     10  C   UNL     1       2.968   8.021  17.843  0.00  0.00    +0.000 A 
ATOM     11  C   UNL     1       3.928   7.038  17.611  0.00  0.00    +0.000 A 
BRANCH   6  13
ATOM     12  O   UNL     1       5.975   4.813  18.937  0.00  0.00    +0.000 OA
ATOM     13  N   UNL     1       4.979   4.882  18.204  0.00  0.00    +0.000 N 
ATOM     14  O   UNL     1       4.745   4.111  17.264  0.00  0.00    +0.000 OA
ENDBRANCH   6  13
ENDBRANCH   1   9
BRANCH   3  15
ATOM     15  C   UNL     1      -1.899  10.568  17.883  0.00  0.00    +0.000 A 
ATOM     16  C   UNL     1      -2.133  10.210  16.540  0.00  0.00    +0.000 A 
ATOM     17  C   UNL     1      -3.319  10.569  15.892  0.00  0.00    +0.000 A 
ATOM     18  C   UNL     1      -4.270  11.327  16.566  0.00  0.00    +0.000 A 
ATOM     19  C   UNL     1      -4.026  11.739  17.876  0.00  0.00    +0.000 A 
ATOM     20  C   UNL     1      -2.848  11.362  18.532  0.00  0.00    +0.000 A 
ENDBRANCH   3  15
BRANCH   4  21
ATOM     21  C   UNL     1      -0.915  11.358  20.840  0.00  0.00    +0.000 C 
ATOM     22  N   UNL     1      -0.853  11.042  22.085  0.00  0.00    +0.000 NA
BRANCH  22  23
ATOM     23  C   UNL     1      -1.482  12.010  22.982  0.00  0.00    +0.000 C 
BRANCH  23  24
ATOM     24  C   UNL     1      -2.686  12.583  22.220  0.00  0.00    +0.000 C 
BRANCH  24  25
ATOM     25  N   UNL     1      -3.990  12.324  22.844  0.00  0.00    +0.000 NA
ATOM     26  C   UNL     1      -3.985  12.523  24.309  0.00  0.00    +0.000 C 
ATOM     27  C   UNL     1      -3.827  13.993  24.758  0.00  0.00    +0.000 C 
ATOM     28  N   UNL     1      -4.823  14.887  24.153  0.00  0.00    +0.000 NA
ATOM     29  C   UNL     1      -4.869  14.711  22.694  0.00  0.00    +0.000 C 
ATOM     30  C   UNL     1      -5.012  13.229  22.265  0.00  0.00    +0.000 C 
ATOM     31  H   UNL     1      -4.592  15.854  24.372  0.00  0.00    +0.000 HD
ENDBRANCH  24  25
ENDBRANCH  23  24
ENDBRANCH  22  23
ENDBRANCH   4  21
BRANCH   5  32
ATOM     32  O   UNL     1       1.561   9.684  21.285  0.00  0.00    +0.000 OA
ATOM     33  H   UNL     1       2.483   9.615  20.951  0.00  0.00    +0.000 HD
ENDBRANCH   5  32
TORSDOF 8
ENDMDL
