MODEL 1
REMARK VINA RESULT:      -7.8      0.000      0.000
REMARK  Name = 
REMARK  14 active torsions:
REMARK  status: ('A' for Active; 'I' for Inactive)
REMARK    1  A    between atoms: C_1  and  C_2
REMARK    2  A    between atoms: C_2  and  C_3
REMARK    3  A    between atoms: C_2  and  C_4
REMARK    4  A    between atoms: C_2  and  O_5
REMARK    5  A    between atoms: O_5  and  C_6
REMARK    6  A    between atoms: N_8  and  C_9
REMARK    7  A    between atoms: C_9  and  C_10
REMARK    8  A    between atoms: C_10  and  C_11
REMARK    9  A    between atoms: C_11  and  C_12
REMARK   10  A    between atoms: C_12  and  N_13
REMARK   11  A    between atoms: C_14  and  C_16
REMARK   12  A    between atoms: C_16  and  C_17
REMARK   13  A    between atoms: C_22  and  O_23
REMARK   14  A    between atoms: C_28  and  O_29
REMARK                            x       y       z     vdW  Elec       q    Type
REMARK                         _______ _______ _______ _____ _____    ______ ____
ROOT
ATOM      1  C   UNL     1       3.137   6.101  18.402  0.00  0.00    +0.000 C 
ATOM      2  C   UNL     1       2.520   4.889  19.086  0.00  0.00    +0.000 A 
ATOM      3  C   UNL     1       1.561   5.099  20.098  0.00  0.00    +0.000 A 
ATOM      4  C   UNL     1       0.882   4.033  20.684  0.00  0.00    +0.000 A 
ATOM      5  C   UNL     1       1.174   2.731  20.293  0.00  0.00    +0.000 A 
ATOM      6  C   UNL     1       2.151   2.499  19.322  0.00  0.00    +0.000 A 
ATOM      7  C   UNL     1       2.827   3.570  18.705  0.00  0.00    +0.000 A 
ATOM      8  C   UNL     1       3.857   3.334  17.655  0.00  0.00    +0.000 C 
ATOM      9  O   UNL     1       4.182   2.209  17.282  0.00  0.00    +0.000 OA
ATOM     10  C   UNL     1       4.565   4.482  17.040  0.00  0.00    +0.000 A 
ATOM     11  C   UNL     1       5.575   4.257  16.084  0.00  0.00    +0.000 A 
ATOM     12  C   UNL     1       6.266   5.317  15.506  0.00  0.00    +0.000 A 
ATOM     13  C   UNL     1       5.979   6.619  15.894  0.00  0.00    +0.000 A 
ATOM     14  C   UNL     1       4.991   6.854  16.851  0.00  0.00    +0.000 A 
ATOM     15  C   UNL     1       4.250   5.794  17.417  0.00  0.00    +0.000 A 
ENDROOT
BRANCH   6  16
ATOM     16  O   UNL     1       2.426   1.202  18.991  0.00  0.00    +0.000 OA
ATOM     17  H   UNL     1       1.660   0.638  19.176  0.00  0.00    +0.000 HD
ENDBRANCH   6  16
BRANCH  11  18
ATOM     18  O   UNL     1       5.947   3.006  15.665  0.00  0.00    +0.000 OA
ATOM     19  H   UNL     1       5.414   2.356  16.182  0.00  0.00    +0.000 HD
ENDBRANCH  11  18
BRANCH   1  20
ATOM     20  C   UNL     1       2.067   7.022  17.763  0.00  0.00    +0.000 C 
BRANCH  20  22
ATOM     21  N   UNL     1       1.256   8.465  19.555  0.00  0.00    +0.000 N 
ATOM     22  C   UNL     1       2.021   8.388  18.417  0.00  0.00    +0.000 C 
ATOM     23  O   UNL     1       2.623   9.354  17.955  0.00  0.00    +0.000 OA
ATOM     24  H   UNL     1       0.573   7.742  19.740  0.00  0.00    +0.000 HD
BRANCH  21  25
ATOM     25  C   UNL     1       1.127   9.731  20.249  0.00  0.00    +0.000 C 
BRANCH  25  26
ATOM     26  C   UNL     1      -0.288  10.280  20.143  0.00  0.00    +0.000 C 
BRANCH  26  27
ATOM     27  C   UNL     1      -0.471  11.086  18.854  0.00  0.00    +0.000 C 
BRANCH  27  28
ATOM     28  C   UNL     1      -1.199  10.255  17.801  0.00  0.00    +0.000 C 
BRANCH  28  31
ATOM     29  C   UNL     1      -3.539  10.695  17.309  0.00  0.00    +0.000 C 
ATOM     30  O   UNL     1      -3.254  11.371  16.336  0.00  0.00    +0.000 OA
ATOM     31  N   UNL     1      -2.608  10.093  18.098  0.00  0.00    +0.000 N 
ATOM     32  H   UNL     1      -2.929   9.517  18.859  0.00  0.00    +0.000 HD
BRANCH  29  33
ATOM     33  O   UNL     1      -4.802  10.442  17.757  0.00  0.00    +0.000 OA
BRANCH  33  35
ATOM     34  C   UNL     1      -6.025  12.500  17.204  0.00  0.00    +0.000 C 
ATOM     35  C   UNL     1      -5.555  11.554  18.318  0.00  0.00    +0.000 C 
ATOM     36  C   UNL     1      -4.743  12.292  19.394  0.00  0.00    +0.000 C 
ATOM     37  C   UNL     1      -6.811  10.964  18.984  0.00  0.00    +0.000 C 
ENDBRANCH  33  35
ENDBRANCH  29  33
ENDBRANCH  28  31
ENDBRANCH  27  28
ENDBRANCH  26  27
ENDBRANCH  25  26
ENDBRANCH  21  25
ENDBRANCH  20  22
ENDBRANCH   1  20
TORSDOF 11
ENDMDL
MODEL 2
REMARK VINA RESULT:      -7.8      1.536      2.133
REMARK  Name = 
REMARK  14 active torsions:
REMARK  status: ('A' for Active; 'I' for Inactive)
REMARK    1  A    between atoms: C_1  and  C_2
REMARK    2  A    between atoms: C_2  and  C_3
REMARK    3  A    between atoms: C_2  and  C_4
REMARK    4  A    between atoms: C_2  and  O_5
REMARK    5  A    between atoms: O_5  and  C_6
REMARK    6  A    between atoms: N_8  and  C_9
REMARK    7  A    between atoms: C_9  and  C_10
REMARK    8  A    between atoms: C_10  and  C_11
REMARK    9  A    between atoms: C_11  and  C_12
REMARK   10  A    between atoms: C_12  and  N_13
REMARK   11  A    between atoms: C_14  and  C_16
REMARK   12  A    between atoms: C_16  and  C_17
REMARK   13  A    between atoms: C_22  and  O_23
REMARK   14  A    between atoms: C_28  and  O_29
REMARK                            x       y       z     vdW  Elec       q    Type
REMARK                         _______ _______ _______ _____ _____    ______ ____
ROOT
ATOM      1  C   UNL     1       3.219   6.129  18.806  0.00  0.00    +0.000 C 
ATOM      2  C   UNL     1       2.516   4.848  19.234  0.00  0.00    +0.000 A 
ATOM      3  C   UNL     1       1.462   4.934  20.168  0.00  0.00    +0.000 A 
ATOM      4  C   UNL     1       0.710   3.814  20.515  0.00  0.00    +0.000 A 
ATOM      5  C   UNL     1       1.018   2.578  19.960  0.00  0.00    +0.000 A 
ATOM      6  C   UNL     1       2.085   2.463  19.064  0.00  0.00    +0.000 A 
ATOM      7  C   UNL     1       2.838   3.593  18.687  0.00  0.00    +0.000 A 
ATOM      8  C   UNL     1       3.964   3.485  17.718  0.00  0.00    +0.000 C 
ATOM      9  O   UNL     1       4.306   2.419  17.210  0.00  0.00    +0.000 OA
ATOM     10  C   UNL     1       4.749   4.689  17.358  0.00  0.00    +0.000 A 
ATOM     11  C   UNL     1       5.846   4.579  16.482  0.00  0.00    +0.000 A 
ATOM     12  C   UNL     1       6.610   5.691  16.143  0.00  0.00    +0.000 A 
ATOM     13  C   UNL     1       6.308   6.928  16.696  0.00  0.00    +0.000 A 
ATOM     14  C   UNL     1       5.232   7.048  17.577  0.00  0.00    +0.000 A 
ATOM     15  C   UNL     1       4.420   5.939  17.899  0.00  0.00    +0.000 A 
ENDROOT
BRANCH   6  16
ATOM     16  O   UNL     1       2.370   1.223  18.566  0.00  0.00    +0.000 OA
ATOM     17  H   UNL     1       3.218   0.908  18.915  0.00  0.00    +0.000 HD
ENDBRANCH   6  16
BRANCH  11  18
ATOM     18  O   UNL     1       6.239   3.394  15.914  0.00  0.00    +0.000 OA
ATOM     19  H   UNL     1       6.471   2.782  16.653  0.00  0.00    +0.000 HD
ENDBRANCH  11  18
BRANCH   1  20
ATOM     20  C   UNL     1       2.234   7.170  18.215  0.00  0.00    +0.000 C 
BRANCH  20  22
ATOM     21  N   UNL     1       1.679   7.937  20.463  0.00  0.00    +0.000 N 
ATOM     22  C   UNL     1       1.963   8.313  19.173  0.00  0.00    +0.000 C 
ATOM     23  O   UNL     1       1.992   9.487  18.814  0.00  0.00    +0.000 OA
ATOM     24  H   UNL     1       1.398   6.984  20.649  0.00  0.00    +0.000 HD
BRANCH  21  25
ATOM     25  C   UNL     1       1.385   8.950  21.457  0.00  0.00    +0.000 C 
BRANCH  25  26
ATOM     26  C   UNL     1      -0.114   9.173  21.595  0.00  0.00    +0.000 C 
BRANCH  26  27
ATOM     27  C   UNL     1      -0.414  10.527  22.242  0.00  0.00    +0.000 C 
BRANCH  27  28
ATOM     28  C   UNL     1      -0.338  11.644  21.206  0.00  0.00    +0.000 C 
BRANCH  28  31
ATOM     29  C   UNL     1      -1.208  11.903  18.950  0.00  0.00    +0.000 C 
ATOM     30  O   UNL     1      -0.113  12.214  18.514  0.00  0.00    +0.000 OA
ATOM     31  N   UNL     1      -1.432  11.596  20.256  0.00  0.00    +0.000 N 
ATOM     32  H   UNL     1      -2.359  11.308  20.525  0.00  0.00    +0.000 HD
BRANCH  29  33
ATOM     33  O   UNL     1      -2.356  11.819  18.220  0.00  0.00    +0.000 OA
BRANCH  33  35
ATOM     34  C   UNL     1      -2.690  11.063  15.905  0.00  0.00    +0.000 C 
ATOM     35  C   UNL     1      -2.535  10.646  17.374  0.00  0.00    +0.000 C 
ATOM     36  C   UNL     1      -3.713   9.785  17.856  0.00  0.00    +0.000 C 
ATOM     37  C   UNL     1      -1.250   9.806  17.483  0.00  0.00    +0.000 C 
ENDBRANCH  33  35
ENDBRANCH  29  33
ENDBRANCH  28  31
ENDBRANCH  27  28
ENDBRANCH  26  27
ENDBRANCH  25  26
ENDBRANCH  21  25
ENDBRANCH  20  22
ENDBRANCH   1  20
TORSDOF 11
ENDMDL
MODEL 3
REMARK VINA RESULT:      -7.8      1.068      1.350
REMARK  Name = 
REMARK  14 active torsions:
REMARK  status: ('A' for Active; 'I' for Inactive)
REMARK    1  A    between atoms: C_1  and  C_2
REMARK    2  A    between atoms: C_2  and  C_3
REMARK    3  A    between atoms: C_2  and  C_4
REMARK    4  A    between atoms: C_2  and  O_5
REMARK    5  A    between atoms: O_5  and  C_6
REMARK    6  A    between atoms: N_8  and  C_9
REMARK    7  A    between atoms: C_9  and  C_10
REMARK    8  A    between atoms: C_10  and  C_11
REMARK    9  A    between atoms: C_11  and  C_12
REMARK   10  A    between atoms: C_12  and  N_13
REMARK   11  A    between atoms: C_14  and  C_16
REMARK   12  A    between atoms: C_16  and  C_17
REMARK   13  A    between atoms: C_22  and  O_23
REMARK   14  A    between atoms: C_28  and  O_29
REMARK                            x       y       z     vdW  Elec       q    Type
REMARK                         _______ _______ _______ _____ _____    ______ ____
ROOT
ATOM      1  C   UNL     1       3.206   6.184  18.521  0.00  0.00    +0.000 C 
ATOM      2  C   UNL     1       2.499   4.968  19.102  0.00  0.00    +0.000 A 
ATOM      3  C   UNL     1       1.477   5.169  20.053  0.00  0.00    +0.000 A 
ATOM      4  C   UNL     1       0.721   4.105  20.538  0.00  0.00    +0.000 A 
ATOM      5  C   UNL     1       0.995   2.812  20.108  0.00  0.00    +0.000 A 
ATOM      6  C   UNL     1       2.030   2.586  19.197  0.00  0.00    +0.000 A 
ATOM      7  C   UNL     1       2.786   3.657  18.681  0.00  0.00    +0.000 A 
ATOM      8  C   UNL     1       3.880   3.429  17.695  0.00  0.00    +0.000 C 
ATOM      9  O   UNL     1       4.191   2.310  17.293  0.00  0.00    +0.000 OA
ATOM     10  C   UNL     1       4.670   4.574  17.187  0.00  0.00    +0.000 A 
ATOM     11  C   UNL     1       5.737   4.354  16.295  0.00  0.00    +0.000 A 
ATOM     12  C   UNL     1       6.505   5.411  15.818  0.00  0.00    +0.000 A 
ATOM     13  C   UNL     1       6.238   6.704  16.246  0.00  0.00    +0.000 A 
ATOM     14  C   UNL     1       5.192   6.935  17.142  0.00  0.00    +0.000 A 
ATOM     15  C   UNL     1       4.375   5.879  17.603  0.00  0.00    +0.000 A 
ENDROOT
BRANCH   6  16
ATOM     16  O   UNL     1       2.282   1.295  18.825  0.00  0.00    +0.000 OA
ATOM     17  H   UNL     1       3.236   1.156  18.721  0.00  0.00    +0.000 HD
ENDBRANCH   6  16
BRANCH  11  18
ATOM     18  O   UNL     1       6.095   3.109  15.844  0.00  0.00    +0.000 OA
ATOM     19  H   UNL     1       5.297   2.533  15.920  0.00  0.00    +0.000 HD
ENDBRANCH  11  18
BRANCH   1  20
ATOM     20  C   UNL     1       2.218   7.174  17.853  0.00  0.00    +0.000 C 
BRANCH  20  22
ATOM     21  N   UNL     1       1.344   9.436  18.122  0.00  0.00    +0.000 N 
ATOM     22  C   UNL     1       1.872   8.339  18.759  0.00  0.00    +0.000 C 
ATOM     23  O   UNL     1       2.057   8.301  19.972  0.00  0.00    +0.000 OA
ATOM     24  H   UNL     1       1.464   9.531  17.122  0.00  0.00    +0.000 HD
BRANCH  21  25
ATOM     25  C   UNL     1       0.996  10.614  18.891  0.00  0.00    +0.000 C 
BRANCH  25  26
ATOM     26  C   UNL     1      -0.481  10.621  19.255  0.00  0.00    +0.000 C 
BRANCH  26  27
ATOM     27  C   UNL     1      -1.344  10.180  18.070  0.00  0.00    +0.000 C 
BRANCH  27  28
ATOM     28  C   UNL     1      -2.180  11.347  17.553  0.00  0.00    +0.000 C 
BRANCH  28  31
ATOM     29  C   UNL     1      -4.441  12.066  18.085  0.00  0.00    +0.000 C 
ATOM     30  O   UNL     1      -4.795  11.967  16.923  0.00  0.00    +0.000 OA
ATOM     31  N   UNL     1      -3.180  11.780  18.508  0.00  0.00    +0.000 N 
ATOM     32  H   UNL     1      -2.981  11.848  19.493  0.00  0.00    +0.000 HD
BRANCH  29  33
ATOM     33  O   UNL     1      -5.228  12.472  19.121  0.00  0.00    +0.000 OA
BRANCH  33  35
ATOM     34  C   UNL     1      -6.881  11.794  20.809  0.00  0.00    +0.000 C 
ATOM     35  C   UNL     1      -6.490  11.775  19.324  0.00  0.00    +0.000 C 
ATOM     36  C   UNL     1      -6.434  10.345  18.763  0.00  0.00    +0.000 C 
ATOM     37  C   UNL     1      -7.571  12.553  18.552  0.00  0.00    +0.000 C 
ENDBRANCH  33  35
ENDBRANCH  29  33
ENDBRANCH  28  31
ENDBRANCH  27  28
ENDBRANCH  26  27
ENDBRANCH  25  26
ENDBRANCH  21  25
ENDBRANCH  20  22
ENDBRANCH   1  20
TORSDOF 11
ENDMDL
MODEL 4
REMARK VINA RESULT:      -7.7      2.322     10.074
REMARK  Name = 
REMARK  14 active torsions:
REMARK  status: ('A' for Active; 'I' for Inactive)
REMARK    1  A    between atoms: C_1  and  C_2
REMARK    2  A    between atoms: C_2  and  C_3
REMARK    3  A    between atoms: C_2  and  C_4
REMARK    4  A    between atoms: C_2  and  O_5
REMARK    5  A    between atoms: O_5  and  C_6
REMARK    6  A    between atoms: N_8  and  C_9
REMARK    7  A    between atoms: C_9  and  C_10
REMARK    8  A    between atoms: C_10  and  C_11
REMARK    9  A    between atoms: C_11  and  C_12
REMARK   10  A    between atoms: C_12  and  N_13
REMARK   11  A    between atoms: C_14  and  C_16
REMARK   12  A    between atoms: C_16  and  C_17
REMARK   13  A    between atoms: C_22  and  O_23
REMARK   14  A    between atoms: C_28  and  O_29
REMARK                            x       y       z     vdW  Elec       q    Type
REMARK                         _______ _______ _______ _____ _____    ______ ____
ROOT
ATOM      1  C   UNL     1      -1.046  10.804  19.186  0.00  0.00    +0.000 C 
ATOM      2  C   UNL     1      -1.484  11.470  20.483  0.00  0.00    +0.000 A 
ATOM      3  C   UNL     1      -0.617  11.422  21.594  0.00  0.00    +0.000 A 
ATOM      4  C   UNL     1      -0.912  12.106  22.772  0.00  0.00    +0.000 A 
ATOM      5  C   UNL     1      -2.098  12.824  22.873  0.00  0.00    +0.000 A 
ATOM      6  C   UNL     1      -2.990  12.850  21.798  0.00  0.00    +0.000 A 
ATOM      7  C   UNL     1      -2.691  12.183  20.594  0.00  0.00    +0.000 A 
ATOM      8  C   UNL     1      -3.627  12.221  19.435  0.00  0.00    +0.000 C 
ATOM      9  O   UNL     1      -4.703  12.814  19.466  0.00  0.00    +0.000 OA
ATOM     10  C   UNL     1      -3.293  11.492  18.189  0.00  0.00    +0.000 A 
ATOM     11  C   UNL     1      -4.200  11.484  17.112  0.00  0.00    +0.000 A 
ATOM     12  C   UNL     1      -3.917  10.792  15.939  0.00  0.00    +0.000 A 
ATOM     13  C   UNL     1      -2.735  10.072  15.832  0.00  0.00    +0.000 A 
ATOM     14  C   UNL     1      -1.834  10.058  16.898  0.00  0.00    +0.000 A 
ATOM     15  C   UNL     1      -2.085  10.790  18.080  0.00  0.00    +0.000 A 
ENDROOT
BRANCH   6  16
ATOM     16  O   UNL     1      -4.157  13.544  21.954  0.00  0.00    +0.000 OA
ATOM     17  H   UNL     1      -4.009  14.490  21.800  0.00  0.00    +0.000 HD
ENDBRANCH   6  16
BRANCH  11  18
ATOM     18  O   UNL     1      -5.404  12.139  17.139  0.00  0.00    +0.000 OA
ATOM     19  H   UNL     1      -5.594  12.437  16.218  0.00  0.00    +0.000 HD
ENDBRANCH  11  18
BRANCH   1  20
ATOM     20  C   UNL     1       0.308  11.355  18.671  0.00  0.00    +0.000 C 
BRANCH  20  22
ATOM     21  N   UNL     1       1.074   9.071  19.058  0.00  0.00    +0.000 N 
ATOM     22  C   UNL     1       1.310  10.252  18.396  0.00  0.00    +0.000 C 
ATOM     23  O   UNL     1       2.264  10.409  17.639  0.00  0.00    +0.000 OA
ATOM     24  H   UNL     1       0.459   9.071  19.861  0.00  0.00    +0.000 HD
BRANCH  21  25
ATOM     25  C   UNL     1       1.982   7.956  18.882  0.00  0.00    +0.000 C 
BRANCH  25  26
ATOM     26  C   UNL     1       2.267   7.260  20.204  0.00  0.00    +0.000 C 
BRANCH  26  27
ATOM     27  C   UNL     1       1.776   5.810  20.182  0.00  0.00    +0.000 C 
BRANCH  27  28
ATOM     28  C   UNL     1       2.958   4.846  20.129  0.00  0.00    +0.000 C 
BRANCH  28  31
ATOM     29  C   UNL     1       5.265   4.771  19.362  0.00  0.00    +0.000 C 
ATOM     30  O   UNL     1       5.235   3.558  19.247  0.00  0.00    +0.000 OA
ATOM     31  N   UNL     1       4.199   5.508  19.782  0.00  0.00    +0.000 N 
ATOM     32  H   UNL     1       4.295   6.510  19.809  0.00  0.00    +0.000 HD
BRANCH  29  33
ATOM     33  O   UNL     1       6.341   5.566  19.101  0.00  0.00    +0.000 OA
BRANCH  33  35
ATOM     34  C   UNL     1       7.551   7.096  17.606  0.00  0.00    +0.000 C 
ATOM     35  C   UNL     1       6.635   5.869  17.707  0.00  0.00    +0.000 C 
ATOM     36  C   UNL     1       5.345   6.045  16.890  0.00  0.00    +0.000 C 
ATOM     37  C   UNL     1       7.407   4.667  17.133  0.00  0.00    +0.000 C 
ENDBRANCH  33  35
ENDBRANCH  29  33
ENDBRANCH  28  31
ENDBRANCH  27  28
ENDBRANCH  26  27
ENDBRANCH  25  26
ENDBRANCH  21  25
ENDBRANCH  20  22
ENDBRANCH   1  20
TORSDOF 11
ENDMDL
MODEL 5
REMARK VINA RESULT:      -7.6      2.105      2.702
REMARK  Name = 
REMARK  14 active torsions:
REMARK  status: ('A' for Active; 'I' for Inactive)
REMARK    1  A    between atoms: C_1  and  C_2
REMARK    2  A    between atoms: C_2  and  C_3
REMARK    3  A    between atoms: C_2  and  C_4
REMARK    4  A    between atoms: C_2  and  O_5
REMARK    5  A    between atoms: O_5  and  C_6
REMARK    6  A    between atoms: N_8  and  C_9
REMARK    7  A    between atoms: C_9  and  C_10
REMARK    8  A    between atoms: C_10  and  C_11
REMARK    9  A    between atoms: C_11  and  C_12
REMARK   10  A    between atoms: C_12  and  N_13
REMARK   11  A    between atoms: C_14  and  C_16
REMARK   12  A    between atoms: C_16  and  C_17
REMARK   13  A    between atoms: C_22  and  O_23
REMARK   14  A    between atoms: C_28  and  O_29
REMARK                            x       y       z     vdW  Elec       q    Type
REMARK                         _______ _______ _______ _____ _____    ______ ____
ROOT
ATOM      1  C   UNL     1       3.230   6.073  18.575  0.00  0.00    +0.000 C 
ATOM      2  C   UNL     1       2.528   4.837  19.116  0.00  0.00    +0.000 A 
ATOM      3  C   UNL     1       1.505   5.003  20.073  0.00  0.00    +0.000 A 
ATOM      4  C   UNL     1       0.752   3.921  20.523  0.00  0.00    +0.000 A 
ATOM      5  C   UNL     1       1.029   2.644  20.051  0.00  0.00    +0.000 A 
ATOM      6  C   UNL     1       2.066   2.451  19.134  0.00  0.00    +0.000 A 
ATOM      7  C   UNL     1       2.818   3.540  18.653  0.00  0.00    +0.000 A 
ATOM      8  C   UNL     1       3.912   3.348  17.660  0.00  0.00    +0.000 C 
ATOM      9  O   UNL     1       4.227   2.244  17.222  0.00  0.00    +0.000 OA
ATOM     10  C   UNL     1       4.699   4.512  17.189  0.00  0.00    +0.000 A 
ATOM     11  C   UNL     1       5.767   4.324  16.290  0.00  0.00    +0.000 A 
ATOM     12  C   UNL     1       6.532   5.398  15.848  0.00  0.00    +0.000 A 
ATOM     13  C   UNL     1       6.260   6.676  16.318  0.00  0.00    +0.000 A 
ATOM     14  C   UNL     1       5.214   6.874  17.221  0.00  0.00    +0.000 A 
ATOM     15  C   UNL     1       4.401   5.802  17.647  0.00  0.00    +0.000 A 
ENDROOT
BRANCH   6  16
ATOM     16  O   UNL     1       2.322   1.174  18.720  0.00  0.00    +0.000 OA
ATOM     17  H   UNL     1       3.101   0.823  19.176  0.00  0.00    +0.000 HD
ENDBRANCH   6  16
BRANCH  11  18
ATOM     18  O   UNL     1       6.128   3.096  15.799  0.00  0.00    +0.000 OA
ATOM     19  H   UNL     1       6.767   2.704  16.441  0.00  0.00    +0.000 HD
ENDBRANCH  11  18
BRANCH   1  20
ATOM     20  C   UNL     1       2.239   7.081  17.940  0.00  0.00    +0.000 C 
BRANCH  20  22
ATOM     21  N   UNL     1       1.417   9.357  18.250  0.00  0.00    +0.000 N 
ATOM     22  C   UNL     1       1.924   8.239  18.866  0.00  0.00    +0.000 C 
ATOM     23  O   UNL     1       2.117   8.178  20.077  0.00  0.00    +0.000 OA
ATOM     24  H   UNL     1       1.532   9.465  17.251  0.00  0.00    +0.000 HD
BRANCH  21  25
ATOM     25  C   UNL     1       1.099  10.530  19.040  0.00  0.00    +0.000 C 
BRANCH  25  26
ATOM     26  C   UNL     1      -0.359  10.527  19.474  0.00  0.00    +0.000 C 
BRANCH  26  27
ATOM     27  C   UNL     1      -1.295  10.592  18.264  0.00  0.00    +0.000 C 
BRANCH  27  28
ATOM     28  C   UNL     1      -2.139  11.863  18.308  0.00  0.00    +0.000 C 
BRANCH  28  31
ATOM     29  C   UNL     1      -2.810  12.939  20.383  0.00  0.00    +0.000 C 
ATOM     30  O   UNL     1      -3.940  12.491  20.303  0.00  0.00    +0.000 OA
ATOM     31  N   UNL     1      -1.840  12.688  19.461  0.00  0.00    +0.000 N 
ATOM     32  H   UNL     1      -0.919  13.063  19.624  0.00  0.00    +0.000 HD
BRANCH  29  33
ATOM     33  O   UNL     1      -2.345  13.745  21.379  0.00  0.00    +0.000 OA
BRANCH  33  35
ATOM     34  C   UNL     1      -1.443  14.108  23.636  0.00  0.00    +0.000 C 
ATOM     35  C   UNL     1      -2.245  13.177  22.716  0.00  0.00    +0.000 C 
ATOM     36  C   UNL     1      -1.654  11.759  22.677  0.00  0.00    +0.000 C 
ATOM     37  C   UNL     1      -3.674  13.087  23.282  0.00  0.00    +0.000 C 
ENDBRANCH  33  35
ENDBRANCH  29  33
ENDBRANCH  28  31
ENDBRANCH  27  28
ENDBRANCH  26  27
ENDBRANCH  25  26
ENDBRANCH  21  25
ENDBRANCH  20  22
ENDBRANCH   1  20
TORSDOF 11
ENDMDL
MODEL 6
REMARK VINA RESULT:      -7.6      2.665      3.185
REMARK  Name = 
REMARK  14 active torsions:
REMARK  status: ('A' for Active; 'I' for Inactive)
REMARK    1  A    between atoms: C_1  and  C_2
REMARK    2  A    between atoms: C_2  and  C_3
REMARK    3  A    between atoms: C_2  and  C_4
REMARK    4  A    between atoms: C_2  and  O_5
REMARK    5  A    between atoms: O_5  and  C_6
REMARK    6  A    between atoms: N_8  and  C_9
REMARK    7  A    between atoms: C_9  and  C_10
REMARK    8  A    between atoms: C_10  and  C_11
REMARK    9  A    between atoms: C_11  and  C_12
REMARK   10  A    between atoms: C_12  and  N_13
REMARK   11  A    between atoms: C_14  and  C_16
REMARK   12  A    between atoms: C_16  and  C_17
REMARK   13  A    between atoms: C_22  and  O_23
REMARK   14  A    between atoms: C_28  and  O_29
REMARK                            x       y       z     vdW  Elec       q    Type
REMARK                         _______ _______ _______ _____ _____    ______ ____
ROOT
ATOM      1  C   UNL     1       3.148   6.050  18.458  0.00  0.00    +0.000 C 
ATOM      2  C   UNL     1       2.514   4.815  19.082  0.00  0.00    +0.000 A 
ATOM      3  C   UNL     1       1.531   4.989  20.079  0.00  0.00    +0.000 A 
ATOM      4  C   UNL     1       0.838   3.903  20.608  0.00  0.00    +0.000 A 
ATOM      5  C   UNL     1       1.137   2.617  20.176  0.00  0.00    +0.000 A 
ATOM      6  C   UNL     1       2.137   2.419  19.220  0.00  0.00    +0.000 A 
ATOM      7  C   UNL     1       2.828   3.511  18.659  0.00  0.00    +0.000 A 
ATOM      8  C   UNL     1       3.882   3.312  17.625  0.00  0.00    +0.000 C 
ATOM      9  O   UNL     1       4.214   2.201  17.218  0.00  0.00    +0.000 OA
ATOM     10  C   UNL     1       4.605   4.481  17.070  0.00  0.00    +0.000 A 
ATOM     11  C   UNL     1       5.637   4.290  16.131  0.00  0.00    +0.000 A 
ATOM     12  C   UNL     1       6.343   5.369  15.609  0.00  0.00    +0.000 A 
ATOM     13  C   UNL     1       6.049   6.656  16.039  0.00  0.00    +0.000 A 
ATOM     14  C   UNL     1       5.039   6.857  16.980  0.00  0.00    +0.000 A 
ATOM     15  C   UNL     1       4.283   5.778  17.489  0.00  0.00    +0.000 A 
ENDROOT
BRANCH   6  16
ATOM     16  O   UNL     1       2.418   1.134  18.847  0.00  0.00    +0.000 OA
ATOM     17  H   UNL     1       2.297   1.028  17.891  0.00  0.00    +0.000 HD
ENDBRANCH   6  16
BRANCH  11  18
ATOM     18  O   UNL     1       6.018   3.054  15.674  0.00  0.00    +0.000 OA
ATOM     19  H   UNL     1       5.358   2.780  14.993  0.00  0.00    +0.000 HD
ENDBRANCH  11  18
BRANCH   1  20
ATOM     20  C   UNL     1       2.094   6.997  17.829  0.00  0.00    +0.000 C 
BRANCH  20  22
ATOM     21  N   UNL     1       1.699   9.404  17.847  0.00  0.00    +0.000 N 
ATOM     22  C   UNL     1       1.943   8.287  18.609  0.00  0.00    +0.000 C 
ATOM     23  O   UNL     1       2.038   8.327  19.833  0.00  0.00    +0.000 OA
ATOM     24  H   UNL     1       1.900   9.379  16.856  0.00  0.00    +0.000 HD
BRANCH  21  25
ATOM     25  C   UNL     1       1.558  10.695  18.491  0.00  0.00    +0.000 C 
BRANCH  25  26
ATOM     26  C   UNL     1       0.099  11.120  18.565  0.00  0.00    +0.000 C 
BRANCH  26  27
ATOM     27  C   UNL     1      -0.509  10.771  19.926  0.00  0.00    +0.000 C 
BRANCH  27  28
ATOM     28  C   UNL     1       0.370  11.300  21.056  0.00  0.00    +0.000 C 
BRANCH  28  31
ATOM     29  C   UNL     1      -0.949  12.161  22.908  0.00  0.00    +0.000 C 
ATOM     30  O   UNL     1      -1.089  11.049  23.386  0.00  0.00    +0.000 OA
ATOM     31  N   UNL     1      -0.245  12.402  21.768  0.00  0.00    +0.000 N 
ATOM     32  H   UNL     1      -0.143  13.357  21.464  0.00  0.00    +0.000 HD
BRANCH  29  33
ATOM     33  O   UNL     1      -1.464  13.315  23.421  0.00  0.00    +0.000 OA
BRANCH  33  35
ATOM     34  C   UNL     1      -3.546  12.596  22.330  0.00  0.00    +0.000 C 
ATOM     35  C   UNL     1      -2.743  13.775  22.898  0.00  0.00    +0.000 C 
ATOM     36  C   UNL     1      -2.553  14.893  21.861  0.00  0.00    +0.000 C 
ATOM     37  C   UNL     1      -3.541  14.349  24.083  0.00  0.00    +0.000 C 
ENDBRANCH  33  35
ENDBRANCH  29  33
ENDBRANCH  28  31
ENDBRANCH  27  28
ENDBRANCH  26  27
ENDBRANCH  25  26
ENDBRANCH  21  25
ENDBRANCH  20  22
ENDBRANCH   1  20
TORSDOF 11
ENDMDL
MODEL 7
REMARK VINA RESULT:      -7.6      2.703      3.165
REMARK  Name = 
REMARK  14 active torsions:
REMARK  status: ('A' for Active; 'I' for Inactive)
REMARK    1  A    between atoms: C_1  and  C_2
REMARK    2  A    between atoms: C_2  and  C_3
REMARK    3  A    between atoms: C_2  and  C_4
REMARK    4  A    between atoms: C_2  and  O_5
REMARK    5  A    between atoms: O_5  and  C_6
REMARK    6  A    between atoms: N_8  and  C_9
REMARK    7  A    between atoms: C_9  and  C_10
REMARK    8  A    between atoms: C_10  and  C_11
REMARK    9  A    between atoms: C_11  and  C_12
REMARK   10  A    between atoms: C_12  and  N_13
REMARK   11  A    between atoms: C_14  and  C_16
REMARK   12  A    between atoms: C_16  and  C_17
REMARK   13  A    between atoms: C_22  and  O_23
REMARK   14  A    between atoms: C_28  and  O_29
REMARK                            x       y       z     vdW  Elec       q    Type
REMARK                         _______ _______ _______ _____ _____    ______ ____
ROOT
ATOM      1  C   UNL     1       3.250   6.167  18.812  0.00  0.00    +0.000 C 
ATOM      2  C   UNL     1       2.545   4.884  19.228  0.00  0.00    +0.000 A 
ATOM      3  C   UNL     1       1.467   4.967  20.132  0.00  0.00    +0.000 A 
ATOM      4  C   UNL     1       0.714   3.843  20.465  0.00  0.00    +0.000 A 
ATOM      5  C   UNL     1       1.046   2.606  19.926  0.00  0.00    +0.000 A 
ATOM      6  C   UNL     1       2.137   2.495  19.060  0.00  0.00    +0.000 A 
ATOM      7  C   UNL     1       2.891   3.627  18.697  0.00  0.00    +0.000 A 
ATOM      8  C   UNL     1       4.044   3.523  17.759  0.00  0.00    +0.000 C 
ATOM      9  O   UNL     1       4.408   2.457  17.267  0.00  0.00    +0.000 OA
ATOM     10  C   UNL     1       4.830   4.731  17.413  0.00  0.00    +0.000 A 
ATOM     11  C   UNL     1       5.951   4.624  16.568  0.00  0.00    +0.000 A 
ATOM     12  C   UNL     1       6.716   5.739  16.243  0.00  0.00    +0.000 A 
ATOM     13  C   UNL     1       6.389   6.977  16.781  0.00  0.00    +0.000 A 
ATOM     14  C   UNL     1       5.289   7.094  17.632  0.00  0.00    +0.000 A 
ATOM     15  C   UNL     1       4.477   5.981  17.938  0.00  0.00    +0.000 A 
ENDROOT
BRANCH   6  16
ATOM     16  O   UNL     1       2.445   1.253  18.577  0.00  0.00    +0.000 OA
ATOM     17  H   UNL     1       2.153   0.570  19.199  0.00  0.00    +0.000 HD
ENDBRANCH   6  16
BRANCH  11  18
ATOM     18  O   UNL     1       6.367   3.438  16.018  0.00  0.00    +0.000 OA
ATOM     19  H   UNL     1       6.572   3.615  15.069  0.00  0.00    +0.000 HD
ENDBRANCH  11  18
BRANCH   1  20
ATOM     20  C   UNL     1       2.274   7.197  18.188  0.00  0.00    +0.000 C 
BRANCH  20  22
ATOM     21  N   UNL     1       1.772   7.903  20.469  0.00  0.00    +0.000 N 
ATOM     22  C   UNL     1       1.905   8.300  19.160  0.00  0.00    +0.000 C 
ATOM     23  O   UNL     1       1.732   9.460  18.797  0.00  0.00    +0.000 OA
ATOM     24  H   UNL     1       1.651   6.921  20.677  0.00  0.00    +0.000 HD
BRANCH  21  25
ATOM     25  C   UNL     1       1.402   8.874  21.478  0.00  0.00    +0.000 C 
BRANCH  25  26
ATOM     26  C   UNL     1      -0.021   8.650  21.968  0.00  0.00    +0.000 C 
BRANCH  26  27
ATOM     27  C   UNL     1      -0.370   9.608  23.109  0.00  0.00    +0.000 C 
BRANCH  27  28
ATOM     28  C   UNL     1      -0.773  10.973  22.557  0.00  0.00    +0.000 C 
BRANCH  28  31
ATOM     29  C   UNL     1      -2.147  12.865  23.225  0.00  0.00    +0.000 C 
ATOM     30  O   UNL     1      -1.403  13.658  22.674  0.00  0.00    +0.000 OA
ATOM     31  N   UNL     1      -1.937  11.520  23.225  0.00  0.00    +0.000 N 
ATOM     32  H   UNL     1      -2.624  10.931  23.668  0.00  0.00    +0.000 HD
BRANCH  29  33
ATOM     33  O   UNL     1      -3.277  13.187  23.916  0.00  0.00    +0.000 OA
BRANCH  33  35
ATOM     34  C   UNL     1      -4.468  12.763  21.808  0.00  0.00    +0.000 C 
ATOM     35  C   UNL     1      -4.468  13.517  23.146  0.00  0.00    +0.000 C 
ATOM     36  C   UNL     1      -4.603  15.035  22.950  0.00  0.00    +0.000 C 
ATOM     37  C   UNL     1      -5.684  13.026  23.953  0.00  0.00    +0.000 C 
ENDBRANCH  33  35
ENDBRANCH  29  33
ENDBRANCH  28  31
ENDBRANCH  27  28
ENDBRANCH  26  27
ENDBRANCH  25  26
ENDBRANCH  21  25
ENDBRANCH  20  22
ENDBRANCH   1  20
TORSDOF 11
ENDMDL
MODEL 8
REMARK VINA RESULT:      -7.6      0.727      1.054
REMARK  Name = 
REMARK  14 active torsions:
REMARK  status: ('A' for Active; 'I' for Inactive)
REMARK    1  A    between atoms: C_1  and  C_2
REMARK    2  A    between atoms: C_2  and  C_3
REMARK    3  A    between atoms: C_2  and  C_4
REMARK    4  A    between atoms: C_2  and  O_5
REMARK    5  A    between atoms: O_5  and  C_6
REMARK    6  A    between atoms: N_8  and  C_9
REMARK    7  A    between atoms: C_9  and  C_10
REMARK    8  A    between atoms: C_10  and  C_11
REMARK    9  A    between atoms: C_11  and  C_12
REMARK   10  A    between atoms: C_12  and  N_13
REMARK   11  A    between atoms: C_14  and  C_16
REMARK   12  A    between atoms: C_16  and  C_17
REMARK   13  A    between atoms: C_22  and  O_23
REMARK   14  A    between atoms: C_28  and  O_29
REMARK                            x       y       z     vdW  Elec       q    Type
REMARK                         _______ _______ _______ _____ _____    ______ ____
ROOT
ATOM      1  C   UNL     1       3.108   6.146  18.251  0.00  0.00    +0.000 C 
ATOM      2  C   UNL     1       2.486   4.984  19.012  0.00  0.00    +0.000 A 
ATOM      3  C   UNL     1       1.548   5.264  20.027  0.00  0.00    +0.000 A 
ATOM      4  C   UNL     1       0.864   4.242  20.682  0.00  0.00    +0.000 A 
ATOM      5  C   UNL     1       1.129   2.917  20.358  0.00  0.00    +0.000 A 
ATOM      6  C   UNL     1       2.085   2.617  19.383  0.00  0.00    +0.000 A 
ATOM      7  C   UNL     1       2.766   3.642  18.697  0.00  0.00    +0.000 A 
ATOM      8  C   UNL     1       3.772   3.332  17.644  0.00  0.00    +0.000 C 
ATOM      9  O   UNL     1       4.073   2.184  17.327  0.00  0.00    +0.000 OA
ATOM     10  C   UNL     1       4.486   4.433  16.955  0.00  0.00    +0.000 A 
ATOM     11  C   UNL     1       5.475   4.141  15.995  0.00  0.00    +0.000 A 
ATOM     12  C   UNL     1       6.172   5.156  15.349  0.00  0.00    +0.000 A 
ATOM     13  C   UNL     1       5.912   6.482  15.670  0.00  0.00    +0.000 A 
ATOM     14  C   UNL     1       4.945   6.785  16.630  0.00  0.00    +0.000 A 
ATOM     15  C   UNL     1       4.198   5.769  17.265  0.00  0.00    +0.000 A 
ENDROOT
BRANCH   6  16
ATOM     16  O   UNL     1       2.334   1.299  19.119  0.00  0.00    +0.000 OA
ATOM     17  H   UNL     1       2.464   1.166  18.168  0.00  0.00    +0.000 HD
ENDBRANCH   6  16
BRANCH  11  18
ATOM     18  O   UNL     1       5.821   2.863  15.639  0.00  0.00    +0.000 OA
ATOM     19  H   UNL     1       5.294   2.251  16.206  0.00  0.00    +0.000 HD
ENDBRANCH  11  18
BRANCH   1  20
ATOM     20  C   UNL     1       2.041   7.049  17.582  0.00  0.00    +0.000 C 
BRANCH  20  22
ATOM     21  N   UNL     1       0.909   8.892  18.711  0.00  0.00    +0.000 N 
ATOM     22  C   UNL     1       2.072   8.467  18.115  0.00  0.00    +0.000 C 
ATOM     23  O   UNL     1       3.065   9.182  18.014  0.00  0.00    +0.000 OA
ATOM     24  H   UNL     1       0.050   8.389  18.531  0.00  0.00    +0.000 HD
BRANCH  21  25
ATOM     25  C   UNL     1       0.824  10.240  19.237  0.00  0.00    +0.000 C 
BRANCH  25  26
ATOM     26  C   UNL     1      -0.545  10.512  19.844  0.00  0.00    +0.000 C 
BRANCH  26  27
ATOM     27  C   UNL     1      -1.210  11.723  19.185  0.00  0.00    +0.000 C 
BRANCH  27  28
ATOM     28  C   UNL     1      -1.543  11.424  17.726  0.00  0.00    +0.000 C 
BRANCH  28  31
ATOM     29  C   UNL     1      -3.911  10.960  17.429  0.00  0.00    +0.000 C 
ATOM     30  O   UNL     1      -3.778   9.805  17.794  0.00  0.00    +0.000 OA
ATOM     31  N   UNL     1      -2.880  11.847  17.364  0.00  0.00    +0.000 N 
ATOM     32  H   UNL     1      -3.085  12.795  17.092  0.00  0.00    +0.000 HD
BRANCH  29  33
ATOM     33  O   UNL     1      -5.082  11.536  17.034  0.00  0.00    +0.000 OA
BRANCH  33  35
ATOM     34  C   UNL     1      -6.770  10.617  18.565  0.00  0.00    +0.000 C 
ATOM     35  C   UNL     1      -6.049  11.878  18.068  0.00  0.00    +0.000 C 
ATOM     36  C   UNL     1      -7.037  12.948  17.576  0.00  0.00    +0.000 C 
ATOM     37  C   UNL     1      -5.262  12.459  19.256  0.00  0.00    +0.000 C 
ENDBRANCH  33  35
ENDBRANCH  29  33
ENDBRANCH  28  31
ENDBRANCH  27  28
ENDBRANCH  26  27
ENDBRANCH  25  26
ENDBRANCH  21  25
ENDBRANCH  20  22
ENDBRANCH   1  20
TORSDOF 11
ENDMDL
MODEL 9
REMARK VINA RESULT:      -7.6      2.399      2.987
REMARK  Name = 
REMARK  14 active torsions:
REMARK  status: ('A' for Active; 'I' for Inactive)
REMARK    1  A    between atoms: C_1  and  C_2
REMARK    2  A    between atoms: C_2  and  C_3
REMARK    3  A    between atoms: C_2  and  C_4
REMARK    4  A    between atoms: C_2  and  O_5
REMARK    5  A    between atoms: O_5  and  C_6
REMARK    6  A    between atoms: N_8  and  C_9
REMARK    7  A    between atoms: C_9  and  C_10
REMARK    8  A    between atoms: C_10  and  C_11
REMARK    9  A    between atoms: C_11  and  C_12
REMARK   10  A    between atoms: C_12  and  N_13
REMARK   11  A    between atoms: C_14  and  C_16
REMARK   12  A    between atoms: C_16  and  C_17
REMARK   13  A    between atoms: C_22  and  O_23
REMARK   14  A    between atoms: C_28  and  O_29
REMARK                            x       y       z     vdW  Elec       q    Type
REMARK                         _______ _______ _______ _____ _____    ______ ____
ROOT
ATOM      1  C   UNL     1       3.079   6.100  18.311  0.00  0.00    +0.000 C 
ATOM      2  C   UNL     1       2.508   4.909  19.067  0.00  0.00    +0.000 A 
ATOM      3  C   UNL     1       1.578   5.146  20.100  0.00  0.00    +0.000 A 
ATOM      4  C   UNL     1       0.938   4.095  20.753  0.00  0.00    +0.000 A 
ATOM      5  C   UNL     1       1.242   2.783  20.410  0.00  0.00    +0.000 A 
ATOM      6  C   UNL     1       2.192   2.526  19.417  0.00  0.00    +0.000 A 
ATOM      7  C   UNL     1       2.827   3.580  18.733  0.00  0.00    +0.000 A 
ATOM      8  C   UNL     1       3.826   3.316  17.660  0.00  0.00    +0.000 C 
ATOM      9  O   UNL     1       4.160   2.182  17.325  0.00  0.00    +0.000 OA
ATOM     10  C   UNL     1       4.492   4.448  16.973  0.00  0.00    +0.000 A 
ATOM     11  C   UNL     1       5.474   4.200  15.995  0.00  0.00    +0.000 A 
ATOM     12  C   UNL     1       6.127   5.245  15.349  0.00  0.00    +0.000 A 
ATOM     13  C   UNL     1       5.828   6.557  15.690  0.00  0.00    +0.000 A 
ATOM     14  C   UNL     1       4.868   6.817  16.669  0.00  0.00    +0.000 A 
ATOM     15  C   UNL     1       4.165   5.770  17.303  0.00  0.00    +0.000 A 
ENDROOT
BRANCH   6  16
ATOM     16  O   UNL     1       2.480   1.220  19.134  0.00  0.00    +0.000 OA
ATOM     17  H   UNL     1       3.412   1.033  19.324  0.00  0.00    +0.000 HD
ENDBRANCH   6  16
BRANCH  11  18
ATOM     18  O   UNL     1       5.857   2.938  15.618  0.00  0.00    +0.000 OA
ATOM     19  H   UNL     1       5.266   2.665  14.876  0.00  0.00    +0.000 HD
ENDBRANCH  11  18
BRANCH   1  20
ATOM     20  C   UNL     1       1.972   6.974  17.669  0.00  0.00    +0.000 C 
BRANCH  20  22
ATOM     21  N   UNL     1       1.510   8.502  19.514  0.00  0.00    +0.000 N 
ATOM     22  C   UNL     1       1.961   8.385  18.221  0.00  0.00    +0.000 C 
ATOM     23  O   UNL     1       2.326   9.350  17.556  0.00  0.00    +0.000 OA
ATOM     24  H   UNL     1       0.973   7.747  19.919  0.00  0.00    +0.000 HD
BRANCH  21  25
ATOM     25  C   UNL     1       1.440   9.810  20.134  0.00  0.00    +0.000 C 
BRANCH  25  26
ATOM     26  C   UNL     1       0.036  10.112  20.634  0.00  0.00    +0.000 C 
BRANCH  26  27
ATOM     27  C   UNL     1      -0.326   9.225  21.829  0.00  0.00    +0.000 C 
BRANCH  27  28
ATOM     28  C   UNL     1      -0.397  10.053  23.108  0.00  0.00    +0.000 C 
BRANCH  28  31
ATOM     29  C   UNL     1      -1.395  12.270  23.089  0.00  0.00    +0.000 C 
ATOM     30  O   UNL     1      -0.307  12.810  22.996  0.00  0.00    +0.000 OA
ATOM     31  N   UNL     1      -1.558  10.920  23.145  0.00  0.00    +0.000 N 
ATOM     32  H   UNL     1      -2.496  10.554  23.179  0.00  0.00    +0.000 HD
BRANCH  29  33
ATOM     33  O   UNL     1      -2.596  12.914  23.155  0.00  0.00    +0.000 OA
BRANCH  33  35
ATOM     34  C   UNL     1      -4.573  12.737  21.705  0.00  0.00    +0.000 C 
ATOM     35  C   UNL     1      -3.188  13.368  21.904  0.00  0.00    +0.000 C 
ATOM     36  C   UNL     1      -2.255  13.094  20.714  0.00  0.00    +0.000 C 
ATOM     37  C   UNL     1      -3.386  14.890  22.019  0.00  0.00    +0.000 C 
ENDBRANCH  33  35
ENDBRANCH  29  33
ENDBRANCH  28  31
ENDBRANCH  27  28
ENDBRANCH  26  27
ENDBRANCH  25  26
ENDBRANCH  21  25
ENDBRANCH  20  22
ENDBRANCH   1  20
TORSDOF 11
ENDMDL
