MODEL 1
REMARK VINA RESULT:      -7.7      0.000      0.000
REMARK  Name = 
REMARK  6 active torsions:
REMARK  status: ('A' for Active; 'I' for Inactive)
REMARK    1  A    between atoms: C_2  and  C_3
REMARK    2  A    between atoms: C_3  and  O_4
REMARK    3  A    between atoms: O_4  and  C_5
REMARK    4  A    between atoms: C_5  and  C_6
REMARK    5  A    between atoms: C_15  and  O_16
REMARK    6  A    between atoms: C_15  and  C_17
REMARK                            x       y       z     vdW  Elec       q    Type
REMARK                         _______ _______ _______ _____ _____    ______ ____
ROOT
ATOM      1  O   UNL     1       1.250   4.210  17.433  0.00  0.00    +0.000 OA
ATOM      2  C   UNL     1       1.974   3.807  18.349  0.00  0.00    +0.000 C 
ATOM      3  N   UNL     1       3.287   3.417  18.121  0.00  0.00    +0.000 N 
ATOM      4  C   UNL     1       3.830   3.586  16.782  0.00  0.00    +0.000 C 
ATOM      5  C   UNL     1       4.710   4.824  16.759  0.00  0.00    +0.000 C 
ATOM      6  C   UNL     1       5.822   4.801  17.836  0.00  0.00    +0.000 C 
ATOM      7  C   UNL     1       5.237   4.425  19.218  0.00  0.00    +0.000 C 
ATOM      8  C   UNL     1       4.314   3.204  19.135  0.00  0.00    +0.000 C 
ENDROOT
BRANCH   6   9
ATOM      9  C   UNL     1       6.621   6.114  17.874  0.00  0.00    +0.000 A 
ATOM     10  C   UNL     1       7.758   6.275  18.691  0.00  0.00    +0.000 A 
ATOM     11  C   UNL     1       8.435   7.487  18.786  0.00  0.00    +0.000 A 
ATOM     12  C   UNL     1       7.990   8.583  18.052  0.00  0.00    +0.000 A 
ATOM     13 BR   UNL     1       8.877  10.241  18.222  0.00  0.00    +0.000 Br
ATOM     14  C   UNL     1       6.889   8.455  17.210  0.00  0.00    +0.000 A 
ATOM     15  C   UNL     1       6.209   7.228  17.123  0.00  0.00    +0.000 A 
ENDBRANCH   6   9
BRANCH   6  16
ATOM     16  O   UNL     1       6.737   3.754  17.472  0.00  0.00    +0.000 OA
ATOM     17  H   UNL     1       6.508   3.472  16.568  0.00  0.00    +0.000 HD
ENDBRANCH   6  16
BRANCH   2  18
ATOM     18  C   UNL     1       1.421   3.684  19.785  0.00  0.00    +0.000 C 
BRANCH  18  19
ATOM     19  O   UNL     1       1.013   4.909  20.378  0.00  0.00    +0.000 OA
BRANCH  19  20
ATOM     20  C   UNL     1       2.132   5.735  20.700  0.00  0.00    +0.000 C 
BRANCH  20  21
ATOM     21  C   UNL     1       2.010   7.033  19.953  0.00  0.00    +0.000 A 
ATOM     22  C   UNL     1       1.303   8.108  20.510  0.00  0.00    +0.000 A 
ATOM     23  C   UNL     1       1.159   9.301  19.802  0.00  0.00    +0.000 A 
ATOM     24  C   UNL     1       1.716   9.430  18.532  0.00  0.00    +0.000 A 
ATOM     25  C   UNL     1       2.427   8.371  17.970  0.00  0.00    +0.000 A 
ATOM     26  C   UNL     1       2.571   7.175  18.676  0.00  0.00    +0.000 A 
ENDBRANCH  20  21
ENDBRANCH  19  20
ENDBRANCH  18  19
ENDBRANCH   2  18
TORSDOF 6
ENDMDL
MODEL 2
REMARK VINA RESULT:      -7.5      2.950      6.556
REMARK  Name = 
REMARK  6 active torsions:
REMARK  status: ('A' for Active; 'I' for Inactive)
REMARK    1  A    between atoms: C_2  and  C_3
REMARK    2  A    between atoms: C_3  and  O_4
REMARK    3  A    between atoms: O_4  and  C_5
REMARK    4  A    between atoms: C_5  and  C_6
REMARK    5  A    between atoms: C_15  and  O_16
REMARK    6  A    between atoms: C_15  and  C_17
REMARK                            x       y       z     vdW  Elec       q    Type
REMARK                         _______ _______ _______ _____ _____    ______ ____
ROOT
ATOM      1  O   UNL     1       7.106   5.304  20.090  0.00  0.00    +0.000 OA
ATOM      2  C   UNL     1       6.829   5.648  18.937  0.00  0.00    +0.000 C 
ATOM      3  N   UNL     1       5.582   5.393  18.381  0.00  0.00    +0.000 N 
ATOM      4  C   UNL     1       4.564   4.791  19.229  0.00  0.00    +0.000 C 
ATOM      5  C   UNL     1       3.597   5.872  19.682  0.00  0.00    +0.000 C 
ATOM      6  C   UNL     1       2.977   6.666  18.506  0.00  0.00    +0.000 C 
ATOM      7  C   UNL     1       4.075   7.126  17.517  0.00  0.00    +0.000 C 
ATOM      8  C   UNL     1       5.040   5.988  17.165  0.00  0.00    +0.000 C 
ENDROOT
BRANCH   6   9
ATOM      9  C   UNL     1       2.100   7.832  18.992  0.00  0.00    +0.000 A 
ATOM     10  C   UNL     1       1.645   7.922  20.322  0.00  0.00    +0.000 A 
ATOM     11  C   UNL     1       0.787   8.933  20.744  0.00  0.00    +0.000 A 
ATOM     12  C   UNL     1       0.362   9.899  19.835  0.00  0.00    +0.000 A 
ATOM     13 BR   UNL     1      -0.843  11.239  20.394  0.00  0.00    +0.000 Br
ATOM     14  C   UNL     1       0.815   9.861  18.519  0.00  0.00    +0.000 A 
ATOM     15  C   UNL     1       1.678   8.834  18.102  0.00  0.00    +0.000 A 
ENDBRANCH   6   9
BRANCH   6  16
ATOM     16  O   UNL     1       2.125   5.758  17.790  0.00  0.00    +0.000 OA
ATOM     17  H   UNL     1       1.630   5.243  18.452  0.00  0.00    +0.000 HD
ENDBRANCH   6  16
BRANCH   2  18
ATOM     18  C   UNL     1       7.887   6.342  18.053  0.00  0.00    +0.000 C 
BRANCH  18  19
ATOM     19  O   UNL     1       8.359   7.588  18.548  0.00  0.00    +0.000 OA
BRANCH  19  20
ATOM     20  C   UNL     1       7.907   8.678  17.743  0.00  0.00    +0.000 C 
BRANCH  20  21
ATOM     21  C   UNL     1       8.526   9.948  18.252  0.00  0.00    +0.000 A 
ATOM     22  C   UNL     1       8.340  11.155  17.562  0.00  0.00    +0.000 A 
ATOM     23  C   UNL     1       8.942  12.327  18.014  0.00  0.00    +0.000 A 
ATOM     24  C   UNL     1       9.740  12.308  19.156  0.00  0.00    +0.000 A 
ATOM     25  C   UNL     1       9.927  11.116  19.855  0.00  0.00    +0.000 A 
ATOM     26  C   UNL     1       9.326   9.939  19.404  0.00  0.00    +0.000 A 
ENDBRANCH  20  21
ENDBRANCH  19  20
ENDBRANCH  18  19
ENDBRANCH   2  18
TORSDOF 6
ENDMDL
MODEL 3
REMARK VINA RESULT:      -7.1      3.179      6.954
REMARK  Name = 
REMARK  6 active torsions:
REMARK  status: ('A' for Active; 'I' for Inactive)
REMARK    1  A    between atoms: C_2  and  C_3
REMARK    2  A    between atoms: C_3  and  O_4
REMARK    3  A    between atoms: O_4  and  C_5
REMARK    4  A    between atoms: C_5  and  C_6
REMARK    5  A    between atoms: C_15  and  O_16
REMARK    6  A    between atoms: C_15  and  C_17
REMARK                            x       y       z     vdW  Elec       q    Type
REMARK                         _______ _______ _______ _____ _____    ______ ____
ROOT
ATOM      1  O   UNL     1       7.326   5.451  19.488  0.00  0.00    +0.000 OA
ATOM      2  C   UNL     1       6.881   6.015  18.483  0.00  0.00    +0.000 C 
ATOM      3  N   UNL     1       5.607   5.746  18.001  0.00  0.00    +0.000 N 
ATOM      4  C   UNL     1       4.760   4.847  18.770  0.00  0.00    +0.000 C 
ATOM      5  C   UNL     1       3.755   5.672  19.559  0.00  0.00    +0.000 C 
ATOM      6  C   UNL     1       2.927   6.633  18.673  0.00  0.00    +0.000 C 
ATOM      7  C   UNL     1       3.850   7.437  17.726  0.00  0.00    +0.000 C 
ATOM      8  C   UNL     1       4.869   6.534  17.020  0.00  0.00    +0.000 C 
ENDROOT
BRANCH   6   9
ATOM      9  C   UNL     1       2.007   7.542  19.505  0.00  0.00    +0.000 A 
ATOM     10  C   UNL     1       1.674   8.848  19.094  0.00  0.00    +0.000 A 
ATOM     11  C   UNL     1       0.906   9.699  19.882  0.00  0.00    +0.000 A 
ATOM     12  C   UNL     1       0.439   9.258  21.118  0.00  0.00    +0.000 A 
ATOM     13 BR   UNL     1      -0.557  10.431  22.211  0.00  0.00    +0.000 Br
ATOM     14  C   UNL     1       0.721   7.964  21.545  0.00  0.00    +0.000 A 
ATOM     15  C   UNL     1       1.501   7.112  20.744  0.00  0.00    +0.000 A 
ENDBRANCH   6   9
BRANCH   6  16
ATOM     16  O   UNL     1       2.085   5.818  17.842  0.00  0.00    +0.000 OA
ATOM     17  H   UNL     1       1.261   5.658  18.335  0.00  0.00    +0.000 HD
ENDBRANCH   6  16
BRANCH   2  18
ATOM     18  C   UNL     1       7.756   7.015  17.697  0.00  0.00    +0.000 C 
BRANCH  18  19
ATOM     19  O   UNL     1       8.406   7.997  18.493  0.00  0.00    +0.000 OA
BRANCH  19  20
ATOM     20  C   UNL     1       8.278   9.302  17.926  0.00  0.00    +0.000 C 
BRANCH  20  21
ATOM     21  C   UNL     1       9.213  10.237  18.639  0.00  0.00    +0.000 A 
ATOM     22  C   UNL     1       9.086  10.450  20.019  0.00  0.00    +0.000 A 
ATOM     23  C   UNL     1       9.930  11.344  20.676  0.00  0.00    +0.000 A 
ATOM     24  C   UNL     1      10.906  12.036  19.962  0.00  0.00    +0.000 A 
ATOM     25  C   UNL     1      11.047  11.826  18.591  0.00  0.00    +0.000 A 
ATOM     26  C   UNL     1      10.202  10.933  17.930  0.00  0.00    +0.000 A 
ENDBRANCH  20  21
ENDBRANCH  19  20
ENDBRANCH  18  19
ENDBRANCH   2  18
TORSDOF 6
ENDMDL
MODEL 4
REMARK VINA RESULT:      -6.9      0.416      1.422
REMARK  Name = 
REMARK  6 active torsions:
REMARK  status: ('A' for Active; 'I' for Inactive)
REMARK    1  A    between atoms: C_2  and  C_3
REMARK    2  A    between atoms: C_3  and  O_4
REMARK    3  A    between atoms: O_4  and  C_5
REMARK    4  A    between atoms: C_5  and  C_6
REMARK    5  A    between atoms: C_15  and  O_16
REMARK    6  A    between atoms: C_15  and  C_17
REMARK                            x       y       z     vdW  Elec       q    Type
REMARK                         _______ _______ _______ _____ _____    ______ ____
ROOT
ATOM      1  O   UNL     1       1.651   3.750  17.285  0.00  0.00    +0.000 OA
ATOM      2  C   UNL     1       2.338   3.459  18.269  0.00  0.00    +0.000 C 
ATOM      3  N   UNL     1       3.697   3.198  18.156  0.00  0.00    +0.000 N 
ATOM      4  C   UNL     1       4.322   3.370  16.853  0.00  0.00    +0.000 C 
ATOM      5  C   UNL     1       5.074   4.691  16.837  0.00  0.00    +0.000 C 
ATOM      6  C   UNL     1       6.096   4.823  17.992  0.00  0.00    +0.000 C 
ATOM      7  C   UNL     1       5.446   4.442  19.344  0.00  0.00    +0.000 C 
ATOM      8  C   UNL     1       4.659   3.130  19.251  0.00  0.00    +0.000 C 
ENDROOT
BRANCH   6   9
ATOM      9  C   UNL     1       6.754   6.212  18.029  0.00  0.00    +0.000 A 
ATOM     10  C   UNL     1       6.331   7.262  17.191  0.00  0.00    +0.000 A 
ATOM     11  C   UNL     1       6.975   8.496  17.167  0.00  0.00    +0.000 A 
ATOM     12  C   UNL     1       8.072   8.715  17.998  0.00  0.00    +0.000 A 
ATOM     13 BR   UNL     1       8.979  10.369  17.926  0.00  0.00    +0.000 Br
ATOM     14  C   UNL     1       8.500   7.712  18.862  0.00  0.00    +0.000 A 
ATOM     15  C   UNL     1       7.845   6.468  18.876  0.00  0.00    +0.000 A 
ENDBRANCH   6   9
BRANCH   6  16
ATOM     16  O   UNL     1       7.136   3.863  17.744  0.00  0.00    +0.000 OA
ATOM     17  H   UNL     1       7.972   4.257  18.050  0.00  0.00    +0.000 HD
ENDBRANCH   6  16
BRANCH   2  18
ATOM     18  C   UNL     1       1.691   3.334  19.665  0.00  0.00    +0.000 C 
BRANCH  18  19
ATOM     19  O   UNL     1       0.898   4.446  20.060  0.00  0.00    +0.000 OA
BRANCH  19  20
ATOM     20  C   UNL     1       1.656   5.387  20.822  0.00  0.00    +0.000 C 
BRANCH  20  21
ATOM     21  C   UNL     1       1.766   6.667  20.043  0.00  0.00    +0.000 A 
ATOM     22  C   UNL     1       2.388   6.682  18.786  0.00  0.00    +0.000 A 
ATOM     23  C   UNL     1       2.522   7.875  18.078  0.00  0.00    +0.000 A 
ATOM     24  C   UNL     1       2.039   9.066  18.619  0.00  0.00    +0.000 A 
ATOM     25  C   UNL     1       1.413   9.062  19.864  0.00  0.00    +0.000 A 
ATOM     26  C   UNL     1       1.279   7.869  20.576  0.00  0.00    +0.000 A 
ENDBRANCH  20  21
ENDBRANCH  19  20
ENDBRANCH  18  19
ENDBRANCH   2  18
TORSDOF 6
ENDMDL
MODEL 5
REMARK VINA RESULT:      -6.8      4.381      7.755
REMARK  Name = 
REMARK  6 active torsions:
REMARK  status: ('A' for Active; 'I' for Inactive)
REMARK    1  A    between atoms: C_2  and  C_3
REMARK    2  A    between atoms: C_3  and  O_4
REMARK    3  A    between atoms: O_4  and  C_5
REMARK    4  A    between atoms: C_5  and  C_6
REMARK    5  A    between atoms: C_15  and  O_16
REMARK    6  A    between atoms: C_15  and  C_17
REMARK                            x       y       z     vdW  Elec       q    Type
REMARK                         _______ _______ _______ _____ _____    ______ ____
ROOT
ATOM      1  O   UNL     1       2.322   6.057  18.306  0.00  0.00    +0.000 OA
ATOM      2  C   UNL     1       2.119   6.606  19.393  0.00  0.00    +0.000 C 
ATOM      3  N   UNL     1       2.117   7.988  19.523  0.00  0.00    +0.000 N 
ATOM      4  C   UNL     1       2.267   8.789  18.318  0.00  0.00    +0.000 C 
ATOM      5  C   UNL     1       0.903   9.318  17.904  0.00  0.00    +0.000 C 
ATOM      6  C   UNL     1       0.184  10.096  19.032  0.00  0.00    +0.000 C 
ATOM      7  C   UNL     1       0.214   9.295  20.356  0.00  0.00    +0.000 C 
ATOM      8  C   UNL     1       1.614   8.750  20.661  0.00  0.00    +0.000 C 
ENDROOT
BRANCH   6   9
ATOM      9  C   UNL     1      -1.241  10.514  18.632  0.00  0.00    +0.000 A 
ATOM     10  C   UNL     1      -1.916   9.922  17.547  0.00  0.00    +0.000 A 
ATOM     11  C   UNL     1      -3.174  10.353  17.135  0.00  0.00    +0.000 A 
ATOM     12  C   UNL     1      -3.801  11.396  17.813  0.00  0.00    +0.000 A 
ATOM     13 BR   UNL     1      -5.483  12.014  17.221  0.00  0.00    +0.000 Br
ATOM     14  C   UNL     1      -3.178  11.984  18.910  0.00  0.00    +0.000 A 
ATOM     15  C   UNL     1      -1.906  11.545  19.316  0.00  0.00    +0.000 A 
ENDBRANCH   6   9
BRANCH   6  16
ATOM     16  O   UNL     1       0.936  11.300  19.256  0.00  0.00    +0.000 OA
ATOM     17  H   UNL     1       0.627  11.958  18.608  0.00  0.00    +0.000 HD
ENDBRANCH   6  16
BRANCH   2  18
ATOM     18  C   UNL     1       1.899   5.759  20.666  0.00  0.00    +0.000 C 
BRANCH  18  19
ATOM     19  O   UNL     1       0.838   4.817  20.583  0.00  0.00    +0.000 OA
BRANCH  19  20
ATOM     20  C   UNL     1       1.243   3.529  21.049  0.00  0.00    +0.000 C 
BRANCH  20  21
ATOM     21  C   UNL     1       2.095   2.877  19.997  0.00  0.00    +0.000 A 
ATOM     22  C   UNL     1       3.432   2.553  20.268  0.00  0.00    +0.000 A 
ATOM     23  C   UNL     1       4.234   1.981  19.283  0.00  0.00    +0.000 A 
ATOM     24  C   UNL     1       3.712   1.730  18.016  0.00  0.00    +0.000 A 
ATOM     25  C   UNL     1       2.382   2.042  17.736  0.00  0.00    +0.000 A 
ATOM     26  C   UNL     1       1.577   2.616  18.721  0.00  0.00    +0.000 A 
ENDBRANCH  20  21
ENDBRANCH  19  20
ENDBRANCH  18  19
ENDBRANCH   2  18
TORSDOF 6
ENDMDL
MODEL 6
REMARK VINA RESULT:      -6.7      2.962      6.559
REMARK  Name = 
REMARK  6 active torsions:
REMARK  status: ('A' for Active; 'I' for Inactive)
REMARK    1  A    between atoms: C_2  and  C_3
REMARK    2  A    between atoms: C_3  and  O_4
REMARK    3  A    between atoms: O_4  and  C_5
REMARK    4  A    between atoms: C_5  and  C_6
REMARK    5  A    between atoms: C_15  and  O_16
REMARK    6  A    between atoms: C_15  and  C_17
REMARK                            x       y       z     vdW  Elec       q    Type
REMARK                         _______ _______ _______ _____ _____    ______ ____
ROOT
ATOM      1  O   UNL     1       7.210   5.309  19.324  0.00  0.00    +0.000 OA
ATOM      2  C   UNL     1       6.733   5.779  18.286  0.00  0.00    +0.000 C 
ATOM      3  N   UNL     1       5.415   5.544  17.918  0.00  0.00    +0.000 N 
ATOM      4  C   UNL     1       4.569   4.803  18.841  0.00  0.00    +0.000 C 
ATOM      5  C   UNL     1       3.673   5.782  19.582  0.00  0.00    +0.000 C 
ATOM      6  C   UNL     1       2.846   6.687  18.636  0.00  0.00    +0.000 C 
ATOM      7  C   UNL     1       3.750   7.307  17.545  0.00  0.00    +0.000 C 
ATOM      8  C   UNL     1       4.662   6.260  16.895  0.00  0.00    +0.000 C 
ENDROOT
BRANCH   6   9
ATOM      9  C   UNL     1       2.043   7.749  19.405  0.00  0.00    +0.000 A 
ATOM     10  C   UNL     1       1.662   7.570  20.750  0.00  0.00    +0.000 A 
ATOM     11  C   UNL     1       0.868   8.495  21.423  0.00  0.00    +0.000 A 
ATOM     12  C   UNL     1       0.435   9.641  20.761  0.00  0.00    +0.000 A 
ATOM     13 BR   UNL     1      -0.685  10.867  21.657  0.00  0.00    +0.000 Br
ATOM     14  C   UNL     1       0.816   9.867  19.442  0.00  0.00    +0.000 A 
ATOM     15  C   UNL     1       1.615   8.926  18.769  0.00  0.00    +0.000 A 
ENDBRANCH   6   9
BRANCH   6  16
ATOM     16  O   UNL     1       1.902   5.839  17.963  0.00  0.00    +0.000 OA
ATOM     17  H   UNL     1       1.263   5.531  18.631  0.00  0.00    +0.000 HD
ENDBRANCH   6  16
BRANCH   2  18
ATOM     18  C   UNL     1       7.612   6.617  17.333  0.00  0.00    +0.000 C 
BRANCH  18  19
ATOM     19  O   UNL     1       7.658   8.008  17.626  0.00  0.00    +0.000 OA
BRANCH  19  20
ATOM     20  C   UNL     1       8.561   8.290  18.695  0.00  0.00    +0.000 C 
BRANCH  20  21
ATOM     21  C   UNL     1       8.845   9.765  18.715  0.00  0.00    +0.000 A 
ATOM     22  C   UNL     1       9.540  10.339  19.789  0.00  0.00    +0.000 A 
ATOM     23  C   UNL     1       9.773  11.713  19.827  0.00  0.00    +0.000 A 
ATOM     24  C   UNL     1       9.314  12.527  18.794  0.00  0.00    +0.000 A 
ATOM     25  C   UNL     1       8.628  11.968  17.717  0.00  0.00    +0.000 A 
ATOM     26  C   UNL     1       8.392  10.592  17.677  0.00  0.00    +0.000 A 
ENDBRANCH  20  21
ENDBRANCH  19  20
ENDBRANCH  18  19
ENDBRANCH   2  18
TORSDOF 6
ENDMDL
MODEL 7
REMARK VINA RESULT:      -6.7      3.134      6.805
REMARK  Name = 
REMARK  6 active torsions:
REMARK  status: ('A' for Active; 'I' for Inactive)
REMARK    1  A    between atoms: C_2  and  C_3
REMARK    2  A    between atoms: C_3  and  O_4
REMARK    3  A    between atoms: O_4  and  C_5
REMARK    4  A    between atoms: C_5  and  C_6
REMARK    5  A    between atoms: C_15  and  O_16
REMARK    6  A    between atoms: C_15  and  C_17
REMARK                            x       y       z     vdW  Elec       q    Type
REMARK                         _______ _______ _______ _____ _____    ______ ____
ROOT
ATOM      1  O   UNL     1       7.427   5.784  19.259  0.00  0.00    +0.000 OA
ATOM      2  C   UNL     1       6.899   6.208  18.226  0.00  0.00    +0.000 C 
ATOM      3  N   UNL     1       5.611   5.838  17.861  0.00  0.00    +0.000 N 
ATOM      4  C   UNL     1       4.851   5.006  18.782  0.00  0.00    +0.000 C 
ATOM      5  C   UNL     1       3.860   5.880  19.533  0.00  0.00    +0.000 C 
ATOM      6  C   UNL     1       2.939   6.699  18.596  0.00  0.00    +0.000 C 
ATOM      7  C   UNL     1       3.768   7.419  17.505  0.00  0.00    +0.000 C 
ATOM      8  C   UNL     1       4.782   6.477  16.845  0.00  0.00    +0.000 C 
ENDROOT
BRANCH   6   9
ATOM      9  C   UNL     1       2.032   7.666  19.375  0.00  0.00    +0.000 A 
ATOM     10  C   UNL     1       1.594   8.887  18.826  0.00  0.00    +0.000 A 
ATOM     11  C   UNL     1       0.838   9.799  19.557  0.00  0.00    +0.000 A 
ATOM     12  C   UNL     1       0.489   9.504  20.873  0.00  0.00    +0.000 A 
ATOM     13 BR   UNL     1      -0.491  10.763  21.881  0.00  0.00    +0.000 Br
ATOM     14  C   UNL     1       0.876   8.293  21.440  0.00  0.00    +0.000 A 
ATOM     15  C   UNL     1       1.643   7.381  20.695  0.00  0.00    +0.000 A 
ENDBRANCH   6   9
BRANCH   6  16
ATOM     16  O   UNL     1       2.086   5.761  17.921  0.00  0.00    +0.000 OA
ATOM     17  H   UNL     1       2.617   5.339  17.222  0.00  0.00    +0.000 HD
ENDBRANCH   6  16
BRANCH   2  18
ATOM     18  C   UNL     1       7.680   7.140  17.275  0.00  0.00    +0.000 C 
BRANCH  18  19
ATOM     19  O   UNL     1       7.634   8.520  17.615  0.00  0.00    +0.000 OA
BRANCH  19  20
ATOM     20  C   UNL     1       8.619   8.852  18.594  0.00  0.00    +0.000 C 
BRANCH  20  21
ATOM     21  C   UNL     1       8.962  10.309  18.463  0.00  0.00    +0.000 A 
ATOM     22  C   UNL     1       8.162  11.159  17.685  0.00  0.00    +0.000 A 
ATOM     23  C   UNL     1       8.499  12.503  17.534  0.00  0.00    +0.000 A 
ATOM     24  C   UNL     1       9.638  13.012  18.155  0.00  0.00    +0.000 A 
ATOM     25  C   UNL     1      10.437  12.178  18.936  0.00  0.00    +0.000 A 
ATOM     26  C   UNL     1      10.103  10.831  19.088  0.00  0.00    +0.000 A 
ENDBRANCH  20  21
ENDBRANCH  19  20
ENDBRANCH  18  19
ENDBRANCH   2  18
TORSDOF 6
ENDMDL
MODEL 8
REMARK VINA RESULT:      -6.7      3.265      6.898
REMARK  Name = 
REMARK  6 active torsions:
REMARK  status: ('A' for Active; 'I' for Inactive)
REMARK    1  A    between atoms: C_2  and  C_3
REMARK    2  A    between atoms: C_3  and  O_4
REMARK    3  A    between atoms: O_4  and  C_5
REMARK    4  A    between atoms: C_5  and  C_6
REMARK    5  A    between atoms: C_15  and  O_16
REMARK    6  A    between atoms: C_15  and  C_17
REMARK                            x       y       z     vdW  Elec       q    Type
REMARK                         _______ _______ _______ _____ _____    ______ ____
ROOT
ATOM      1  O   UNL     1       6.815   5.151  19.643  0.00  0.00    +0.000 OA
ATOM      2  C   UNL     1       6.430   5.700  18.606  0.00  0.00    +0.000 C 
ATOM      3  N   UNL     1       5.120   5.580  18.162  0.00  0.00    +0.000 N 
ATOM      4  C   UNL     1       4.174   4.865  19.006  0.00  0.00    +0.000 C 
ATOM      5  C   UNL     1       3.313   5.875  19.746  0.00  0.00    +0.000 C 
ATOM      6  C   UNL     1       2.606   6.880  18.804  0.00  0.00    +0.000 C 
ATOM      7  C   UNL     1       3.609   7.478  17.789  0.00  0.00    +0.000 C 
ATOM      8  C   UNL     1       4.476   6.394  17.137  0.00  0.00    +0.000 C 
ENDROOT
BRANCH   6   9
ATOM      9  C   UNL     1       1.841   7.965  19.581  0.00  0.00    +0.000 A 
ATOM     10  C   UNL     1       1.466   7.796  20.928  0.00  0.00    +0.000 A 
ATOM     11  C   UNL     1       0.706   8.743  21.610  0.00  0.00    +0.000 A 
ATOM     12  C   UNL     1       0.304   9.903  20.953  0.00  0.00    +0.000 A 
ATOM     13 BR   UNL     1      -0.770  11.162  21.860  0.00  0.00    +0.000 Br
ATOM     14  C   UNL     1       0.682  10.120  19.631  0.00  0.00    +0.000 A 
ATOM     15  C   UNL     1       1.445   9.156  18.951  0.00  0.00    +0.000 A 
ENDBRANCH   6   9
BRANCH   6  16
ATOM     16  O   UNL     1       1.639   6.135  18.046  0.00  0.00    +0.000 OA
ATOM     17  H   UNL     1       2.085   5.821  17.239  0.00  0.00    +0.000 HD
ENDBRANCH   6  16
BRANCH   2  18
ATOM     18  C   UNL     1       7.417   6.510  17.738  0.00  0.00    +0.000 C 
BRANCH  18  19
ATOM     19  O   UNL     1       7.376   6.215  16.348  0.00  0.00    +0.000 OA
BRANCH  19  20
ATOM     20  C   UNL     1       7.400   4.807  16.110  0.00  0.00    +0.000 C 
BRANCH  20  21
ATOM     21  C   UNL     1       7.103   4.554  14.659  0.00  0.00    +0.000 A 
ATOM     22  C   UNL     1       7.850   5.195  13.660  0.00  0.00    +0.000 A 
ATOM     23  C   UNL     1       7.553   4.989  12.314  0.00  0.00    +0.000 A 
ATOM     24  C   UNL     1       6.506   4.144  11.952  0.00  0.00    +0.000 A 
ATOM     25  C   UNL     1       5.761   3.496  12.935  0.00  0.00    +0.000 A 
ATOM     26  C   UNL     1       6.055   3.701  14.285  0.00  0.00    +0.000 A 
ENDBRANCH  20  21
ENDBRANCH  19  20
ENDBRANCH  18  19
ENDBRANCH   2  18
TORSDOF 6
ENDMDL
MODEL 9
REMARK VINA RESULT:      -6.7      3.304      6.903
REMARK  Name = 
REMARK  6 active torsions:
REMARK  status: ('A' for Active; 'I' for Inactive)
REMARK    1  A    between atoms: C_2  and  C_3
REMARK    2  A    between atoms: C_3  and  O_4
REMARK    3  A    between atoms: O_4  and  C_5
REMARK    4  A    between atoms: C_5  and  C_6
REMARK    5  A    between atoms: C_15  and  O_16
REMARK    6  A    between atoms: C_15  and  C_17
REMARK                            x       y       z     vdW  Elec       q    Type
REMARK                         _______ _______ _______ _____ _____    ______ ____
ROOT
ATOM      1  O   UNL     1       7.500   4.716  18.904  0.00  0.00    +0.000 OA
ATOM      2  C   UNL     1       6.818   4.822  17.880  0.00  0.00    +0.000 C 
ATOM      3  N   UNL     1       5.475   4.471  17.860  0.00  0.00    +0.000 N 
ATOM      4  C   UNL     1       4.855   4.063  19.112  0.00  0.00    +0.000 C 
ATOM      5  C   UNL     1       4.039   5.223  19.659  0.00  0.00    +0.000 C 
ATOM      6  C   UNL     1       3.001   5.768  18.648  0.00  0.00    +0.000 C 
ATOM      7  C   UNL     1       3.655   6.007  17.266  0.00  0.00    +0.000 C 
ATOM      8  C   UNL     1       4.507   4.812  16.823  0.00  0.00    +0.000 C 
ENDROOT
BRANCH   6   9
ATOM      9  C   UNL     1       2.275   7.016  19.177  0.00  0.00    +0.000 A 
ATOM     10  C   UNL     1       2.048   8.148  18.370  0.00  0.00    +0.000 A 
ATOM     11  C   UNL     1       1.462   9.307  18.869  0.00  0.00    +0.000 A 
ATOM     12  C   UNL     1       1.076   9.363  20.206  0.00  0.00    +0.000 A 
ATOM     13 BR   UNL     1       0.330  10.953  20.895  0.00  0.00    +0.000 Br
ATOM     14  C   UNL     1       1.255   8.253  21.027  0.00  0.00    +0.000 A 
ATOM     15  C   UNL     1       1.852   7.088  20.515  0.00  0.00    +0.000 A 
ENDBRANCH   6   9
BRANCH   6  16
ATOM     16  O   UNL     1       2.012   4.741  18.469  0.00  0.00    +0.000 OA
ATOM     17  H   UNL     1       1.153   5.185  18.350  0.00  0.00    +0.000 HD
ENDBRANCH   6  16
BRANCH   2  18
ATOM     18  C   UNL     1       7.457   5.312  16.563  0.00  0.00    +0.000 C 
BRANCH  18  19
ATOM     19  O   UNL     1       7.334   4.416  15.466  0.00  0.00    +0.000 OA
BRANCH  19  20
ATOM     20  C   UNL     1       7.185   5.115  14.230  0.00  0.00    +0.000 C 
BRANCH  20  21
ATOM     21  C   UNL     1       6.555   4.195  13.223  0.00  0.00    +0.000 A 
ATOM     22  C   UNL     1       5.162   4.049  13.169  0.00  0.00    +0.000 A 
ATOM     23  C   UNL     1       4.579   3.170  12.259  0.00  0.00    +0.000 A 
ATOM     24  C   UNL     1       5.380   2.424  11.396  0.00  0.00    +0.000 A 
ATOM     25  C   UNL     1       6.766   2.566  11.436  0.00  0.00    +0.000 A 
ATOM     26  C   UNL     1       7.353   3.445  12.348  0.00  0.00    +0.000 A 
ENDBRANCH  20  21
ENDBRANCH  19  20
ENDBRANCH  18  19
ENDBRANCH   2  18
TORSDOF 6
ENDMDL
