MODEL 1
REMARK VINA RESULT:      -7.4      0.000      0.000
REMARK  Name = 
REMARK  3 active torsions:
REMARK  status: ('A' for Active; 'I' for Inactive)
REMARK    1  A    between atoms: C_2  and  C_10
REMARK    2  A    between atoms: N_3  and  C_4
REMARK    3  A    between atoms: C_4  and  C_5
REMARK                            x       y       z     vdW  Elec       q    Type
REMARK                         _______ _______ _______ _____ _____    ______ ____
ROOT
ATOM      1  C   UNL     1       2.234   7.254  20.047  0.00  0.00    +0.000 C 
ATOM      2  C   UNL     1       1.550   6.059  20.721  0.00  0.00    +0.000 C 
ATOM      3  C   UNL     1       1.944   4.871  19.871  0.00  0.00    +0.000 C 
ATOM      4  C   UNL     1       3.247   4.225  20.382  0.00  0.00    +0.000 C 
ATOM      5  C   UNL     1       3.914   3.377  19.306  0.00  0.00    +0.000 C 
ATOM      6  N   UNL     1       4.110   4.228  18.146  0.00  0.00    +0.000 N 
ATOM      7  C   UNL     1       5.317   4.331  17.494  0.00  0.00    +0.000 A 
ATOM      8  C   UNL     1       6.504   4.405  18.207  0.00  0.00    +0.000 A 
ATOM      9  C   UNL     1       7.665   4.570  17.489  0.00  0.00    +0.000 A 
ATOM     10  N   UNL     1       7.705   4.644  16.152  0.00  0.00    +0.000 NA
ATOM     11  C   UNL     1       6.513   4.564  15.549  0.00  0.00    +0.000 A 
ATOM     12  N   UNL     1       5.325   4.418  16.151  0.00  0.00    +0.000 NA
ATOM     13  C   UNL     1       2.899   4.720  17.488  0.00  0.00    +0.000 C 
ATOM     14  C   UNL     1       2.065   5.526  18.497  0.00  0.00    +0.000 C 
ATOM     15  O   UNL     1       2.632   6.830  18.737  0.00  0.00    +0.000 OA
ENDROOT
BRANCH   1  17
ATOM     16  O   UNL     1       0.570   8.826  20.887  0.00  0.00    +0.000 OA
ATOM     17  C   UNL     1       1.333   8.504  19.982  0.00  0.00    +0.000 C 
ATOM     18  N   UNL     1       1.497   9.265  18.844  0.00  0.00    +0.000 N 
ATOM     19  H   UNL     1       1.926   8.824  18.037  0.00  0.00    +0.000 HD
BRANCH  18  20
ATOM     20  C   UNL     1       0.653  10.417  18.619  0.00  0.00    +0.000 C 
BRANCH  20  21
ATOM     21  C   UNL     1       1.393  11.658  18.950  0.00  0.00    +0.000 A 
ATOM     22  C   UNL     1       2.303  12.432  18.256  0.00  0.00    +0.000 A 
ATOM     23  C   UNL     1       2.697  13.472  19.132  0.00  0.00    +0.000 A 
ATOM     24  C   UNL     1       2.006  13.267  20.303  0.00  0.00    +0.000 A 
ATOM     25  O   UNL     1       1.210  12.171  20.201  0.00  0.00    +0.000 OA
ENDBRANCH  20  21
ENDBRANCH  18  20
ENDBRANCH   1  17
TORSDOF 3
ENDMDL
MODEL 2
REMARK VINA RESULT:      -7.2      1.463      2.126
REMARK  Name = 
REMARK  3 active torsions:
REMARK  status: ('A' for Active; 'I' for Inactive)
REMARK    1  A    between atoms: C_2  and  C_10
REMARK    2  A    between atoms: N_3  and  C_4
REMARK    3  A    between atoms: C_4  and  C_5
REMARK                            x       y       z     vdW  Elec       q    Type
REMARK                         _______ _______ _______ _____ _____    ______ ____
ROOT
ATOM      1  C   UNL     1       2.186   6.983  20.464  0.00  0.00    +0.000 C 
ATOM      2  C   UNL     1       1.459   5.706  20.898  0.00  0.00    +0.000 C 
ATOM      3  C   UNL     1       1.802   4.694  19.827  0.00  0.00    +0.000 C 
ATOM      4  C   UNL     1       3.080   3.912  20.186  0.00  0.00    +0.000 C 
ATOM      5  C   UNL     1       3.709   3.266  18.958  0.00  0.00    +0.000 C 
ATOM      6  N   UNL     1       3.934   4.320  17.984  0.00  0.00    +0.000 N 
ATOM      7  C   UNL     1       5.142   4.504  17.352  0.00  0.00    +0.000 A 
ATOM      8  C   UNL     1       6.333   4.391  18.052  0.00  0.00    +0.000 A 
ATOM      9  C   UNL     1       7.498   4.650  17.366  0.00  0.00    +0.000 A 
ATOM     10  N   UNL     1       7.535   4.984  16.070  0.00  0.00    +0.000 NA
ATOM     11  C   UNL     1       6.339   5.069  15.476  0.00  0.00    +0.000 A 
ATOM     12  N   UNL     1       5.149   4.852  16.052  0.00  0.00    +0.000 NA
ATOM     13  C   UNL     1       2.741   4.978  17.450  0.00  0.00    +0.000 C 
ATOM     14  C   UNL     1       1.944   5.601  18.607  0.00  0.00    +0.000 C 
ATOM     15  O   UNL     1       2.563   6.810  19.092  0.00  0.00    +0.000 OA
ENDROOT
BRANCH   1  17
ATOM     16  O   UNL     1       0.617   8.437  21.632  0.00  0.00    +0.000 OA
ATOM     17  C   UNL     1       1.335   8.255  20.655  0.00  0.00    +0.000 C 
ATOM     18  N   UNL     1       1.492   9.200  19.663  0.00  0.00    +0.000 N 
ATOM     19  H   UNL     1       1.875   8.894  18.775  0.00  0.00    +0.000 HD
BRANCH  18  20
ATOM     20  C   UNL     1       0.688  10.402  19.678  0.00  0.00    +0.000 C 
BRANCH  20  21
ATOM     21  C   UNL     1      -0.453  10.258  18.743  0.00  0.00    +0.000 A 
ATOM     22  C   UNL     1      -0.601   9.636  17.518  0.00  0.00    +0.000 A 
ATOM     23  C   UNL     1      -1.928   9.894  17.095  0.00  0.00    +0.000 A 
ATOM     24  C   UNL     1      -2.503  10.656  18.084  0.00  0.00    +0.000 A 
ATOM     25  O   UNL     1      -1.617  10.878  19.090  0.00  0.00    +0.000 OA
ENDBRANCH  20  21
ENDBRANCH  18  20
ENDBRANCH   1  17
TORSDOF 3
ENDMDL
MODEL 3
REMARK VINA RESULT:      -7.2      2.061      2.348
REMARK  Name = 
REMARK  3 active torsions:
REMARK  status: ('A' for Active; 'I' for Inactive)
REMARK    1  A    between atoms: C_2  and  C_10
REMARK    2  A    between atoms: N_3  and  C_4
REMARK    3  A    between atoms: C_4  and  C_5
REMARK                            x       y       z     vdW  Elec       q    Type
REMARK                         _______ _______ _______ _____ _____    ______ ____
ROOT
ATOM      1  C   UNL     1       2.227   7.790  19.430  0.00  0.00    +0.000 C 
ATOM      2  C   UNL     1       1.526   6.769  20.332  0.00  0.00    +0.000 C 
ATOM      3  C   UNL     1       1.931   5.425  19.767  0.00  0.00    +0.000 C 
ATOM      4  C   UNL     1       3.221   4.905  20.430  0.00  0.00    +0.000 C 
ATOM      5  C   UNL     1       3.906   3.845  19.576  0.00  0.00    +0.000 C 
ATOM      6  N   UNL     1       4.128   4.425  18.264  0.00  0.00    +0.000 N 
ATOM      7  C   UNL     1       5.348   4.386  17.629  0.00  0.00    +0.000 A 
ATOM      8  C   UNL     1       6.520   4.612  18.332  0.00  0.00    +0.000 A 
ATOM      9  C   UNL     1       7.696   4.619  17.618  0.00  0.00    +0.000 A 
ATOM     10  N   UNL     1       7.762   4.403  16.298  0.00  0.00    +0.000 NA
ATOM     11  C   UNL     1       6.582   4.194  15.703  0.00  0.00    +0.000 A 
ATOM     12  N   UNL     1       5.382   4.180  16.299  0.00  0.00    +0.000 NA
ATOM     13  C   UNL     1       2.932   4.763  17.491  0.00  0.00    +0.000 C 
ATOM     14  C   UNL     1       2.082   5.768  18.286  0.00  0.00    +0.000 C 
ATOM     15  O   UNL     1       2.649   7.093  18.250  0.00  0.00    +0.000 OA
ENDROOT
BRANCH   1  17
ATOM     16  O   UNL     1       1.081   9.327  17.925  0.00  0.00    +0.000 OA
ATOM     17  C   UNL     1       1.332   8.996  19.078  0.00  0.00    +0.000 C 
ATOM     18  N   UNL     1       0.790   9.640  20.170  0.00  0.00    +0.000 N 
ATOM     19  H   UNL     1       1.233   9.497  21.072  0.00  0.00    +0.000 HD
BRANCH  18  20
ATOM     20  C   UNL     1       0.001  10.837  19.984  0.00  0.00    +0.000 C 
BRANCH  20  21
ATOM     21  C   UNL     1      -0.730  11.160  21.232  0.00  0.00    +0.000 A 
ATOM     22  C   UNL     1      -0.664  10.671  22.522  0.00  0.00    +0.000 A 
ATOM     23  C   UNL     1      -1.662  11.350  23.261  0.00  0.00    +0.000 A 
ATOM     24  C   UNL     1      -2.274  12.208  22.378  0.00  0.00    +0.000 A 
ATOM     25  O   UNL     1      -1.712  12.103  21.145  0.00  0.00    +0.000 OA
ENDBRANCH  20  21
ENDBRANCH  18  20
ENDBRANCH   1  17
TORSDOF 3
ENDMDL
MODEL 4
REMARK VINA RESULT:      -7.0      4.541      8.573
REMARK  Name = 
REMARK  3 active torsions:
REMARK  status: ('A' for Active; 'I' for Inactive)
REMARK    1  A    between atoms: C_2  and  C_10
REMARK    2  A    between atoms: N_3  and  C_4
REMARK    3  A    between atoms: C_4  and  C_5
REMARK                            x       y       z     vdW  Elec       q    Type
REMARK                         _______ _______ _______ _____ _____    ______ ____
ROOT
ATOM      1  C   UNL     1       6.632   4.800  16.075  0.00  0.00    +0.000 C 
ATOM      2  C   UNL     1       7.154   5.928  16.971  0.00  0.00    +0.000 C 
ATOM      3  C   UNL     1       5.963   6.318  17.820  0.00  0.00    +0.000 C 
ATOM      4  C   UNL     1       5.917   5.502  19.126  0.00  0.00    +0.000 C 
ATOM      5  C   UNL     1       4.524   5.508  19.744  0.00  0.00    +0.000 C 
ATOM      6  N   UNL     1       3.601   5.027  18.731  0.00  0.00    +0.000 N 
ATOM      7  C   UNL     1       2.685   4.028  18.973  0.00  0.00    +0.000 A 
ATOM      8  C   UNL     1       3.035   2.909  19.712  0.00  0.00    +0.000 A 
ATOM      9  C   UNL     1       2.085   1.925  19.859  0.00  0.00    +0.000 A 
ATOM     10  N   UNL     1       0.852   2.004  19.344  0.00  0.00    +0.000 NA
ATOM     11  C   UNL     1       0.603   3.119  18.647  0.00  0.00    +0.000 A 
ATOM     12  N   UNL     1       1.457   4.129  18.432  0.00  0.00    +0.000 NA
ATOM     13  C   UNL     1       3.448   5.863  17.540  0.00  0.00    +0.000 C 
ATOM     14  C   UNL     1       4.815   6.027  16.857  0.00  0.00    +0.000 C 
ATOM     15  O   UNL     1       5.200   4.836  16.141  0.00  0.00    +0.000 OA
ENDROOT
BRANCH   1  17
ATOM     16  O   UNL     1       8.084   5.603  14.290  0.00  0.00    +0.000 OA
ATOM     17  C   UNL     1       7.128   4.909  14.619  0.00  0.00    +0.000 C 
ATOM     18  N   UNL     1       6.445   4.115  13.723  0.00  0.00    +0.000 N 
ATOM     19  H   UNL     1       5.525   3.782  13.992  0.00  0.00    +0.000 HD
BRANCH  18  20
ATOM     20  C   UNL     1       6.754   4.186  12.313  0.00  0.00    +0.000 C 
BRANCH  20  21
ATOM     21  C   UNL     1       6.656   2.838  11.705  0.00  0.00    +0.000 A 
ATOM     22  C   UNL     1       7.576   1.999  11.107  0.00  0.00    +0.000 A 
ATOM     23  C   UNL     1       6.858   0.857  10.675  0.00  0.00    +0.000 A 
ATOM     24  C   UNL     1       5.548   1.072  11.034  0.00  0.00    +0.000 A 
ATOM     25  O   UNL     1       5.416   2.269  11.663  0.00  0.00    +0.000 OA
ENDBRANCH  20  21
ENDBRANCH  18  20
ENDBRANCH   1  17
TORSDOF 3
ENDMDL
MODEL 5
REMARK VINA RESULT:      -7.0      1.943      2.710
REMARK  Name = 
REMARK  3 active torsions:
REMARK  status: ('A' for Active; 'I' for Inactive)
REMARK    1  A    between atoms: C_2  and  C_10
REMARK    2  A    between atoms: N_3  and  C_4
REMARK    3  A    between atoms: C_4  and  C_5
REMARK                            x       y       z     vdW  Elec       q    Type
REMARK                         _______ _______ _______ _____ _____    ______ ____
ROOT
ATOM      1  C   UNL     1       2.327   8.203  19.268  0.00  0.00    +0.000 C 
ATOM      2  C   UNL     1       1.529   7.260  20.174  0.00  0.00    +0.000 C 
ATOM      3  C   UNL     1       1.873   5.874  19.671  0.00  0.00    +0.000 C 
ATOM      4  C   UNL     1       3.101   5.301  20.403  0.00  0.00    +0.000 C 
ATOM      5  C   UNL     1       3.751   4.172  19.614  0.00  0.00    +0.000 C 
ATOM      6  N   UNL     1       4.060   4.691  18.294  0.00  0.00    +0.000 N 
ATOM      7  C   UNL     1       5.299   4.555  17.711  0.00  0.00    +0.000 A 
ATOM      8  C   UNL     1       6.455   4.735  18.455  0.00  0.00    +0.000 A 
ATOM      9  C   UNL     1       7.656   4.645  17.790  0.00  0.00    +0.000 A 
ATOM     10  N   UNL     1       7.760   4.379  16.482  0.00  0.00    +0.000 NA
ATOM     11  C   UNL     1       6.594   4.221  15.845  0.00  0.00    +0.000 A 
ATOM     12  N   UNL     1       5.373   4.301  16.392  0.00  0.00    +0.000 NA
ATOM     13  C   UNL     1       2.918   5.073  17.462  0.00  0.00    +0.000 C 
ATOM     14  C   UNL     1       2.102   6.154  18.187  0.00  0.00    +0.000 C 
ATOM     15  O   UNL     1       2.751   7.441  18.131  0.00  0.00    +0.000 OA
ENDROOT
BRANCH   1  17
ATOM     16  O   UNL     1       1.851  10.164  17.900  0.00  0.00    +0.000 OA
ATOM     17  C   UNL     1       1.523   9.448  18.840  0.00  0.00    +0.000 C 
ATOM     18  N   UNL     1       0.370   9.659  19.567  0.00  0.00    +0.000 N 
ATOM     19  H   UNL     1       0.293   9.210  20.473  0.00  0.00    +0.000 HD
BRANCH  18  20
ATOM     20  C   UNL     1      -0.431  10.838  19.323  0.00  0.00    +0.000 C 
BRANCH  20  21
ATOM     21  C   UNL     1      -1.555  10.507  18.416  0.00  0.00    +0.000 A 
ATOM     22  C   UNL     1      -1.647   9.764  17.255  0.00  0.00    +0.000 A 
ATOM     23  C   UNL     1      -2.992   9.862  16.821  0.00  0.00    +0.000 A 
ATOM     24  C   UNL     1      -3.633  10.657  17.741  0.00  0.00    +0.000 A 
ATOM     25  O   UNL     1      -2.770  11.050  18.715  0.00  0.00    +0.000 OA
ENDBRANCH  20  21
ENDBRANCH  18  20
ENDBRANCH   1  17
TORSDOF 3
ENDMDL
MODEL 6
REMARK VINA RESULT:      -6.9      0.993      1.156
REMARK  Name = 
REMARK  3 active torsions:
REMARK  status: ('A' for Active; 'I' for Inactive)
REMARK    1  A    between atoms: C_2  and  C_10
REMARK    2  A    between atoms: N_3  and  C_4
REMARK    3  A    between atoms: C_4  and  C_5
REMARK                            x       y       z     vdW  Elec       q    Type
REMARK                         _______ _______ _______ _____ _____    ______ ____
ROOT
ATOM      1  C   UNL     1       2.242   7.769  19.417  0.00  0.00    +0.000 C 
ATOM      2  C   UNL     1       1.562   6.751  20.338  0.00  0.00    +0.000 C 
ATOM      3  C   UNL     1       1.959   5.405  19.771  0.00  0.00    +0.000 C 
ATOM      4  C   UNL     1       3.264   4.892  20.409  0.00  0.00    +0.000 C 
ATOM      5  C   UNL     1       3.932   3.829  19.546  0.00  0.00    +0.000 C 
ATOM      6  N   UNL     1       4.125   4.404  18.227  0.00  0.00    +0.000 N 
ATOM      7  C   UNL     1       5.332   4.364  17.567  0.00  0.00    +0.000 A 
ATOM      8  C   UNL     1       6.519   4.596  18.244  0.00  0.00    +0.000 A 
ATOM      9  C   UNL     1       7.679   4.602  17.506  0.00  0.00    +0.000 A 
ATOM     10  N   UNL     1       7.718   4.380  16.186  0.00  0.00    +0.000 NA
ATOM     11  C   UNL     1       6.526   4.166  15.616  0.00  0.00    +0.000 A 
ATOM     12  N   UNL     1       5.339   4.152  16.238  0.00  0.00    +0.000 NA
ATOM     13  C   UNL     1       2.913   4.735  17.478  0.00  0.00    +0.000 C 
ATOM     14  C   UNL     1       2.077   5.742  18.286  0.00  0.00    +0.000 C 
ATOM     15  O   UNL     1       2.641   7.068  18.232  0.00  0.00    +0.000 OA
ENDROOT
BRANCH   1  17
ATOM     16  O   UNL     1       0.926   9.201  17.946  0.00  0.00    +0.000 OA
ATOM     17  C   UNL     1       1.337   8.972  19.079  0.00  0.00    +0.000 C 
ATOM     18  N   UNL     1       0.979   9.740  20.167  0.00  0.00    +0.000 N 
ATOM     19  H   UNL     1       1.547   9.666  21.005  0.00  0.00    +0.000 HD
BRANCH  18  20
ATOM     20  C   UNL     1       0.204  10.945  19.976  0.00  0.00    +0.000 C 
BRANCH  20  21
ATOM     21  C   UNL     1       1.109  12.104  19.795  0.00  0.00    +0.000 A 
ATOM     22  C   UNL     1       1.668  13.015  20.671  0.00  0.00    +0.000 A 
ATOM     23  C   UNL     1       2.409  13.928  19.882  0.00  0.00    +0.000 A 
ATOM     24  C   UNL     1       2.254  13.519  18.578  0.00  0.00    +0.000 A 
ATOM     25  O   UNL     1       1.471  12.411  18.516  0.00  0.00    +0.000 OA
ENDBRANCH  20  21
ENDBRANCH  18  20
ENDBRANCH   1  17
TORSDOF 3
ENDMDL
MODEL 7
REMARK VINA RESULT:      -6.8      4.570      8.209
REMARK  Name = 
REMARK  3 active torsions:
REMARK  status: ('A' for Active; 'I' for Inactive)
REMARK    1  A    between atoms: C_2  and  C_10
REMARK    2  A    between atoms: N_3  and  C_4
REMARK    3  A    between atoms: C_4  and  C_5
REMARK                            x       y       z     vdW  Elec       q    Type
REMARK                         _______ _______ _______ _____ _____    ______ ____
ROOT
ATOM      1  C   UNL     1       6.566   4.607  15.931  0.00  0.00    +0.000 C 
ATOM      2  C   UNL     1       7.177   5.779  16.705  0.00  0.00    +0.000 C 
ATOM      3  C   UNL     1       6.061   6.257  17.609  0.00  0.00    +0.000 C 
ATOM      4  C   UNL     1       6.094   5.533  18.969  0.00  0.00    +0.000 C 
ATOM      5  C   UNL     1       4.752   5.617  19.685  0.00  0.00    +0.000 C 
ATOM      6  N   UNL     1       3.747   5.092  18.778  0.00  0.00    +0.000 N 
ATOM      7  C   UNL     1       2.831   4.136  19.155  0.00  0.00    +0.000 A 
ATOM      8  C   UNL     1       3.212   3.061  19.943  0.00  0.00    +0.000 A 
ATOM      9  C   UNL     1       2.255   2.114  20.227  0.00  0.00    +0.000 A 
ATOM     10  N   UNL     1       0.989   2.190  19.799  0.00  0.00    +0.000 NA
ATOM     11  C   UNL     1       0.712   3.260  19.046  0.00  0.00    +0.000 A 
ATOM     12  N   UNL     1       1.568   4.231  18.699  0.00  0.00    +0.000 NA
ATOM     13  C   UNL     1       3.522   5.849  17.546  0.00  0.00    +0.000 C 
ATOM     14  C   UNL     1       4.838   5.931  16.755  0.00  0.00    +0.000 C 
ATOM     15  O   UNL     1       5.144   4.684  16.098  0.00  0.00    +0.000 OA
ENDROOT
BRANCH   1  17
ATOM     16  O   UNL     1       7.738   5.412  13.950  0.00  0.00    +0.000 OA
ATOM     17  C   UNL     1       6.955   4.603  14.438  0.00  0.00    +0.000 C 
ATOM     18  N   UNL     1       6.395   3.578  13.706  0.00  0.00    +0.000 N 
ATOM     19  H   UNL     1       5.573   3.120  14.086  0.00  0.00    +0.000 HD
BRANCH  18  20
ATOM     20  C   UNL     1       6.611   3.510  12.278  0.00  0.00    +0.000 C 
BRANCH  20  21
ATOM     21  C   UNL     1       5.320   3.291  11.582  0.00  0.00    +0.000 A 
ATOM     22  C   UNL     1       4.288   4.133  11.216  0.00  0.00    +0.000 A 
ATOM     23  C   UNL     1       3.296   3.316  10.619  0.00  0.00    +0.000 A 
ATOM     24  C   UNL     1       3.785   2.032  10.660  0.00  0.00    +0.000 A 
ATOM     25  O   UNL     1       5.013   2.007  11.239  0.00  0.00    +0.000 OA
ENDBRANCH  20  21
ENDBRANCH  18  20
ENDBRANCH   1  17
TORSDOF 3
ENDMDL
MODEL 8
REMARK VINA RESULT:      -6.8      1.200      1.529
REMARK  Name = 
REMARK  3 active torsions:
REMARK  status: ('A' for Active; 'I' for Inactive)
REMARK    1  A    between atoms: C_2  and  C_10
REMARK    2  A    between atoms: N_3  and  C_4
REMARK    3  A    between atoms: C_4  and  C_5
REMARK                            x       y       z     vdW  Elec       q    Type
REMARK                         _______ _______ _______ _____ _____    ______ ____
ROOT
ATOM      1  C   UNL     1       2.167   6.126  20.685  0.00  0.00    +0.000 C 
ATOM      2  C   UNL     1       1.668   4.721  21.036  0.00  0.00    +0.000 C 
ATOM      3  C   UNL     1       2.059   3.873  19.844  0.00  0.00    +0.000 C 
ATOM      4  C   UNL     1       3.462   3.262  20.029  0.00  0.00    +0.000 C 
ATOM      5  C   UNL     1       4.069   2.834  18.699  0.00  0.00    +0.000 C 
ATOM      6  N   UNL     1       4.058   3.994  17.826  0.00  0.00    +0.000 N 
ATOM      7  C   UNL     1       5.169   4.414  17.132  0.00  0.00    +0.000 A 
ATOM      8  C   UNL     1       6.420   4.417  17.730  0.00  0.00    +0.000 A 
ATOM      9  C   UNL     1       7.473   4.909  16.994  0.00  0.00    +0.000 A 
ATOM     10  N   UNL     1       7.352   5.362  15.740  0.00  0.00    +0.000 NA
ATOM     11  C   UNL     1       6.109   5.322  15.244  0.00  0.00    +0.000 A 
ATOM     12  N   UNL     1       5.015   4.877  15.878  0.00  0.00    +0.000 NA
ATOM     13  C   UNL     1       2.742   4.512  17.448  0.00  0.00    +0.000 C 
ATOM     14  C   UNL     1       1.966   4.900  18.717  0.00  0.00    +0.000 C 
ATOM     15  O   UNL     1       2.446   6.138  19.279  0.00  0.00    +0.000 OA
ENDROOT
BRANCH   1  17
ATOM     16  O   UNL     1      -0.051   7.095  20.972  0.00  0.00    +0.000 OA
ATOM     17  C   UNL     1       1.163   7.233  21.067  0.00  0.00    +0.000 C 
ATOM     18  N   UNL     1       1.743   8.375  21.580  0.00  0.00    +0.000 N 
ATOM     19  H   UNL     1       2.727   8.533  21.389  0.00  0.00    +0.000 HD
BRANCH  18  20
ATOM     20  C   UNL     1       0.920   9.521  21.898  0.00  0.00    +0.000 C 
BRANCH  20  21
ATOM     21  C   UNL     1       1.038  10.540  20.828  0.00  0.00    +0.000 A 
ATOM     22  C   UNL     1       0.896  10.492  19.455  0.00  0.00    +0.000 A 
ATOM     23  C   UNL     1       1.186  11.792  18.975  0.00  0.00    +0.000 A 
ATOM     24  C   UNL     1       1.488  12.549  20.083  0.00  0.00    +0.000 A 
ATOM     25  O   UNL     1       1.397  11.799  21.212  0.00  0.00    +0.000 OA
ENDBRANCH  20  21
ENDBRANCH  18  20
ENDBRANCH   1  17
TORSDOF 3
ENDMDL
MODEL 9
REMARK VINA RESULT:      -6.8      3.835      7.882
REMARK  Name = 
REMARK  3 active torsions:
REMARK  status: ('A' for Active; 'I' for Inactive)
REMARK    1  A    between atoms: C_2  and  C_10
REMARK    2  A    between atoms: N_3  and  C_4
REMARK    3  A    between atoms: C_4  and  C_5
REMARK                            x       y       z     vdW  Elec       q    Type
REMARK                         _______ _______ _______ _____ _____    ______ ____
ROOT
ATOM      1  C   UNL     1       5.909   5.398  17.205  0.00  0.00    +0.000 C 
ATOM      2  C   UNL     1       5.388   6.816  16.949  0.00  0.00    +0.000 C 
ATOM      3  C   UNL     1       3.926   6.755  17.336  0.00  0.00    +0.000 C 
ATOM      4  C   UNL     1       3.725   7.107  18.822  0.00  0.00    +0.000 C 
ATOM      5  C   UNL     1       2.390   6.593  19.347  0.00  0.00    +0.000 C 
ATOM      6  N   UNL     1       2.345   5.166  19.084  0.00  0.00    +0.000 N 
ATOM      7  C   UNL     1       2.018   4.240  20.048  0.00  0.00    +0.000 A 
ATOM      8  C   UNL     1       2.509   4.359  21.339  0.00  0.00    +0.000 A 
ATOM      9  C   UNL     1       2.190   3.362  22.232  0.00  0.00    +0.000 A 
ATOM     10  N   UNL     1       1.425   2.308  21.923  0.00  0.00    +0.000 NA
ATOM     11  C   UNL     1       0.996   2.277  20.655  0.00  0.00    +0.000 A 
ATOM     12  N   UNL     1       1.259   3.184  19.705  0.00  0.00    +0.000 NA
ATOM     13  C   UNL     1       2.333   4.764  17.677  0.00  0.00    +0.000 C 
ATOM     14  C   UNL     1       3.594   5.306  16.984  0.00  0.00    +0.000 C 
ATOM     15  O   UNL     1       4.766   4.543  17.337  0.00  0.00    +0.000 OA
ENDROOT
BRANCH   1  17
ATOM     16  O   UNL     1       7.965   4.423  16.330  0.00  0.00    +0.000 OA
ATOM     17  C   UNL     1       6.858   4.897  16.097  0.00  0.00    +0.000 C 
ATOM     18  N   UNL     1       6.337   4.973  14.823  0.00  0.00    +0.000 N 
ATOM     19  H   UNL     1       5.555   5.601  14.668  0.00  0.00    +0.000 HD
BRANCH  18  20
ATOM     20  C   UNL     1       7.154   4.615  13.686  0.00  0.00    +0.000 C 
BRANCH  20  21
ATOM     21  C   UNL     1       6.391   3.731  12.773  0.00  0.00    +0.000 A 
ATOM     22  C   UNL     1       6.760   2.726  11.900  0.00  0.00    +0.000 A 
ATOM     23  C   UNL     1       5.572   2.288  11.266  0.00  0.00    +0.000 A 
ATOM     24  C   UNL     1       4.556   3.054  11.789  0.00  0.00    +0.000 A 
ATOM     25  O   UNL     1       5.043   3.929  12.706  0.00  0.00    +0.000 OA
ENDBRANCH  20  21
ENDBRANCH  18  20
ENDBRANCH   1  17
TORSDOF 3
ENDMDL
