MODEL 1
REMARK VINA RESULT:      -7.5      0.000      0.000
REMARK  Name = 
REMARK  4 active torsions:
REMARK  status: ('A' for Active; 'I' for Inactive)
REMARK    1  A    between atoms: C_4  and  SE_5
REMARK    2  A    between atoms: SE_5  and  C_6
REMARK    3  A    between atoms: C_15  and  SE_16
REMARK    4  A    between atoms: SE_16  and  C_17
REMARK                            x       y       z     vdW  Elec       q    Type
REMARK                         _______ _______ _______ _____ _____    ______ ____
ROOT
ATOM      1  O   UNL     1       2.146   5.878  20.425  0.00  0.00    +0.000 OA
ATOM      2  C   UNL     1       2.109   6.882  19.732  0.00  0.00    +0.000 C 
ATOM      3  C   UNL     1       1.510   8.127  20.270  0.00  0.00    +0.000 C 
ATOM      4  C   UNL     1       1.478   9.249  19.528  0.00  0.00    +0.000 C 
ATOM      5  C   UNL     1       2.050   9.236  18.158  0.00  0.00    +0.000 C 
ATOM      6  O   UNL     1       2.053  10.252  17.482  0.00  0.00    +0.000 OA
ATOM      7  C   UNL     1       2.668   7.995  17.626  0.00  0.00    +0.000 C 
ATOM      8  C   UNL     1       2.697   6.874  18.368  0.00  0.00    +0.000 C 
ENDROOT
BRANCH   4   9
ATOM      9 SE   UNL     1       0.775  10.882  20.299  0.00  0.00    +0.000 Se
BRANCH   9  10
ATOM     10  C   UNL     1      -0.890  10.908  19.324  0.00  0.00    +0.000 A 
ATOM     11  C   UNL     1      -1.188   9.923  18.375  0.00  0.00    +0.000 A 
ATOM     12  C   UNL     1      -2.419   9.936  17.709  0.00  0.00    +0.000 A 
ATOM     13  C   UNL     1      -3.361  10.930  17.995  0.00  0.00    +0.000 A 
ATOM     14  C   UNL     1      -3.068  11.913  18.944  0.00  0.00    +0.000 A 
ATOM     15  C   UNL     1      -1.836  11.904  19.607  0.00  0.00    +0.000 A 
ENDBRANCH   9  10
ENDBRANCH   4   9
BRANCH   8  16
ATOM     16 SE   UNL     1       3.596   5.298  17.694  0.00  0.00    +0.000 Se
BRANCH  16  17
ATOM     17  C   UNL     1       5.393   5.870  18.092  0.00  0.00    +0.000 A 
ATOM     18  C   UNL     1       6.083   5.320  19.181  0.00  0.00    +0.000 A 
ATOM     19  C   UNL     1       7.407   5.694  19.437  0.00  0.00    +0.000 A 
ATOM     20  C   UNL     1       8.047   6.616  18.602  0.00  0.00    +0.000 A 
ATOM     21  C   UNL     1       7.362   7.166  17.513  0.00  0.00    +0.000 A 
ATOM     22  C   UNL     1       6.038   6.793  17.258  0.00  0.00    +0.000 A 
ENDBRANCH  16  17
ENDBRANCH   8  16
TORSDOF 4
ENDMDL
MODEL 2
REMARK VINA RESULT:      -7.5      0.260      8.134
REMARK  Name = 
REMARK  4 active torsions:
REMARK  status: ('A' for Active; 'I' for Inactive)
REMARK    1  A    between atoms: C_4  and  SE_5
REMARK    2  A    between atoms: SE_5  and  C_6
REMARK    3  A    between atoms: C_15  and  SE_16
REMARK    4  A    between atoms: SE_16  and  C_17
REMARK                            x       y       z     vdW  Elec       q    Type
REMARK                         _______ _______ _______ _____ _____    ______ ____
ROOT
ATOM      1  O   UNL     1       2.222  10.050  17.369  0.00  0.00    +0.000 OA
ATOM      2  C   UNL     1       2.148   9.081  18.109  0.00  0.00    +0.000 C 
ATOM      3  C   UNL     1       2.755   7.792  17.697  0.00  0.00    +0.000 C 
ATOM      4  C   UNL     1       2.701   6.720  18.508  0.00  0.00    +0.000 C 
ATOM      5  C   UNL     1       2.029   6.833  19.827  0.00  0.00    +0.000 C 
ATOM      6  O   UNL     1       1.995   5.877  20.585  0.00  0.00    +0.000 OA
ATOM      7  C   UNL     1       1.438   8.129  20.247  0.00  0.00    +0.000 C 
ATOM      8  C   UNL     1       1.491   9.199  19.435  0.00  0.00    +0.000 C 
ENDROOT
BRANCH   4   9
ATOM      9 SE   UNL     1       3.589   5.081  17.979  0.00  0.00    +0.000 Se
BRANCH   9  10
ATOM     10  C   UNL     1       5.400   5.723  18.157  0.00  0.00    +0.000 A 
ATOM     11  C   UNL     1       5.925   6.666  17.263  0.00  0.00    +0.000 A 
ATOM     12  C   UNL     1       7.226   7.150  17.434  0.00  0.00    +0.000 A 
ATOM     13  C   UNL     1       8.007   6.703  18.506  0.00  0.00    +0.000 A 
ATOM     14  C   UNL     1       7.485   5.765  19.402  0.00  0.00    +0.000 A 
ATOM     15  C   UNL     1       6.186   5.276  19.230  0.00  0.00    +0.000 A 
ENDBRANCH   9  10
ENDBRANCH   4   9
BRANCH   8  16
ATOM     16 SE   UNL     1       0.804  10.903  20.046  0.00  0.00    +0.000 Se
BRANCH  16  17
ATOM     17  C   UNL     1      -0.861  10.839  19.078  0.00  0.00    +0.000 A 
ATOM     18  C   UNL     1      -1.903  11.716  19.409  0.00  0.00    +0.000 A 
ATOM     19  C   UNL     1      -3.091  11.708  18.670  0.00  0.00    +0.000 A 
ATOM     20  C   UNL     1      -3.241  10.825  17.596  0.00  0.00    +0.000 A 
ATOM     21  C   UNL     1      -2.203   9.949  17.262  0.00  0.00    +0.000 A 
ATOM     22  C   UNL     1      -1.015   9.956  18.001  0.00  0.00    +0.000 A 
ENDBRANCH  16  17
ENDBRANCH   8  16
TORSDOF 4
ENDMDL
MODEL 3
REMARK VINA RESULT:      -7.5      0.104      8.159
REMARK  Name = 
REMARK  4 active torsions:
REMARK  status: ('A' for Active; 'I' for Inactive)
REMARK    1  A    between atoms: C_4  and  SE_5
REMARK    2  A    between atoms: SE_5  and  C_6
REMARK    3  A    between atoms: C_15  and  SE_16
REMARK    4  A    between atoms: SE_16  and  C_17
REMARK                            x       y       z     vdW  Elec       q    Type
REMARK                         _______ _______ _______ _____ _____    ______ ____
ROOT
ATOM      1  O   UNL     1       2.055  10.237  17.511  0.00  0.00    +0.000 OA
ATOM      2  C   UNL     1       2.024   9.234  18.206  0.00  0.00    +0.000 C 
ATOM      3  C   UNL     1       2.618   7.971  17.704  0.00  0.00    +0.000 C 
ATOM      4  C   UNL     1       2.612   6.861  18.463  0.00  0.00    +0.000 C 
ATOM      5  C   UNL     1       2.005   6.906  19.818  0.00  0.00    +0.000 C 
ATOM      6  O   UNL     1       2.015   5.915  20.531  0.00  0.00    +0.000 OA
ATOM      7  C   UNL     1       1.428   8.175  20.329  0.00  0.00    +0.000 C 
ATOM      8  C   UNL     1       1.433   9.283  19.567  0.00  0.00    +0.000 C 
ENDROOT
BRANCH   4   9
ATOM      9 SE   UNL     1       3.483   5.257  17.814  0.00  0.00    +0.000 Se
BRANCH   9  10
ATOM     10  C   UNL     1       5.299   5.824  18.139  0.00  0.00    +0.000 A 
ATOM     11  C   UNL     1       6.043   5.295  19.201  0.00  0.00    +0.000 A 
ATOM     12  C   UNL     1       7.372   5.688  19.394  0.00  0.00    +0.000 A 
ATOM     13  C   UNL     1       7.967   6.605  18.521  0.00  0.00    +0.000 A 
ATOM     14  C   UNL     1       7.228   7.132  17.458  0.00  0.00    +0.000 A 
ATOM     15  C   UNL     1       5.898   6.744  17.266  0.00  0.00    +0.000 A 
ENDBRANCH   9  10
ENDBRANCH   4   9
BRANCH   8  16
ATOM     16 SE   UNL     1       0.767  10.950  20.292  0.00  0.00    +0.000 Se
BRANCH  16  17
ATOM     17  C   UNL     1      -0.930  10.936  19.378  0.00  0.00    +0.000 A 
ATOM     18  C   UNL     1      -1.897  11.906  19.673  0.00  0.00    +0.000 A 
ATOM     19  C   UNL     1      -3.107  11.929  18.969  0.00  0.00    +0.000 A 
ATOM     20  C   UNL     1      -3.352  10.985  17.967  0.00  0.00    +0.000 A 
ATOM     21  C   UNL     1      -2.388  10.016  17.669  0.00  0.00    +0.000 A 
ATOM     22  C   UNL     1      -1.179   9.991  18.373  0.00  0.00    +0.000 A 
ENDBRANCH  16  17
ENDBRANCH   8  16
TORSDOF 4
ENDMDL
MODEL 4
REMARK VINA RESULT:      -7.4      2.696      3.857
REMARK  Name = 
REMARK  4 active torsions:
REMARK  status: ('A' for Active; 'I' for Inactive)
REMARK    1  A    between atoms: C_4  and  SE_5
REMARK    2  A    between atoms: SE_5  and  C_6
REMARK    3  A    between atoms: C_15  and  SE_16
REMARK    4  A    between atoms: SE_16  and  C_17
REMARK                            x       y       z     vdW  Elec       q    Type
REMARK                         _______ _______ _______ _____ _____    ______ ____
ROOT
ATOM      1  O   UNL     1       2.635   8.867  17.081  0.00  0.00    +0.000 OA
ATOM      2  C   UNL     1       2.108   8.832  18.181  0.00  0.00    +0.000 C 
ATOM      3  C   UNL     1       1.225   9.943  18.610  0.00  0.00    +0.000 C 
ATOM      4  C   UNL     1       0.619   9.913  19.810  0.00  0.00    +0.000 C 
ATOM      5  C   UNL     1       0.837   8.752  20.711  0.00  0.00    +0.000 C 
ATOM      6  O   UNL     1       0.273   8.696  21.792  0.00  0.00    +0.000 OA
ATOM      7  C   UNL     1       1.706   7.630  20.273  0.00  0.00    +0.000 C 
ATOM      8  C   UNL     1       2.312   7.663  19.074  0.00  0.00    +0.000 C 
ENDROOT
BRANCH   4   9
ATOM      9 SE   UNL     1      -0.604  11.335  20.298  0.00  0.00    +0.000 Se
BRANCH   9  10
ATOM     10  C   UNL     1      -1.870  11.060  18.867  0.00  0.00    +0.000 A 
ATOM     11  C   UNL     1      -1.649  10.091  17.881  0.00  0.00    +0.000 A 
ATOM     12  C   UNL     1      -2.599   9.878  16.876  0.00  0.00    +0.000 A 
ATOM     13  C   UNL     1      -3.781  10.627  16.858  0.00  0.00    +0.000 A 
ATOM     14  C   UNL     1      -4.007  11.593  17.843  0.00  0.00    +0.000 A 
ATOM     15  C   UNL     1      -3.056  11.810  18.845  0.00  0.00    +0.000 A 
ENDBRANCH   9  10
ENDBRANCH   4   9
BRANCH   8  16
ATOM     16 SE   UNL     1       3.358   6.145  18.483  0.00  0.00    +0.000 Se
BRANCH  16  17
ATOM     17  C   UNL     1       2.419   4.808  19.505  0.00  0.00    +0.000 A 
ATOM     18  C   UNL     1       1.431   4.022  18.897  0.00  0.00    +0.000 A 
ATOM     19  C   UNL     1       0.788   3.013  19.624  0.00  0.00    +0.000 A 
ATOM     20  C   UNL     1       1.135   2.785  20.960  0.00  0.00    +0.000 A 
ATOM     21  C   UNL     1       2.122   3.566  21.570  0.00  0.00    +0.000 A 
ATOM     22  C   UNL     1       2.764   4.575  20.843  0.00  0.00    +0.000 A 
ENDBRANCH  16  17
ENDBRANCH   8  16
TORSDOF 4
ENDMDL
MODEL 5
REMARK VINA RESULT:      -7.3      2.588      3.739
REMARK  Name = 
REMARK  4 active torsions:
REMARK  status: ('A' for Active; 'I' for Inactive)
REMARK    1  A    between atoms: C_4  and  SE_5
REMARK    2  A    between atoms: SE_5  and  C_6
REMARK    3  A    between atoms: C_15  and  SE_16
REMARK    4  A    between atoms: SE_16  and  C_17
REMARK                            x       y       z     vdW  Elec       q    Type
REMARK                         _______ _______ _______ _____ _____    ______ ____
ROOT
ATOM      1  O   UNL     1       2.870   8.704  16.899  0.00  0.00    +0.000 OA
ATOM      2  C   UNL     1       2.340   8.696  17.998  0.00  0.00    +0.000 C 
ATOM      3  C   UNL     1       1.495   9.841  18.416  0.00  0.00    +0.000 C 
ATOM      4  C   UNL     1       0.886   9.841  19.616  0.00  0.00    +0.000 C 
ATOM      5  C   UNL     1       1.061   8.681  20.525  0.00  0.00    +0.000 C 
ATOM      6  O   UNL     1       0.493   8.653  21.606  0.00  0.00    +0.000 OA
ATOM      7  C   UNL     1       1.890   7.525  20.099  0.00  0.00    +0.000 C 
ATOM      8  C   UNL     1       2.500   7.528  18.901  0.00  0.00    +0.000 C 
ENDROOT
BRANCH   4   9
ATOM      9 SE   UNL     1      -0.287  11.309  20.088  0.00  0.00    +0.000 Se
BRANCH   9  10
ATOM     10  C   UNL     1      -1.617  11.000  18.724  0.00  0.00    +0.000 A 
ATOM     11  C   UNL     1      -1.399  10.072  17.698  0.00  0.00    +0.000 A 
ATOM     12  C   UNL     1      -2.393   9.832  16.742  0.00  0.00    +0.000 A 
ATOM     13  C   UNL     1      -3.614  10.511  16.814  0.00  0.00    +0.000 A 
ATOM     14  C   UNL     1      -3.837  11.435  17.839  0.00  0.00    +0.000 A 
ATOM     15  C   UNL     1      -2.842  11.680  18.792  0.00  0.00    +0.000 A 
ENDBRANCH   9  10
ENDBRANCH   4   9
BRANCH   8  16
ATOM     16 SE   UNL     1       3.493   5.969  18.325  0.00  0.00    +0.000 Se
BRANCH  16  17
ATOM     17  C   UNL     1       2.529   4.678  19.382  0.00  0.00    +0.000 A 
ATOM     18  C   UNL     1       2.838   4.505  20.738  0.00  0.00    +0.000 A 
ATOM     19  C   UNL     1       2.100   3.608  21.519  0.00  0.00    +0.000 A 
ATOM     20  C   UNL     1       1.049   2.884  20.947  0.00  0.00    +0.000 A 
ATOM     21  C   UNL     1       0.736   3.055  19.595  0.00  0.00    +0.000 A 
ATOM     22  C   UNL     1       1.474   3.951  18.813  0.00  0.00    +0.000 A 
ENDBRANCH  16  17
ENDBRANCH   8  16
TORSDOF 4
ENDMDL
MODEL 6
REMARK VINA RESULT:      -7.3      2.621      3.892
REMARK  Name = 
REMARK  4 active torsions:
REMARK  status: ('A' for Active; 'I' for Inactive)
REMARK    1  A    between atoms: C_4  and  SE_5
REMARK    2  A    between atoms: SE_5  and  C_6
REMARK    3  A    between atoms: C_15  and  SE_16
REMARK    4  A    between atoms: SE_16  and  C_17
REMARK                            x       y       z     vdW  Elec       q    Type
REMARK                         _______ _______ _______ _____ _____    ______ ____
ROOT
ATOM      1  O   UNL     1       2.743   8.709  16.968  0.00  0.00    +0.000 OA
ATOM      2  C   UNL     1       2.231   8.699  18.076  0.00  0.00    +0.000 C 
ATOM      3  C   UNL     1       1.357   9.822  18.493  0.00  0.00    +0.000 C 
ATOM      4  C   UNL     1       0.768   9.820  19.702  0.00  0.00    +0.000 C 
ATOM      5  C   UNL     1       0.997   8.679  20.625  0.00  0.00    +0.000 C 
ATOM      6  O   UNL     1       0.448   8.648  21.715  0.00  0.00    +0.000 OA
ATOM      7  C   UNL     1       1.857   7.545  20.200  0.00  0.00    +0.000 C 
ATOM      8  C   UNL     1       2.446   7.550  18.992  0.00  0.00    +0.000 C 
ENDROOT
BRANCH   4   9
ATOM      9 SE   UNL     1      -0.444  11.255  20.175  0.00  0.00    +0.000 Se
BRANCH   9  10
ATOM     10  C   UNL     1      -1.733  10.950  18.771  0.00  0.00    +0.000 A 
ATOM     11  C   UNL     1      -2.928  11.677  18.715  0.00  0.00    +0.000 A 
ATOM     12  C   UNL     1      -3.830  11.471  17.665  0.00  0.00    +0.000 A 
ATOM     13  C   UNL     1      -3.536  10.543  16.660  0.00  0.00    +0.000 A 
ATOM     14  C   UNL     1      -2.342   9.819  16.710  0.00  0.00    +0.000 A 
ATOM     15  C   UNL     1      -1.442  10.020  17.762  0.00  0.00    +0.000 A 
ENDBRANCH   9  10
ENDBRANCH   4   9
BRANCH   8  16
ATOM     16 SE   UNL     1       3.480   6.016  18.420  0.00  0.00    +0.000 Se
BRANCH  16  17
ATOM     17  C   UNL     1       2.520   4.697  19.446  0.00  0.00    +0.000 A 
ATOM     18  C   UNL     1       2.844   4.477  20.791  0.00  0.00    +0.000 A 
ATOM     19  C   UNL     1       2.110   3.559  21.551  0.00  0.00    +0.000 A 
ATOM     20  C   UNL     1       1.048   2.860  20.969  0.00  0.00    +0.000 A 
ATOM     21  C   UNL     1       0.720   3.078  19.627  0.00  0.00    +0.000 A 
ATOM     22  C   UNL     1       1.454   3.995  18.866  0.00  0.00    +0.000 A 
ENDBRANCH  16  17
ENDBRANCH   8  16
TORSDOF 4
ENDMDL
MODEL 7
REMARK VINA RESULT:      -7.3      2.736      4.017
REMARK  Name = 
REMARK  4 active torsions:
REMARK  status: ('A' for Active; 'I' for Inactive)
REMARK    1  A    between atoms: C_4  and  SE_5
REMARK    2  A    between atoms: SE_5  and  C_6
REMARK    3  A    between atoms: C_15  and  SE_16
REMARK    4  A    between atoms: SE_16  and  C_17
REMARK                            x       y       z     vdW  Elec       q    Type
REMARK                         _______ _______ _______ _____ _____    ______ ____
ROOT
ATOM      1  O   UNL     1       2.537   8.868  17.068  0.00  0.00    +0.000 OA
ATOM      2  C   UNL     1       2.018   8.847  18.172  0.00  0.00    +0.000 C 
ATOM      3  C   UNL     1       1.068   9.918  18.560  0.00  0.00    +0.000 C 
ATOM      4  C   UNL     1       0.471   9.900  19.766  0.00  0.00    +0.000 C 
ATOM      5  C   UNL     1       0.766   8.795  20.713  0.00  0.00    +0.000 C 
ATOM      6  O   UNL     1       0.213   8.750  21.799  0.00  0.00    +0.000 OA
ATOM      7  C   UNL     1       1.703   7.713  20.316  0.00  0.00    +0.000 C 
ATOM      8  C   UNL     1       2.300   7.733  19.113  0.00  0.00    +0.000 C 
ENDROOT
BRANCH   4   9
ATOM      9 SE   UNL     1      -0.838  11.261  20.201  0.00  0.00    +0.000 Se
BRANCH   9  10
ATOM     10  C   UNL     1      -1.994  10.974  18.682  0.00  0.00    +0.000 A 
ATOM     11  C   UNL     1      -3.182  11.699  18.530  0.00  0.00    +0.000 A 
ATOM     12  C   UNL     1      -3.985  11.506  17.400  0.00  0.00    +0.000 A 
ATOM     13  C   UNL     1      -3.599  10.594  16.412  0.00  0.00    +0.000 A 
ATOM     14  C   UNL     1      -2.412   9.871  16.559  0.00  0.00    +0.000 A 
ATOM     15  C   UNL     1      -1.610  10.059  17.690  0.00  0.00    +0.000 A 
ENDBRANCH   9  10
ENDBRANCH   4   9
BRANCH   8  16
ATOM     16 SE   UNL     1       3.438   6.260  18.580  0.00  0.00    +0.000 Se
BRANCH  16  17
ATOM     17  C   UNL     1       2.420   4.863  19.431  0.00  0.00    +0.000 A 
ATOM     18  C   UNL     1       1.571   4.046  18.672  0.00  0.00    +0.000 A 
ATOM     19  C   UNL     1       0.875   2.996  19.282  0.00  0.00    +0.000 A 
ATOM     20  C   UNL     1       1.027   2.758  20.651  0.00  0.00    +0.000 A 
ATOM     21  C   UNL     1       1.874   3.570  21.412  0.00  0.00    +0.000 A 
ATOM     22  C   UNL     1       2.570   4.620  20.803  0.00  0.00    +0.000 A 
ENDBRANCH  16  17
ENDBRANCH   8  16
TORSDOF 4
ENDMDL
MODEL 8
REMARK VINA RESULT:      -7.3      2.632      7.587
REMARK  Name = 
REMARK  4 active torsions:
REMARK  status: ('A' for Active; 'I' for Inactive)
REMARK    1  A    between atoms: C_4  and  SE_5
REMARK    2  A    between atoms: SE_5  and  C_6
REMARK    3  A    between atoms: C_15  and  SE_16
REMARK    4  A    between atoms: SE_16  and  C_17
REMARK                            x       y       z     vdW  Elec       q    Type
REMARK                         _______ _______ _______ _____ _____    ______ ____
ROOT
ATOM      1  O   UNL     1       0.450   8.648  21.755  0.00  0.00    +0.000 OA
ATOM      2  C   UNL     1       0.973   8.680  20.652  0.00  0.00    +0.000 C 
ATOM      3  C   UNL     1       1.852   7.566  20.222  0.00  0.00    +0.000 C 
ATOM      4  C   UNL     1       2.420   7.573  19.002  0.00  0.00    +0.000 C 
ATOM      5  C   UNL     1       2.160   8.708  18.081  0.00  0.00    +0.000 C 
ATOM      6  O   UNL     1       2.646   8.717  16.961  0.00  0.00    +0.000 OA
ATOM      7  C   UNL     1       1.263   9.814  18.505  0.00  0.00    +0.000 C 
ATOM      8  C   UNL     1       0.698   9.806  19.724  0.00  0.00    +0.000 C 
ENDROOT
BRANCH   4   9
ATOM      9 SE   UNL     1       3.484   6.055  18.438  0.00  0.00    +0.000 Se
BRANCH   9  10
ATOM     10  C   UNL     1       2.541   4.713  19.455  0.00  0.00    +0.000 A 
ATOM     11  C   UNL     1       2.855   4.470  20.798  0.00  0.00    +0.000 A 
ATOM     12  C   UNL     1       2.131   3.521  21.530  0.00  0.00    +0.000 A 
ATOM     13  C   UNL     1       1.084   2.818  20.924  0.00  0.00    +0.000 A 
ATOM     14  C   UNL     1       0.765   3.060  19.585  0.00  0.00    +0.000 A 
ATOM     15  C   UNL     1       1.491   4.005  18.851  0.00  0.00    +0.000 A 
ENDBRANCH   9  10
ENDBRANCH   4   9
BRANCH   8  16
ATOM     16 SE   UNL     1      -0.545  11.206  20.216  0.00  0.00    +0.000 Se
BRANCH  16  17
ATOM     17  C   UNL     1      -1.786  10.931  18.768  0.00  0.00    +0.000 A 
ATOM     18  C   UNL     1      -2.961  11.691  18.692  0.00  0.00    +0.000 A 
ATOM     19  C   UNL     1      -3.834  11.530  17.611  0.00  0.00    +0.000 A 
ATOM     20  C   UNL     1      -3.535  10.611  16.601  0.00  0.00    +0.000 A 
ATOM     21  C   UNL     1      -2.364   9.850  16.672  0.00  0.00    +0.000 A 
ATOM     22  C   UNL     1      -1.490  10.010  17.754  0.00  0.00    +0.000 A 
ENDBRANCH  16  17
ENDBRANCH   8  16
TORSDOF 4
ENDMDL
MODEL 9
REMARK VINA RESULT:      -7.2      0.725      1.542
REMARK  Name = 
REMARK  4 active torsions:
REMARK  status: ('A' for Active; 'I' for Inactive)
REMARK    1  A    between atoms: C_4  and  SE_5
REMARK    2  A    between atoms: SE_5  and  C_6
REMARK    3  A    between atoms: C_15  and  SE_16
REMARK    4  A    between atoms: SE_16  and  C_17
REMARK                            x       y       z     vdW  Elec       q    Type
REMARK                         _______ _______ _______ _____ _____    ______ ____
ROOT
ATOM      1  O   UNL     1       2.502   5.321  20.209  0.00  0.00    +0.000 OA
ATOM      2  C   UNL     1       2.376   6.406  19.663  0.00  0.00    +0.000 C 
ATOM      3  C   UNL     1       1.703   7.517  20.379  0.00  0.00    +0.000 C 
ATOM      4  C   UNL     1       1.573   8.725  19.802  0.00  0.00    +0.000 C 
ATOM      5  C   UNL     1       2.113   8.945  18.437  0.00  0.00    +0.000 C 
ATOM      6  O   UNL     1       2.027  10.043  17.909  0.00  0.00    +0.000 OA
ATOM      7  C   UNL     1       2.805   7.838  17.728  0.00  0.00    +0.000 C 
ATOM      8  C   UNL     1       2.931   6.631  18.305  0.00  0.00    +0.000 C 
ENDROOT
BRANCH   4   9
ATOM      9 SE   UNL     1       0.775  10.179  20.804  0.00  0.00    +0.000 Se
BRANCH   9  10
ATOM     10  C   UNL     1      -0.472  10.747  19.445  0.00  0.00    +0.000 A 
ATOM     11  C   UNL     1      -0.494  12.071  18.991  0.00  0.00    +0.000 A 
ATOM     12  C   UNL     1      -1.378  12.453  17.975  0.00  0.00    +0.000 A 
ATOM     13  C   UNL     1      -2.237  11.510  17.401  0.00  0.00    +0.000 A 
ATOM     14  C   UNL     1      -2.215  10.186  17.848  0.00  0.00    +0.000 A 
ATOM     15  C   UNL     1      -1.336   9.804  18.868  0.00  0.00    +0.000 A 
ENDBRANCH   9  10
ENDBRANCH   4   9
BRANCH   8  16
ATOM     16 SE   UNL     1       3.924   5.235  17.404  0.00  0.00    +0.000 Se
BRANCH  16  17
ATOM     17  C   UNL     1       5.684   5.859  17.881  0.00  0.00    +0.000 A 
ATOM     18  C   UNL     1       6.282   6.901  17.160  0.00  0.00    +0.000 A 
ATOM     19  C   UNL     1       7.536   7.391  17.542  0.00  0.00    +0.000 A 
ATOM     20  C   UNL     1       8.194   6.844  18.648  0.00  0.00    +0.000 A 
ATOM     21  C   UNL     1       7.600   5.804  19.371  0.00  0.00    +0.000 A 
ATOM     22  C   UNL     1       6.346   5.313  18.989  0.00  0.00    +0.000 A 
ENDBRANCH  16  17
ENDBRANCH   8  16
TORSDOF 4
ENDMDL
