MODEL 1
REMARK VINA RESULT:      -7.6      0.000      0.000
REMARK  Name = 
REMARK  8 active torsions:
REMARK  status: ('A' for Active; 'I' for Inactive)
REMARK    1  A    between atoms: C_1  and  C_2
REMARK    2  A    between atoms: C_5  and  N_6
REMARK    3  A    between atoms: C_8  and  C_9
REMARK    4  A    between atoms: N_12  and  S_13
REMARK    5  A    between atoms: S_13  and  C_14
REMARK    6  A    between atoms: C_20  and  N_21
REMARK    7  A    between atoms: C_22  and  C_24
REMARK    8  A    between atoms: C_29  and  C_30
REMARK                            x       y       z     vdW  Elec       q    Type
REMARK                         _______ _______ _______ _____ _____    ______ ____
ROOT
ATOM      1  N   UNL     1       0.830  11.989  20.203  0.00  0.00    +0.000 N 
ATOM      2  N   UNL     1       1.647  12.615  21.090  0.00  0.00    +0.000 NA
ATOM      3  C   UNL     1       1.216  13.881  21.141  0.00  0.00    +0.000 A 
ATOM      4  C   UNL     1       0.012  14.033  20.406  0.00  0.00    +0.000 A 
ATOM      5  C   UNL     1      -0.233  12.805  19.835  0.00  0.00    +0.000 A 
ENDROOT
BRANCH   1  10
ATOM      6  C   UNL     1       2.406   6.840  18.239  0.00  0.00    +0.000 C 
ATOM      7  C   UNL     1       1.972   8.184  18.751  0.00  0.00    +0.000 A 
ATOM      8  C   UNL     1       1.514   8.338  20.064  0.00  0.00    +0.000 A 
ATOM      9  C   UNL     1       1.144   9.599  20.542  0.00  0.00    +0.000 A 
ATOM     10  C   UNL     1       1.186  10.715  19.694  0.00  0.00    +0.000 A 
ATOM     11  C   UNL     1       1.652  10.568  18.381  0.00  0.00    +0.000 A 
ATOM     12  C   UNL     1       2.054   9.310  17.921  0.00  0.00    +0.000 A 
ENDBRANCH   1  10
BRANCH   3  13
ATOM     13  C   UNL     1       1.951  14.943  21.932  0.00  0.00    +0.000 C 
ATOM     14  C   UNL     1       1.664  16.359  21.415  0.00  0.00    +0.000 C 
ATOM     15  C   UNL     1       2.277  16.600  20.046  0.00  0.00    +0.000 C 
ATOM     16  N   UNL     1       3.730  16.309  20.030  0.00  0.00    +0.000 NA
ATOM     17  C   UNL     1       4.154  15.028  20.651  0.00  0.00    +0.000 C 
ATOM     18  C   UNL     1       3.474  14.775  21.994  0.00  0.00    +0.000 C 
BRANCH  16  19
ATOM     19  S   UNL     1       4.543  16.705  18.576  0.00  0.00    +0.000 S 
ATOM     20  C   UNL     1       5.169  15.120  18.023  0.00  0.00    +0.000 C 
ATOM     21  O   UNL     1       3.556  17.146  17.617  0.00  0.00    +0.000 OA
ATOM     22  O   UNL     1       5.685  17.523  18.918  0.00  0.00    +0.000 OA
ENDBRANCH  16  19
ENDBRANCH   3  13
BRANCH   5  23
ATOM     23  N   UNL     1      -1.381  12.453  19.114  0.00  0.00    +0.000 N 
ATOM     24  C   UNL     1      -2.632  12.263  19.770  0.00  0.00    +0.000 C 
ATOM     25  O   UNL     1      -2.799  12.483  20.952  0.00  0.00    +0.000 OA
ATOM     26  H   UNL     1      -1.324  12.412  18.100  0.00  0.00    +0.000 HD
BRANCH  24  27
ATOM     27  C   UNL     1      -3.689  12.038  18.797  0.00  0.00    +0.000 A 
ATOM     28  C   UNL     1      -3.604  11.317  17.586  0.00  0.00    +0.000 A 
ATOM     29  N   UNL     1      -4.809  11.029  17.077  0.00  0.00    +0.000 NA
ATOM     30  N   UNL     1      -5.672  11.549  17.990  0.00  0.00    +0.000 N 
ATOM     31  C   UNL     1      -6.973  11.128  18.317  0.00  0.00    +0.000 A 
ATOM     32  C   UNL     1      -7.467  11.591  19.489  0.00  0.00    +0.000 A 
ATOM     33  C   UNL     1      -7.357  10.773  20.758  0.00  0.00    +0.000 C 
ATOM     34  C   UNL     1      -6.956  12.973  19.795  0.00  0.00    +0.000 A 
ATOM     35  N   UNL     1      -5.711  13.298  19.647  0.00  0.00    +0.000 NA
ATOM     36  C   UNL     1      -5.001  12.430  18.848  0.00  0.00    +0.000 A 
ENDBRANCH  24  27
ENDBRANCH   5  23
TORSDOF 5
ENDMDL
MODEL 2
REMARK VINA RESULT:      -7.4      3.601      6.569
REMARK  Name = 
REMARK  8 active torsions:
REMARK  status: ('A' for Active; 'I' for Inactive)
REMARK    1  A    between atoms: C_1  and  C_2
REMARK    2  A    between atoms: C_5  and  N_6
REMARK    3  A    between atoms: C_8  and  C_9
REMARK    4  A    between atoms: N_12  and  S_13
REMARK    5  A    between atoms: S_13  and  C_14
REMARK    6  A    between atoms: C_20  and  N_21
REMARK    7  A    between atoms: C_22  and  C_24
REMARK    8  A    between atoms: C_29  and  C_30
REMARK                            x       y       z     vdW  Elec       q    Type
REMARK                         _______ _______ _______ _____ _____    ______ ____
ROOT
ATOM      1  N   UNL     1       4.037  15.612  19.817  0.00  0.00    +0.000 N 
ATOM      2  N   UNL     1       5.335  15.963  20.008  0.00  0.00    +0.000 NA
ATOM      3  C   UNL     1       5.741  15.263  21.075  0.00  0.00    +0.000 A 
ATOM      4  C   UNL     1       4.747  14.334  21.476  0.00  0.00    +0.000 A 
ATOM      5  C   UNL     1       3.673  14.554  20.642  0.00  0.00    +0.000 A 
ENDROOT
BRANCH   1  10
ATOM      6  C   UNL     1       0.603  18.608  16.341  0.00  0.00    +0.000 C 
ATOM      7  C   UNL     1       1.512  17.842  17.258  0.00  0.00    +0.000 A 
ATOM      8  C   UNL     1       1.274  17.800  18.636  0.00  0.00    +0.000 A 
ATOM      9  C   UNL     1       2.106  17.056  19.478  0.00  0.00    +0.000 A 
ATOM     10  C   UNL     1       3.218  16.381  18.952  0.00  0.00    +0.000 A 
ATOM     11  C   UNL     1       3.457  16.412  17.573  0.00  0.00    +0.000 A 
ATOM     12  C   UNL     1       2.599  17.130  16.733  0.00  0.00    +0.000 A 
ENDBRANCH   1  10
BRANCH   3  13
ATOM     13  C   UNL     1       7.110  15.469  21.690  0.00  0.00    +0.000 C 
ATOM     14  C   UNL     1       8.119  16.047  20.690  0.00  0.00    +0.000 C 
ATOM     15  C   UNL     1       8.481  15.047  19.605  0.00  0.00    +0.000 C 
ATOM     16  N   UNL     1       8.965  13.766  20.171  0.00  0.00    +0.000 NA
ATOM     17  C   UNL     1       8.152  13.181  21.268  0.00  0.00    +0.000 C 
ATOM     18  C   UNL     1       7.742  14.217  22.311  0.00  0.00    +0.000 C 
BRANCH  16  19
ATOM     19  S   UNL     1       9.552  12.633  19.030  0.00  0.00    +0.000 S 
ATOM     20  C   UNL     1       9.340  11.068  19.874  0.00  0.00    +0.000 C 
ATOM     21  O   UNL     1       8.661  12.642  17.892  0.00  0.00    +0.000 OA
ATOM     22  O   UNL     1      10.973  12.853  18.880  0.00  0.00    +0.000 OA
ENDBRANCH  16  19
ENDBRANCH   3  13
BRANCH   5  23
ATOM     23  N   UNL     1       2.503  13.786  20.596  0.00  0.00    +0.000 N 
ATOM     24  C   UNL     1       1.430  14.026  21.502  0.00  0.00    +0.000 C 
ATOM     25  O   UNL     1       1.422  14.952  22.287  0.00  0.00    +0.000 OA
ATOM     26  H   UNL     1       2.400  13.102  19.852  0.00  0.00    +0.000 HD
BRANCH  24  27
ATOM     27  C   UNL     1       0.284  13.195  21.168  0.00  0.00    +0.000 A 
ATOM     28  C   UNL     1      -1.008  13.623  20.796  0.00  0.00    +0.000 A 
ATOM     29  N   UNL     1      -1.738  12.638  20.256  0.00  0.00    +0.000 NA
ATOM     30  N   UNL     1      -0.889  11.577  20.259  0.00  0.00    +0.000 N 
ATOM     31  C   UNL     1      -0.842  10.477  19.383  0.00  0.00    +0.000 A 
ATOM     32  C   UNL     1       0.305   9.759  19.395  0.00  0.00    +0.000 A 
ATOM     33  C   UNL     1       1.409  10.039  18.398  0.00  0.00    +0.000 C 
ATOM     34  C   UNL     1       0.926   9.735  20.766  0.00  0.00    +0.000 A 
ATOM     35  N   UNL     1       1.028  10.800  21.496  0.00  0.00    +0.000 NA
ATOM     36  C   UNL     1       0.204  11.829  21.099  0.00  0.00    +0.000 A 
ENDBRANCH  24  27
ENDBRANCH   5  23
TORSDOF 5
ENDMDL
MODEL 3
REMARK VINA RESULT:      -7.4      7.837     11.596
REMARK  Name = 
REMARK  8 active torsions:
REMARK  status: ('A' for Active; 'I' for Inactive)
REMARK    1  A    between atoms: C_1  and  C_2
REMARK    2  A    between atoms: C_5  and  N_6
REMARK    3  A    between atoms: C_8  and  C_9
REMARK    4  A    between atoms: N_12  and  S_13
REMARK    5  A    between atoms: S_13  and  C_14
REMARK    6  A    between atoms: C_20  and  N_21
REMARK    7  A    between atoms: C_22  and  C_24
REMARK    8  A    between atoms: C_29  and  C_30
REMARK                            x       y       z     vdW  Elec       q    Type
REMARK                         _______ _______ _______ _____ _____    ______ ____
ROOT
ATOM      1  N   UNL     1       7.049  14.680  22.441  0.00  0.00    +0.000 N 
ATOM      2  N   UNL     1       6.715  15.157  23.668  0.00  0.00    +0.000 NA
ATOM      3  C   UNL     1       7.637  14.666  24.505  0.00  0.00    +0.000 A 
ATOM      4  C   UNL     1       8.664  14.000  23.788  0.00  0.00    +0.000 A 
ATOM      5  C   UNL     1       8.284  14.043  22.466  0.00  0.00    +0.000 A 
ENDROOT
BRANCH   1  10
ATOM      6  C   UNL     1       3.297  15.205  18.140  0.00  0.00    +0.000 C 
ATOM      7  C   UNL     1       4.288  15.049  19.257  0.00  0.00    +0.000 A 
ATOM      8  C   UNL     1       5.623  15.430  19.091  0.00  0.00    +0.000 A 
ATOM      9  C   UNL     1       6.531  15.313  20.148  0.00  0.00    +0.000 A 
ATOM     10  C   UNL     1       6.120  14.769  21.373  0.00  0.00    +0.000 A 
ATOM     11  C   UNL     1       4.783  14.393  21.549  0.00  0.00    +0.000 A 
ATOM     12  C   UNL     1       3.872  14.547  20.497  0.00  0.00    +0.000 A 
ENDBRANCH   1  10
BRANCH   3  13
ATOM     13  C   UNL     1       7.544  14.868  26.003  0.00  0.00    +0.000 C 
ATOM     14  C   UNL     1       8.134  13.691  26.789  0.00  0.00    +0.000 C 
ATOM     15  C   UNL     1       7.289  12.436  26.655  0.00  0.00    +0.000 C 
ATOM     16  N   UNL     1       5.876  12.676  27.034  0.00  0.00    +0.000 NA
ATOM     17  C   UNL     1       5.235  13.887  26.458  0.00  0.00    +0.000 C 
ATOM     18  C   UNL     1       6.130  15.120  26.543  0.00  0.00    +0.000 C 
BRANCH  16  19
ATOM     19  S   UNL     1       4.878  11.285  27.072  0.00  0.00    +0.000 S 
ATOM     20  C   UNL     1       5.822  10.143  28.077  0.00  0.00    +0.000 C 
ATOM     21  O   UNL     1       3.674  11.619  27.799  0.00  0.00    +0.000 OA
ATOM     22  O   UNL     1       4.827  10.742  25.733  0.00  0.00    +0.000 OA
ENDBRANCH  16  19
ENDBRANCH   3  13
BRANCH   5  23
ATOM     23  N   UNL     1       9.053  13.609  21.379  0.00  0.00    +0.000 N 
ATOM     24  C   UNL     1       9.222  12.221  21.105  0.00  0.00    +0.000 C 
ATOM     25  O   UNL     1       8.644  11.350  21.722  0.00  0.00    +0.000 OA
ATOM     26  H   UNL     1       9.428  14.305  20.741  0.00  0.00    +0.000 HD
BRANCH  24  27
ATOM     27  C   UNL     1       9.945  12.031  19.858  0.00  0.00    +0.000 A 
ATOM     28  C   UNL     1       9.771  10.996  18.913  0.00  0.00    +0.000 A 
ATOM     29  N   UNL     1      10.357  11.269  17.741  0.00  0.00    +0.000 NA
ATOM     30  N   UNL     1      10.887  12.507  17.932  0.00  0.00    +0.000 N 
ATOM     31  C   UNL     1      11.124  13.524  16.991  0.00  0.00    +0.000 A 
ATOM     32  C   UNL     1      11.325  14.763  17.496  0.00  0.00    +0.000 A 
ATOM     33  C   UNL     1      10.183  15.749  17.618  0.00  0.00    +0.000 C 
ATOM     34  C   UNL     1      12.022  14.708  18.829  0.00  0.00    +0.000 A 
ATOM     35  N   UNL     1      11.676  13.872  19.755  0.00  0.00    +0.000 NA
ATOM     36  C   UNL     1      10.916  12.818  19.298  0.00  0.00    +0.000 A 
ENDBRANCH  24  27
ENDBRANCH   5  23
TORSDOF 5
ENDMDL
MODEL 4
REMARK VINA RESULT:      -7.3      3.526      7.694
REMARK  Name = 
REMARK  8 active torsions:
REMARK  status: ('A' for Active; 'I' for Inactive)
REMARK    1  A    between atoms: C_1  and  C_2
REMARK    2  A    between atoms: C_5  and  N_6
REMARK    3  A    between atoms: C_8  and  C_9
REMARK    4  A    between atoms: N_12  and  S_13
REMARK    5  A    between atoms: S_13  and  C_14
REMARK    6  A    between atoms: C_20  and  N_21
REMARK    7  A    between atoms: C_22  and  C_24
REMARK    8  A    between atoms: C_29  and  C_30
REMARK                            x       y       z     vdW  Elec       q    Type
REMARK                         _______ _______ _______ _____ _____    ______ ____
ROOT
ATOM      1  N   UNL     1      -3.220  12.248  19.769  0.00  0.00    +0.000 N 
ATOM      2  N   UNL     1      -4.349  12.447  20.496  0.00  0.00    +0.000 NA
ATOM      3  C   UNL     1      -3.932  12.713  21.739  0.00  0.00    +0.000 A 
ATOM      4  C   UNL     1      -2.520  12.846  21.778  0.00  0.00    +0.000 A 
ATOM      5  C   UNL     1      -2.084  12.572  20.502  0.00  0.00    +0.000 A 
ENDROOT
BRANCH   1  10
ATOM      6  C   UNL     1      -3.443   9.988  14.506  0.00  0.00    +0.000 C 
ATOM      7  C   UNL     1      -3.390  10.560  15.893  0.00  0.00    +0.000 A 
ATOM      8  C   UNL     1      -2.277  10.350  16.715  0.00  0.00    +0.000 A 
ATOM      9  C   UNL     1      -2.222  10.916  17.993  0.00  0.00    +0.000 A 
ATOM     10  C   UNL     1      -3.304  11.662  18.480  0.00  0.00    +0.000 A 
ATOM     11  C   UNL     1      -4.417  11.884  17.659  0.00  0.00    +0.000 A 
ATOM     12  C   UNL     1      -4.449  11.344  16.369  0.00  0.00    +0.000 A 
ENDBRANCH   1  10
BRANCH   3  13
ATOM     13  C   UNL     1      -4.902  12.872  22.891  0.00  0.00    +0.000 C 
ATOM     14  C   UNL     1      -5.674  14.196  22.825  0.00  0.00    +0.000 C 
ATOM     15  C   UNL     1      -4.776  15.392  23.090  0.00  0.00    +0.000 C 
ATOM     16  N   UNL     1      -4.045  15.264  24.372  0.00  0.00    +0.000 NA
ATOM     17  C   UNL     1      -3.383  13.958  24.627  0.00  0.00    +0.000 C 
ATOM     18  C   UNL     1      -4.281  12.771  24.289  0.00  0.00    +0.000 C 
BRANCH  16  19
ATOM     19  S   UNL     1      -3.131  16.634  24.839  0.00  0.00    +0.000 S 
ATOM     20  C   UNL     1      -2.453  17.211  23.285  0.00  0.00    +0.000 C 
ATOM     21  O   UNL     1      -4.050  17.642  25.318  0.00  0.00    +0.000 OA
ATOM     22  O   UNL     1      -2.026  16.173  25.647  0.00  0.00    +0.000 OA
ENDBRANCH  16  19
ENDBRANCH   3  13
BRANCH   5  23
ATOM     23  N   UNL     1      -0.767  12.696  20.043  0.00  0.00    +0.000 N 
ATOM     24  C   UNL     1      -0.297  13.919  19.482  0.00  0.00    +0.000 C 
ATOM     25  O   UNL     1      -0.962  14.933  19.456  0.00  0.00    +0.000 OA
ATOM     26  H   UNL     1      -0.126  11.921  20.189  0.00  0.00    +0.000 HD
BRANCH  24  27
ATOM     27  C   UNL     1       1.129  13.839  19.207  0.00  0.00    +0.000 A 
ATOM     28  C   UNL     1       1.851  12.724  18.729  0.00  0.00    +0.000 A 
ATOM     29  N   UNL     1       3.071  13.056  18.287  0.00  0.00    +0.000 NA
ATOM     30  N   UNL     1       3.115  14.404  18.458  0.00  0.00    +0.000 N 
ATOM     31  C   UNL     1       3.836  15.366  17.730  0.00  0.00    +0.000 A 
ATOM     32  C   UNL     1       3.430  16.648  17.880  0.00  0.00    +0.000 A 
ATOM     33  C   UNL     1       2.460  17.278  16.904  0.00  0.00    +0.000 C 
ATOM     34  C   UNL     1       2.907  16.902  19.268  0.00  0.00    +0.000 A 
ATOM     35  N   UNL     1       2.102  16.080  19.863  0.00  0.00    +0.000 NA
ATOM     36  C   UNL     1       2.079  14.821  19.306  0.00  0.00    +0.000 A 
ENDBRANCH  24  27
ENDBRANCH   5  23
TORSDOF 5
ENDMDL
MODEL 5
REMARK VINA RESULT:      -7.2      3.654      7.800
REMARK  Name = 
REMARK  8 active torsions:
REMARK  status: ('A' for Active; 'I' for Inactive)
REMARK    1  A    between atoms: C_1  and  C_2
REMARK    2  A    between atoms: C_5  and  N_6
REMARK    3  A    between atoms: C_8  and  C_9
REMARK    4  A    between atoms: N_12  and  S_13
REMARK    5  A    between atoms: S_13  and  C_14
REMARK    6  A    between atoms: C_20  and  N_21
REMARK    7  A    between atoms: C_22  and  C_24
REMARK    8  A    between atoms: C_29  and  C_30
REMARK                            x       y       z     vdW  Elec       q    Type
REMARK                         _______ _______ _______ _____ _____    ______ ____
ROOT
ATOM      1  N   UNL     1      -2.971  12.373  20.033  0.00  0.00    +0.000 N 
ATOM      2  N   UNL     1      -4.121  12.422  20.753  0.00  0.00    +0.000 NA
ATOM      3  C   UNL     1      -3.753  12.773  21.991  0.00  0.00    +0.000 A 
ATOM      4  C   UNL     1      -2.375  13.110  22.030  0.00  0.00    +0.000 A 
ATOM      5  C   UNL     1      -1.897  12.873  20.760  0.00  0.00    +0.000 A 
ENDROOT
BRANCH   1  10
ATOM      6  C   UNL     1      -3.058   9.762  14.931  0.00  0.00    +0.000 C 
ATOM      7  C   UNL     1      -3.030  10.465  16.258  0.00  0.00    +0.000 A 
ATOM      8  C   UNL     1      -4.089  11.285  16.659  0.00  0.00    +0.000 A 
ATOM      9  C   UNL     1      -4.069  11.908  17.910  0.00  0.00    +0.000 A 
ATOM     10  C   UNL     1      -2.963  11.753  18.757  0.00  0.00    +0.000 A 
ATOM     11  C   UNL     1      -1.903  10.926  18.365  0.00  0.00    +0.000 A 
ATOM     12  C   UNL     1      -1.947  10.277  17.127  0.00  0.00    +0.000 A 
ENDBRANCH   1  10
BRANCH   3  13
ATOM     13  C   UNL     1      -4.743  12.816  23.136  0.00  0.00    +0.000 C 
ATOM     14  C   UNL     1      -5.748  13.966  22.996  0.00  0.00    +0.000 C 
ATOM     15  C   UNL     1      -5.092  15.323  23.184  0.00  0.00    +0.000 C 
ATOM     16  N   UNL     1      -4.357  15.410  24.468  0.00  0.00    +0.000 NA
ATOM     17  C   UNL     1      -3.464  14.269  24.796  0.00  0.00    +0.000 C 
ATOM     18  C   UNL     1      -4.120  12.917  24.535  0.00  0.00    +0.000 C 
BRANCH  16  19
ATOM     19  S   UNL     1      -3.718  16.953  24.847  0.00  0.00    +0.000 S 
ATOM     20  C   UNL     1      -3.386  17.656  23.234  0.00  0.00    +0.000 C 
ATOM     21  O   UNL     1      -4.770  17.734  25.458  0.00  0.00    +0.000 OA
ATOM     22  O   UNL     1      -2.445  16.755  25.502  0.00  0.00    +0.000 OA
ENDBRANCH  16  19
ENDBRANCH   3  13
BRANCH   5  23
ATOM     23  N   UNL     1      -0.610  13.177  20.302  0.00  0.00    +0.000 N 
ATOM     24  C   UNL     1       0.530  12.482  20.799  0.00  0.00    +0.000 C 
ATOM     25  O   UNL     1       0.451  11.540  21.560  0.00  0.00    +0.000 OA
ATOM     26  H   UNL     1      -0.509  13.851  19.548  0.00  0.00    +0.000 HD
BRANCH  24  27
ATOM     27  C   UNL     1       1.727  12.881  20.076  0.00  0.00    +0.000 A 
ATOM     28  C   UNL     1       2.049  12.607  18.729  0.00  0.00    +0.000 A 
ATOM     29  N   UNL     1       3.057  13.366  18.279  0.00  0.00    +0.000 NA
ATOM     30  N   UNL     1       3.362  14.153  19.345  0.00  0.00    +0.000 N 
ATOM     31  C   UNL     1       3.901  15.452  19.362  0.00  0.00    +0.000 A 
ATOM     32  C   UNL     1       3.776  16.129  20.526  0.00  0.00    +0.000 A 
ATOM     33  C   UNL     1       2.621  17.082  20.752  0.00  0.00    +0.000 C 
ATOM     34  C   UNL     1       3.841  15.205  21.712  0.00  0.00    +0.000 A 
ATOM     35  N   UNL     1       3.196  14.082  21.748  0.00  0.00    +0.000 NA
ATOM     36  C   UNL     1       2.783  13.637  20.513  0.00  0.00    +0.000 A 
ENDBRANCH  24  27
ENDBRANCH   5  23
TORSDOF 5
ENDMDL
MODEL 6
REMARK VINA RESULT:      -7.2      4.627     10.948
REMARK  Name = 
REMARK  8 active torsions:
REMARK  status: ('A' for Active; 'I' for Inactive)
REMARK    1  A    between atoms: C_1  and  C_2
REMARK    2  A    between atoms: C_5  and  N_6
REMARK    3  A    between atoms: C_8  and  C_9
REMARK    4  A    between atoms: N_12  and  S_13
REMARK    5  A    between atoms: S_13  and  C_14
REMARK    6  A    between atoms: C_20  and  N_21
REMARK    7  A    between atoms: C_22  and  C_24
REMARK    8  A    between atoms: C_29  and  C_30
REMARK                            x       y       z     vdW  Elec       q    Type
REMARK                         _______ _______ _______ _____ _____    ______ ____
ROOT
ATOM      1  N   UNL     1       5.885  15.245  20.831  0.00  0.00    +0.000 N 
ATOM      2  N   UNL     1       4.560  15.411  21.079  0.00  0.00    +0.000 NA
ATOM      3  C   UNL     1       3.984  15.526  19.876  0.00  0.00    +0.000 A 
ATOM      4  C   UNL     1       4.921  15.272  18.842  0.00  0.00    +0.000 A 
ATOM      5  C   UNL     1       6.127  15.068  19.474  0.00  0.00    +0.000 A 
ENDROOT
BRANCH   1  10
ATOM      6  C   UNL     1       9.555  15.751  25.205  0.00  0.00    +0.000 C 
ATOM      7  C   UNL     1       8.610  15.612  24.046  0.00  0.00    +0.000 A 
ATOM      8  C   UNL     1       8.169  14.353  23.625  0.00  0.00    +0.000 A 
ATOM      9  C   UNL     1       7.263  14.237  22.566  0.00  0.00    +0.000 A 
ATOM     10  C   UNL     1       6.822  15.381  21.887  0.00  0.00    +0.000 A 
ATOM     11  C   UNL     1       7.253  16.645  22.309  0.00  0.00    +0.000 A 
ATOM     12  C   UNL     1       8.132  16.755  23.392  0.00  0.00    +0.000 A 
ENDBRANCH   1  10
BRANCH   3  13
ATOM     13  C   UNL     1       2.512  15.852  19.724  0.00  0.00    +0.000 C 
ATOM     14  C   UNL     1       1.703  15.495  20.978  0.00  0.00    +0.000 C 
ATOM     15  C   UNL     1       1.606  13.993  21.184  0.00  0.00    +0.000 C 
ATOM     16  N   UNL     1       1.069  13.303  19.988  0.00  0.00    +0.000 NA
ATOM     17  C   UNL     1       1.667  13.683  18.683  0.00  0.00    +0.000 C 
ATOM     18  C   UNL     1       1.818  15.194  18.525  0.00  0.00    +0.000 C 
BRANCH  16  19
ATOM     19  S   UNL     1       0.769  11.628  20.179  0.00  0.00    +0.000 S 
ATOM     20  C   UNL     1      -1.019  11.532  20.115  0.00  0.00    +0.000 C 
ATOM     21  O   UNL     1       1.287  10.946  19.015  0.00  0.00    +0.000 OA
ATOM     22  O   UNL     1       1.173  11.256  21.516  0.00  0.00    +0.000 OA
ENDBRANCH  16  19
ENDBRANCH   3  13
BRANCH   5  23
ATOM     23  N   UNL     1       7.317  14.668  18.854  0.00  0.00    +0.000 N 
ATOM     24  C   UNL     1       8.219  15.626  18.307  0.00  0.00    +0.000 C 
ATOM     25  O   UNL     1       8.064  16.824  18.427  0.00  0.00    +0.000 OA
ATOM     26  H   UNL     1       7.566  13.683  18.870  0.00  0.00    +0.000 HD
BRANCH  24  27
ATOM     27  C   UNL     1       9.435  14.977  17.843  0.00  0.00    +0.000 A 
ATOM     28  C   UNL     1      10.624  15.595  17.401  0.00  0.00    +0.000 A 
ATOM     29  N   UNL     1      11.653  14.741  17.340  0.00  0.00    +0.000 NA
ATOM     30  N   UNL     1      11.119  13.570  17.776  0.00  0.00    +0.000 N 
ATOM     31  C   UNL     1      11.749  12.501  18.439  0.00  0.00    +0.000 A 
ATOM     32  C   UNL     1      10.928  11.627  19.066  0.00  0.00    +0.000 A 
ATOM     33  C   UNL     1      10.611  11.776  20.538  0.00  0.00    +0.000 C 
ATOM     34  C   UNL     1       9.623  11.475  18.333  0.00  0.00    +0.000 A 
ATOM     35  N   UNL     1       8.966  12.492  17.874  0.00  0.00    +0.000 NA
ATOM     36  C   UNL     1       9.719  13.639  17.767  0.00  0.00    +0.000 A 
ENDBRANCH  24  27
ENDBRANCH   5  23
TORSDOF 5
ENDMDL
MODEL 7
REMARK VINA RESULT:      -7.1      4.182      7.998
REMARK  Name = 
REMARK  8 active torsions:
REMARK  status: ('A' for Active; 'I' for Inactive)
REMARK    1  A    between atoms: C_1  and  C_2
REMARK    2  A    between atoms: C_5  and  N_6
REMARK    3  A    between atoms: C_8  and  C_9
REMARK    4  A    between atoms: N_12  and  S_13
REMARK    5  A    between atoms: S_13  and  C_14
REMARK    6  A    between atoms: C_20  and  N_21
REMARK    7  A    between atoms: C_22  and  C_24
REMARK    8  A    between atoms: C_29  and  C_30
REMARK                            x       y       z     vdW  Elec       q    Type
REMARK                         _______ _______ _______ _____ _____    ______ ____
ROOT
ATOM      1  N   UNL     1      -0.639  10.831  19.267  0.00  0.00    +0.000 N 
ATOM      2  N   UNL     1      -1.089  11.688  20.220  0.00  0.00    +0.000 NA
ATOM      3  C   UNL     1      -0.387  11.398  21.322  0.00  0.00    +0.000 A 
ATOM      4  C   UNL     1       0.635  10.457  21.035  0.00  0.00    +0.000 A 
ATOM      5  C   UNL     1       0.475  10.126  19.708  0.00  0.00    +0.000 A 
ENDROOT
BRANCH   1  10
ATOM      6  C   UNL     1      -3.724  10.156  14.484  0.00  0.00    +0.000 C 
ATOM      7  C   UNL     1      -2.902  10.347  15.726  0.00  0.00    +0.000 A 
ATOM      8  C   UNL     1      -3.036  11.500  16.507  0.00  0.00    +0.000 A 
ATOM      9  C   UNL     1      -2.291  11.653  17.680  0.00  0.00    +0.000 A 
ATOM     10  C   UNL     1      -1.367  10.670  18.062  0.00  0.00    +0.000 A 
ATOM     11  C   UNL     1      -1.234   9.509  17.289  0.00  0.00    +0.000 A 
ATOM     12  C   UNL     1      -2.009   9.348  16.136  0.00  0.00    +0.000 A 
ENDBRANCH   1  10
BRANCH   3  13
ATOM     13  C   UNL     1      -0.684  12.057  22.653  0.00  0.00    +0.000 C 
ATOM     14  C   UNL     1      -2.070  11.683  23.194  0.00  0.00    +0.000 C 
ATOM     15  C   UNL     1      -3.187  12.289  22.363  0.00  0.00    +0.000 C 
ATOM     16  N   UNL     1      -3.045  13.758  22.229  0.00  0.00    +0.000 NA
ATOM     17  C   UNL     1      -1.695  14.259  21.862  0.00  0.00    +0.000 C 
ATOM     18  C   UNL     1      -0.583  13.587  22.662  0.00  0.00    +0.000 C 
BRANCH  16  19
ATOM     19  S   UNL     1      -4.343  14.554  21.447  0.00  0.00    +0.000 S 
ATOM     20  C   UNL     1      -4.833  13.380  20.186  0.00  0.00    +0.000 C 
ATOM     21  O   UNL     1      -5.432  14.666  22.390  0.00  0.00    +0.000 OA
ATOM     22  O   UNL     1      -3.806  15.714  20.771  0.00  0.00    +0.000 OA
ENDBRANCH  16  19
ENDBRANCH   3  13
BRANCH   5  23
ATOM     23  N   UNL     1       1.336   9.315  18.959  0.00  0.00    +0.000 N 
ATOM     24  C   UNL     1       1.821   8.080  19.479  0.00  0.00    +0.000 C 
ATOM     25  O   UNL     1       1.450   7.618  20.538  0.00  0.00    +0.000 OA
ATOM     26  H   UNL     1       1.549   9.586  18.003  0.00  0.00    +0.000 HD
BRANCH  24  27
ATOM     27  C   UNL     1       2.583   7.364  18.468  0.00  0.00    +0.000 A 
ATOM     28  C   UNL     1       3.663   7.851  17.701  0.00  0.00    +0.000 A 
ATOM     29  N   UNL     1       4.343   6.871  17.093  0.00  0.00    +0.000 NA
ATOM     30  N   UNL     1       3.703   5.742  17.501  0.00  0.00    +0.000 N 
ATOM     31  C   UNL     1       4.218   4.444  17.668  0.00  0.00    +0.000 A 
ATOM     32  C   UNL     1       3.465   3.601  18.412  0.00  0.00    +0.000 A 
ATOM     33  C   UNL     1       3.729   3.420  19.891  0.00  0.00    +0.000 C 
ATOM     34  C   UNL     1       1.995   3.879  18.243  0.00  0.00    +0.000 A 
ATOM     35  N   UNL     1       1.514   5.081  18.262  0.00  0.00    +0.000 NA
ATOM     36  C   UNL     1       2.459   6.063  18.060  0.00  0.00    +0.000 A 
ENDBRANCH  24  27
ENDBRANCH   5  23
TORSDOF 5
ENDMDL
MODEL 8
REMARK VINA RESULT:      -7.1      4.519     10.862
REMARK  Name = 
REMARK  8 active torsions:
REMARK  status: ('A' for Active; 'I' for Inactive)
REMARK    1  A    between atoms: C_1  and  C_2
REMARK    2  A    between atoms: C_5  and  N_6
REMARK    3  A    between atoms: C_8  and  C_9
REMARK    4  A    between atoms: N_12  and  S_13
REMARK    5  A    between atoms: S_13  and  C_14
REMARK    6  A    between atoms: C_20  and  N_21
REMARK    7  A    between atoms: C_22  and  C_24
REMARK    8  A    between atoms: C_29  and  C_30
REMARK                            x       y       z     vdW  Elec       q    Type
REMARK                         _______ _______ _______ _____ _____    ______ ____
ROOT
ATOM      1  N   UNL     1       5.803  15.301  20.826  0.00  0.00    +0.000 N 
ATOM      2  N   UNL     1       4.487  15.513  21.084  0.00  0.00    +0.000 NA
ATOM      3  C   UNL     1       3.900  15.624  19.886  0.00  0.00    +0.000 A 
ATOM      4  C   UNL     1       4.817  15.319  18.847  0.00  0.00    +0.000 A 
ATOM      5  C   UNL     1       6.023  15.089  19.470  0.00  0.00    +0.000 A 
ENDROOT
BRANCH   1  10
ATOM      6  C   UNL     1       9.769  15.868  24.924  0.00  0.00    +0.000 C 
ATOM      7  C   UNL     1       8.714  15.724  23.865  0.00  0.00    +0.000 A 
ATOM      8  C   UNL     1       8.143  16.850  23.263  0.00  0.00    +0.000 A 
ATOM      9  C   UNL     1       7.186  16.706  22.254  0.00  0.00    +0.000 A 
ATOM     10  C   UNL     1       6.756  15.428  21.868  0.00  0.00    +0.000 A 
ATOM     11  C   UNL     1       7.331  14.297  22.460  0.00  0.00    +0.000 A 
ATOM     12  C   UNL     1       8.313  14.449  23.444  0.00  0.00    +0.000 A 
ENDBRANCH   1  10
BRANCH   3  13
ATOM     13  C   UNL     1       2.438  15.993  19.743  0.00  0.00    +0.000 C 
ATOM     14  C   UNL     1       1.629  15.672  21.007  0.00  0.00    +0.000 C 
ATOM     15  C   UNL     1       1.488  14.175  21.227  0.00  0.00    +0.000 C 
ATOM     16  N   UNL     1       0.920  13.492  20.041  0.00  0.00    +0.000 NA
ATOM     17  C   UNL     1       1.518  13.843  18.727  0.00  0.00    +0.000 C 
ATOM     18  C   UNL     1       1.714  15.347  18.556  0.00  0.00    +0.000 C 
BRANCH  16  19
ATOM     19  S   UNL     1       0.570  11.828  20.248  0.00  0.00    +0.000 S 
ATOM     20  C   UNL     1       1.351  11.074  18.824  0.00  0.00    +0.000 C 
ATOM     21  O   UNL     1       1.269  11.368  21.427  0.00  0.00    +0.000 OA
ATOM     22  O   UNL     1      -0.858  11.656  20.099  0.00  0.00    +0.000 OA
ENDBRANCH  16  19
ENDBRANCH   3  13
BRANCH   5  23
ATOM     23  N   UNL     1       7.193  14.639  18.845  0.00  0.00    +0.000 N 
ATOM     24  C   UNL     1       8.152  15.559  18.331  0.00  0.00    +0.000 C 
ATOM     25  O   UNL     1       8.065  16.759  18.485  0.00  0.00    +0.000 OA
ATOM     26  H   UNL     1       7.384  13.641  18.833  0.00  0.00    +0.000 HD
BRANCH  24  27
ATOM     27  C   UNL     1       9.332  14.854  17.855  0.00  0.00    +0.000 A 
ATOM     28  C   UNL     1      10.550  15.416  17.417  0.00  0.00    +0.000 A 
ATOM     29  N   UNL     1      11.534  14.511  17.342  0.00  0.00    +0.000 NA
ATOM     30  N   UNL     1      10.941  13.363  17.765  0.00  0.00    +0.000 N 
ATOM     31  C   UNL     1      11.517  12.255  18.412  0.00  0.00    +0.000 A 
ATOM     32  C   UNL     1      10.654  11.416  19.029  0.00  0.00    +0.000 A 
ATOM     33  C   UNL     1      10.348  11.561  20.505  0.00  0.00    +0.000 C 
ATOM     34  C   UNL     1       9.340  11.340  18.299  0.00  0.00    +0.000 A 
ATOM     35  N   UNL     1       8.736  12.396  17.855  0.00  0.00    +0.000 NA
ATOM     36  C   UNL     1       9.547  13.504  17.760  0.00  0.00    +0.000 A 
ENDBRANCH  24  27
ENDBRANCH   5  23
TORSDOF 5
ENDMDL
MODEL 9
REMARK VINA RESULT:      -7.1      1.200      1.292
REMARK  Name = 
REMARK  8 active torsions:
REMARK  status: ('A' for Active; 'I' for Inactive)
REMARK    1  A    between atoms: C_1  and  C_2
REMARK    2  A    between atoms: C_5  and  N_6
REMARK    3  A    between atoms: C_8  and  C_9
REMARK    4  A    between atoms: N_12  and  S_13
REMARK    5  A    between atoms: S_13  and  C_14
REMARK    6  A    between atoms: C_20  and  N_21
REMARK    7  A    between atoms: C_22  and  C_24
REMARK    8  A    between atoms: C_29  and  C_30
REMARK                            x       y       z     vdW  Elec       q    Type
REMARK                         _______ _______ _______ _____ _____    ______ ____
ROOT
ATOM      1  N   UNL     1       0.532  11.863  20.446  0.00  0.00    +0.000 N 
ATOM      2  N   UNL     1       1.393  12.637  21.155  0.00  0.00    +0.000 NA
ATOM      3  C   UNL     1       0.790  13.826  21.274  0.00  0.00    +0.000 A 
ATOM      4  C   UNL     1      -0.538  13.769  20.778  0.00  0.00    +0.000 A 
ATOM      5  C   UNL     1      -0.694  12.496  20.276  0.00  0.00    +0.000 A 
ENDROOT
BRANCH   1  10
ATOM      6  C   UNL     1       2.474   6.917  18.297  0.00  0.00    +0.000 C 
ATOM      7  C   UNL     1       1.944   8.205  18.858  0.00  0.00    +0.000 A 
ATOM      8  C   UNL     1       1.522   8.289  20.189  0.00  0.00    +0.000 A 
ATOM      9  C   UNL     1       1.062   9.502  20.712  0.00  0.00    +0.000 A 
ATOM     10  C   UNL     1       0.978  10.636  19.892  0.00  0.00    +0.000 A 
ATOM     11  C   UNL     1       1.407  10.560  18.561  0.00  0.00    +0.000 A 
ATOM     12  C   UNL     1       1.899   9.353  18.055  0.00  0.00    +0.000 A 
ENDBRANCH   1  10
BRANCH   3  13
ATOM     13  C   UNL     1       1.488  15.016  21.900  0.00  0.00    +0.000 C 
ATOM     14  C   UNL     1       1.202  16.322  21.148  0.00  0.00    +0.000 C 
ATOM     15  C   UNL     1       1.855  16.344  19.777  0.00  0.00    +0.000 C 
ATOM     16  N   UNL     1       3.311  16.079  19.852  0.00  0.00    +0.000 NA
ATOM     17  C   UNL     1       3.729  14.925  20.688  0.00  0.00    +0.000 C 
ATOM     18  C   UNL     1       3.010  14.885  22.034  0.00  0.00    +0.000 C 
BRANCH  16  19
ATOM     19  S   UNL     1       4.166  16.243  18.377  0.00  0.00    +0.000 S 
ATOM     20  C   UNL     1       2.927  16.907  17.268  0.00  0.00    +0.000 C 
ATOM     21  O   UNL     1       5.180  17.256  18.559  0.00  0.00    +0.000 OA
ATOM     22  O   UNL     1       4.497  14.916  17.909  0.00  0.00    +0.000 OA
ENDBRANCH  16  19
ENDBRANCH   3  13
BRANCH   5  23
ATOM     23  N   UNL     1      -1.888  11.950  19.789  0.00  0.00    +0.000 N 
ATOM     24  C   UNL     1      -2.199  11.986  18.399  0.00  0.00    +0.000 C 
ATOM     25  O   UNL     1      -1.424  12.393  17.559  0.00  0.00    +0.000 OA
ATOM     26  H   UNL     1      -2.496  11.457  20.436  0.00  0.00    +0.000 HD
BRANCH  24  27
ATOM     27  C   UNL     1      -3.419  11.242  18.130  0.00  0.00    +0.000 A 
ATOM     28  C   UNL     1      -3.538   9.872  17.811  0.00  0.00    +0.000 A 
ATOM     29  N   UNL     1      -4.795   9.426  17.928  0.00  0.00    +0.000 NA
ATOM     30  N   UNL     1      -5.481  10.520  18.354  0.00  0.00    +0.000 N 
ATOM     31  C   UNL     1      -6.640  10.586  19.147  0.00  0.00    +0.000 A 
ATOM     32  C   UNL     1      -6.906  11.788  19.709  0.00  0.00    +0.000 A 
ATOM     33  C   UNL     1      -6.456  12.105  21.119  0.00  0.00    +0.000 C 
ATOM     34  C   UNL     1      -6.459  12.920  18.824  0.00  0.00    +0.000 A 
ATOM     35  N   UNL     1      -5.308  12.921  18.232  0.00  0.00    +0.000 NA
ATOM     36  C   UNL     1      -4.717  11.679  18.162  0.00  0.00    +0.000 A 
ENDBRANCH  24  27
ENDBRANCH   5  23
TORSDOF 5
ENDMDL
