MODEL 1
REMARK VINA RESULT:      -7.1      0.000      0.000
REMARK  Name = 
REMARK  12 active torsions:
REMARK  status: ('A' for Active; 'I' for Inactive)
REMARK    1  A    between atoms: C_1  and  C_2
REMARK    2  A    between atoms: C_2  and  O_3
REMARK    3  A    between atoms: O_3  and  P_4
REMARK    4  A    between atoms: P_4  and  O_6
REMARK    5  A    between atoms: P_4  and  C_9
REMARK    6  A    between atoms: O_6  and  C_7
REMARK    7  A    between atoms: C_7  and  C_8
REMARK    8  A    between atoms: C_11  and  C_12
REMARK    9  A    between atoms: N_14  and  C_15
REMARK   10  A    between atoms: C_19  and  C_20
REMARK   11  A    between atoms: C_20  and  C_21
REMARK   12  A    between atoms: N_25  and  C_26
REMARK                            x       y       z     vdW  Elec       q    Type
REMARK                         _______ _______ _______ _____ _____    ______ ____
ROOT
ATOM      1  C   UNL     1       3.612   4.614  18.494  0.00  0.00    +0.000 C 
ATOM      2  C   UNL     1       3.578   6.033  17.957  0.00  0.00    +0.000 C 
ATOM      3  C   UNL     1       5.029   6.327  17.636  0.00  0.00    +0.000 C 
ATOM      4  O   UNL     1       5.800   5.402  18.395  0.00  0.00    +0.000 OA
ATOM      5  N   UNL     1       4.881   4.663  19.270  0.00  0.00    +0.000 NA
ATOM      6  C   UNL     1       5.501   3.340  19.388  0.00  0.00    +0.000 C 
ENDROOT
BRANCH   3   7
ATOM      7  C   UNL     1       5.317   6.234  16.131  0.00  0.00    +0.000 C 
ATOM      8  O   UNL     1       4.935   7.122  15.372  0.00  0.00    +0.000 OA
ATOM      9  N   UNL     1       6.056   5.120  15.757  0.00  0.00    +0.000 N 
ATOM     10  H   UNL     1       6.163   4.395  16.460  0.00  0.00    +0.000 HD
BRANCH   9  11
ATOM     11  C   UNL     1       6.488   4.817  14.445  0.00  0.00    +0.000 A 
ATOM     12  C   UNL     1       7.620   5.394  13.866  0.00  0.00    +0.000 A 
ATOM     13  C   UNL     1       7.981   5.098  12.551  0.00  0.00    +0.000 A 
ATOM     14  C   UNL     1       7.216   4.214  11.794  0.00  0.00    +0.000 A 
ATOM     15  C   UNL     1       6.090   3.605  12.355  0.00  0.00    +0.000 A 
ATOM     16  C   UNL     1       5.744   3.900  13.692  0.00  0.00    +0.000 A 
BRANCH  15  17
ATOM     17  C   UNL     1       5.210   2.662  11.593  0.00  0.00    +0.000 C 
ATOM     18  C   UNL     1       3.887   3.113  11.021  0.00  0.00    +0.000 C 
ATOM     19  O   UNL     1       5.571   1.493  11.453  0.00  0.00    +0.000 OA
ENDBRANCH  15  17
ENDBRANCH   9  11
ENDBRANCH   3   7
BRANCH   1  20
ATOM     20  P   UNL     1       2.229   4.286  19.647  0.00  0.00    +0.000 P 
ATOM     21  O   UNL     1       1.226   4.438  18.486  0.00  0.00    +0.000 OA
BRANCH  20  22
ATOM     22  O   UNL     1       0.922   3.975  20.736  0.00  0.00    +0.000 OA
BRANCH  22  24
ATOM     23  C   UNL     1       2.649   2.494  21.500  0.00  0.00    +0.000 C 
ATOM     24  C   UNL     1       1.176   2.836  21.548  0.00  0.00    +0.000 C 
ENDBRANCH  22  24
ENDBRANCH  20  22
BRANCH  20  25
ATOM     25  O   UNL     1       2.433   5.787  20.330  0.00  0.00    +0.000 OA
BRANCH  25  26
ATOM     26  C   UNL     1       1.270   6.430  20.845  0.00  0.00    +0.000 C 
ATOM     27  C   UNL     1       1.400   7.931  20.679  0.00  0.00    +0.000 C 
ENDBRANCH  25  26
ENDBRANCH  20  25
ENDBRANCH   1  20
TORSDOF 8
ENDMDL
MODEL 2
REMARK VINA RESULT:      -7.0      2.622      8.225
REMARK  Name = 
REMARK  12 active torsions:
REMARK  status: ('A' for Active; 'I' for Inactive)
REMARK    1  A    between atoms: C_1  and  C_2
REMARK    2  A    between atoms: C_2  and  O_3
REMARK    3  A    between atoms: O_3  and  P_4
REMARK    4  A    between atoms: P_4  and  O_6
REMARK    5  A    between atoms: P_4  and  C_9
REMARK    6  A    between atoms: O_6  and  C_7
REMARK    7  A    between atoms: C_7  and  C_8
REMARK    8  A    between atoms: C_11  and  C_12
REMARK    9  A    between atoms: N_14  and  C_15
REMARK   10  A    between atoms: C_19  and  C_20
REMARK   11  A    between atoms: C_20  and  C_21
REMARK   12  A    between atoms: N_25  and  C_26
REMARK                            x       y       z     vdW  Elec       q    Type
REMARK                         _______ _______ _______ _____ _____    ______ ____
ROOT
ATOM      1  C   UNL     1       5.704   5.638  17.662  0.00  0.00    +0.000 C 
ATOM      2  C   UNL     1       4.338   5.015  17.442  0.00  0.00    +0.000 C 
ATOM      3  C   UNL     1       3.887   4.644  18.840  0.00  0.00    +0.000 C 
ATOM      4  O   UNL     1       5.066   4.582  19.635  0.00  0.00    +0.000 OA
ATOM      5  N   UNL     1       6.219   4.755  18.743  0.00  0.00    +0.000 NA
ATOM      6  C   UNL     1       7.209   5.439  19.582  0.00  0.00    +0.000 C 
ENDROOT
BRANCH   3   7
ATOM      7  C   UNL     1       2.857   5.636  19.395  0.00  0.00    +0.000 C 
ATOM      8  O   UNL     1       2.156   5.328  20.356  0.00  0.00    +0.000 OA
ATOM      9  N   UNL     1       2.844   6.868  18.754  0.00  0.00    +0.000 N 
ATOM     10  H   UNL     1       3.360   6.925  17.881  0.00  0.00    +0.000 HD
BRANCH   9  11
ATOM     11  C   UNL     1       2.022   7.968  19.092  0.00  0.00    +0.000 A 
ATOM     12  C   UNL     1       1.494   8.842  18.142  0.00  0.00    +0.000 A 
ATOM     13  C   UNL     1       0.725   9.940  18.528  0.00  0.00    +0.000 A 
ATOM     14  C   UNL     1       0.467  10.178  19.875  0.00  0.00    +0.000 A 
ATOM     15  C   UNL     1       0.965   9.307  20.848  0.00  0.00    +0.000 A 
ATOM     16  C   UNL     1       1.728   8.190  20.444  0.00  0.00    +0.000 A 
BRANCH  15  17
ATOM     17  C   UNL     1       0.743   9.513  22.315  0.00  0.00    +0.000 C 
ATOM     18  C   UNL     1      -0.639   9.757  22.872  0.00  0.00    +0.000 C 
ATOM     19  O   UNL     1       1.715   9.502  23.072  0.00  0.00    +0.000 OA
ENDBRANCH  15  17
ENDBRANCH   9  11
ENDBRANCH   3   7
BRANCH   1  20
ATOM     20  P   UNL     1       6.781   5.461  16.193  0.00  0.00    +0.000 P 
ATOM     21  O   UNL     1       7.381   4.171  16.788  0.00  0.00    +0.000 OA
BRANCH  20  22
ATOM     22  O   UNL     1       7.800   5.294  14.804  0.00  0.00    +0.000 OA
BRANCH  22  24
ATOM     23  C   UNL     1       5.702   4.332  14.145  0.00  0.00    +0.000 C 
ATOM     24  C   UNL     1       7.110   4.684  13.720  0.00  0.00    +0.000 C 
ENDBRANCH  22  24
ENDBRANCH  20  22
BRANCH  20  25
ATOM     25  O   UNL     1       7.715   6.733  16.716  0.00  0.00    +0.000 OA
BRANCH  25  26
ATOM     26  C   UNL     1       7.032   7.883  17.207  0.00  0.00    +0.000 C 
ATOM     27  C   UNL     1       8.016   8.811  17.889  0.00  0.00    +0.000 C 
ENDBRANCH  25  26
ENDBRANCH  20  25
ENDBRANCH   1  20
TORSDOF 8
ENDMDL
MODEL 3
REMARK VINA RESULT:      -6.8      1.550      2.111
REMARK  Name = 
REMARK  12 active torsions:
REMARK  status: ('A' for Active; 'I' for Inactive)
REMARK    1  A    between atoms: C_1  and  C_2
REMARK    2  A    between atoms: C_2  and  O_3
REMARK    3  A    between atoms: O_3  and  P_4
REMARK    4  A    between atoms: P_4  and  O_6
REMARK    5  A    between atoms: P_4  and  C_9
REMARK    6  A    between atoms: O_6  and  C_7
REMARK    7  A    between atoms: C_7  and  C_8
REMARK    8  A    between atoms: C_11  and  C_12
REMARK    9  A    between atoms: N_14  and  C_15
REMARK   10  A    between atoms: C_19  and  C_20
REMARK   11  A    between atoms: C_20  and  C_21
REMARK   12  A    between atoms: N_25  and  C_26
REMARK                            x       y       z     vdW  Elec       q    Type
REMARK                         _______ _______ _______ _____ _____    ______ ____
ROOT
ATOM      1  C   UNL     1       4.694   4.331  18.572  0.00  0.00    +0.000 C 
ATOM      2  C   UNL     1       3.742   5.164  17.734  0.00  0.00    +0.000 C 
ATOM      3  C   UNL     1       4.579   6.361  17.329  0.00  0.00    +0.000 C 
ATOM      4  O   UNL     1       5.653   6.428  18.261  0.00  0.00    +0.000 OA
ATOM      5  N   UNL     1       5.416   5.413  19.295  0.00  0.00    +0.000 NA
ATOM      6  C   UNL     1       6.765   4.999  19.693  0.00  0.00    +0.000 C 
ENDROOT
BRANCH   3   7
ATOM      7  C   UNL     1       5.068   6.258  15.878  0.00  0.00    +0.000 C 
ATOM      8  O   UNL     1       4.959   7.219  15.119  0.00  0.00    +0.000 OA
ATOM      9  N   UNL     1       5.655   5.042  15.556  0.00  0.00    +0.000 N 
ATOM     10  H   UNL     1       5.532   4.292  16.228  0.00  0.00    +0.000 HD
BRANCH   9  11
ATOM     11  C   UNL     1       6.220   4.703  14.305  0.00  0.00    +0.000 A 
ATOM     12  C   UNL     1       7.404   5.268  13.827  0.00  0.00    +0.000 A 
ATOM     13  C   UNL     1       7.898   4.935  12.566  0.00  0.00    +0.000 A 
ATOM     14  C   UNL     1       7.217   4.025  11.762  0.00  0.00    +0.000 A 
ATOM     15  C   UNL     1       6.041   3.427  12.222  0.00  0.00    +0.000 A 
ATOM     16  C   UNL     1       5.559   3.760  13.507  0.00  0.00    +0.000 A 
BRANCH  15  17
ATOM     17  C   UNL     1       5.246   2.457  11.403  0.00  0.00    +0.000 C 
ATOM     18  C   UNL     1       3.872   2.810  10.885  0.00  0.00    +0.000 C 
ATOM     19  O   UNL     1       5.721   1.345  11.170  0.00  0.00    +0.000 OA
ENDBRANCH  15  17
ENDBRANCH   9  11
ENDBRANCH   3   7
BRANCH   1  20
ATOM     20  P   UNL     1       3.804   3.298  19.794  0.00  0.00    +0.000 P 
ATOM     21  O   UNL     1       5.126   2.592  20.159  0.00  0.00    +0.000 OA
BRANCH  20  22
ATOM     22  O   UNL     1       2.963   2.323  20.948  0.00  0.00    +0.000 OA
BRANCH  22  24
ATOM     23  C   UNL     1       2.166   4.546  21.370  0.00  0.00    +0.000 C 
ATOM     24  C   UNL     1       2.220   3.117  21.864  0.00  0.00    +0.000 C 
ENDBRANCH  22  24
ENDBRANCH  20  22
BRANCH  20  25
ATOM     25  O   UNL     1       3.101   2.434  18.561  0.00  0.00    +0.000 OA
BRANCH  25  26
ATOM     26  C   UNL     1       1.769   1.970  18.769  0.00  0.00    +0.000 C 
ATOM     27  C   UNL     1       0.785   3.067  18.417  0.00  0.00    +0.000 C 
ENDBRANCH  25  26
ENDBRANCH  20  25
ENDBRANCH   1  20
TORSDOF 8
ENDMDL
MODEL 4
REMARK VINA RESULT:      -6.7      3.089      8.754
REMARK  Name = 
REMARK  12 active torsions:
REMARK  status: ('A' for Active; 'I' for Inactive)
REMARK    1  A    between atoms: C_1  and  C_2
REMARK    2  A    between atoms: C_2  and  O_3
REMARK    3  A    between atoms: O_3  and  P_4
REMARK    4  A    between atoms: P_4  and  O_6
REMARK    5  A    between atoms: P_4  and  C_9
REMARK    6  A    between atoms: O_6  and  C_7
REMARK    7  A    between atoms: C_7  and  C_8
REMARK    8  A    between atoms: C_11  and  C_12
REMARK    9  A    between atoms: N_14  and  C_15
REMARK   10  A    between atoms: C_19  and  C_20
REMARK   11  A    between atoms: C_20  and  C_21
REMARK   12  A    between atoms: N_25  and  C_26
REMARK                            x       y       z     vdW  Elec       q    Type
REMARK                         _______ _______ _______ _____ _____    ______ ____
ROOT
ATOM      1  C   UNL     1       4.930   5.979  17.871  0.00  0.00    +0.000 C 
ATOM      2  C   UNL     1       3.822   6.799  17.238  0.00  0.00    +0.000 C 
ATOM      3  C   UNL     1       2.590   6.402  18.028  0.00  0.00    +0.000 C 
ATOM      4  O   UNL     1       2.894   5.151  18.635  0.00  0.00    +0.000 OA
ATOM      5  N   UNL     1       4.198   4.709  18.126  0.00  0.00    +0.000 NA
ATOM      6  C   UNL     1       4.775   3.962  19.248  0.00  0.00    +0.000 C 
ENDROOT
BRANCH   3   7
ATOM      7  C   UNL     1       2.194   7.472  19.054  0.00  0.00    +0.000 C 
ATOM      8  O   UNL     1       2.358   7.268  20.255  0.00  0.00    +0.000 OA
ATOM      9  N   UNL     1       1.702   8.645  18.497  0.00  0.00    +0.000 N 
ATOM     10  H   UNL     1       1.473   8.612  17.509  0.00  0.00    +0.000 HD
BRANCH   9  11
ATOM     11  C   UNL     1       1.304   9.797  19.215  0.00  0.00    +0.000 A 
ATOM     12  C   UNL     1       1.464  11.092  18.722  0.00  0.00    +0.000 A 
ATOM     13  C   UNL     1       1.097  12.200  19.487  0.00  0.00    +0.000 A 
ATOM     14  C   UNL     1       0.558  12.028  20.759  0.00  0.00    +0.000 A 
ATOM     15  C   UNL     1       0.366  10.741  21.271  0.00  0.00    +0.000 A 
ATOM     16  C   UNL     1       0.727   9.628  20.480  0.00  0.00    +0.000 A 
BRANCH  15  17
ATOM     17  C   UNL     1      -0.189  10.483  22.638  0.00  0.00    +0.000 C 
ATOM     18  C   UNL     1      -1.481  11.120  23.091  0.00  0.00    +0.000 C 
ATOM     19  O   UNL     1       0.437   9.753  23.407  0.00  0.00    +0.000 OA
ENDBRANCH  15  17
ENDBRANCH   9  11
ENDBRANCH   3   7
BRANCH   1  20
ATOM     20  P   UNL     1       6.293   5.648  16.695  0.00  0.00    +0.000 P 
ATOM     21  O   UNL     1       7.028   4.831  17.777  0.00  0.00    +0.000 OA
BRANCH  20  22
ATOM     22  O   UNL     1       7.581   5.335  15.584  0.00  0.00    +0.000 OA
BRANCH  22  24
ATOM     23  C   UNL     1       5.682   4.316  14.527  0.00  0.00    +0.000 C 
ATOM     24  C   UNL     1       7.094   4.829  14.347  0.00  0.00    +0.000 C 
ENDBRANCH  22  24
ENDBRANCH  20  22
BRANCH  20  25
ATOM     25  O   UNL     1       6.801   7.225  16.830  0.00  0.00    +0.000 OA
BRANCH  25  26
ATOM     26  C   UNL     1       7.725   7.523  17.873  0.00  0.00    +0.000 C 
ATOM     27  C   UNL     1       8.078   8.996  17.838  0.00  0.00    +0.000 C 
ENDBRANCH  25  26
ENDBRANCH  20  25
ENDBRANCH   1  20
TORSDOF 8
ENDMDL
MODEL 5
REMARK VINA RESULT:      -6.7      1.023      1.144
REMARK  Name = 
REMARK  12 active torsions:
REMARK  status: ('A' for Active; 'I' for Inactive)
REMARK    1  A    between atoms: C_1  and  C_2
REMARK    2  A    between atoms: C_2  and  O_3
REMARK    3  A    between atoms: O_3  and  P_4
REMARK    4  A    between atoms: P_4  and  O_6
REMARK    5  A    between atoms: P_4  and  C_9
REMARK    6  A    between atoms: O_6  and  C_7
REMARK    7  A    between atoms: C_7  and  C_8
REMARK    8  A    between atoms: C_11  and  C_12
REMARK    9  A    between atoms: N_14  and  C_15
REMARK   10  A    between atoms: C_19  and  C_20
REMARK   11  A    between atoms: C_20  and  C_21
REMARK   12  A    between atoms: N_25  and  C_26
REMARK                            x       y       z     vdW  Elec       q    Type
REMARK                         _______ _______ _______ _____ _____    ______ ____
ROOT
ATOM      1  C   UNL     1       4.071   4.504  18.358  0.00  0.00    +0.000 C 
ATOM      2  C   UNL     1       4.587   5.918  18.163  0.00  0.00    +0.000 C 
ATOM      3  C   UNL     1       6.093   5.750  18.164  0.00  0.00    +0.000 C 
ATOM      4  O   UNL     1       6.354   4.508  18.808  0.00  0.00    +0.000 OA
ATOM      5  N   UNL     1       5.080   3.992  19.324  0.00  0.00    +0.000 NA
ATOM      6  C   UNL     1       5.232   2.537  19.237  0.00  0.00    +0.000 C 
ENDROOT
BRANCH   3   7
ATOM      7  C   UNL     1       6.681   5.811  16.749  0.00  0.00    +0.000 C 
ATOM      8  O   UNL     1       7.566   6.621  16.480  0.00  0.00    +0.000 OA
ATOM      9  N   UNL     1       6.161   4.869  15.871  0.00  0.00    +0.000 N 
ATOM     10  H   UNL     1       5.329   4.377  16.181  0.00  0.00    +0.000 HD
BRANCH   9  11
ATOM     11  C   UNL     1       6.556   4.687  14.525  0.00  0.00    +0.000 A 
ATOM     12  C   UNL     1       7.562   5.440  13.920  0.00  0.00    +0.000 A 
ATOM     13  C   UNL     1       7.886   5.255  12.576  0.00  0.00    +0.000 A 
ATOM     14  C   UNL     1       7.209   4.305  11.814  0.00  0.00    +0.000 A 
ATOM     15  C   UNL     1       6.211   3.521  12.400  0.00  0.00    +0.000 A 
ATOM     16  C   UNL     1       5.904   3.707  13.765  0.00  0.00    +0.000 A 
BRANCH  15  17
ATOM     17  C   UNL     1       5.429   2.497  11.636  0.00  0.00    +0.000 C 
ATOM     18  C   UNL     1       6.017   1.144  11.311  0.00  0.00    +0.000 C 
ATOM     19  O   UNL     1       4.293   2.778  11.253  0.00  0.00    +0.000 OA
ENDBRANCH  15  17
ENDBRANCH   9  11
ENDBRANCH   3   7
BRANCH   1  20
ATOM     20  P   UNL     1       2.425   4.481  19.157  0.00  0.00    +0.000 P 
ATOM     21  O   UNL     1       1.761   4.784  17.798  0.00  0.00    +0.000 OA
BRANCH  20  22
ATOM     22  O   UNL     1       0.869   4.459  19.913  0.00  0.00    +0.000 OA
BRANCH  22  24
ATOM     23  C   UNL     1       1.679   2.786  21.429  0.00  0.00    +0.000 C 
ATOM     24  C   UNL     1       0.576   3.186  20.474  0.00  0.00    +0.000 C 
ENDBRANCH  22  24
ENDBRANCH  20  22
BRANCH  20  25
ATOM     25  O   UNL     1       2.751   5.938  19.888  0.00  0.00    +0.000 OA
BRANCH  25  26
ATOM     26  C   UNL     1       1.726   6.501  20.701  0.00  0.00    +0.000 C 
ATOM     27  C   UNL     1       1.717   8.008  20.543  0.00  0.00    +0.000 C 
ENDBRANCH  25  26
ENDBRANCH  20  25
ENDBRANCH   1  20
TORSDOF 8
ENDMDL
MODEL 6
REMARK VINA RESULT:      -6.6      1.462      1.510
REMARK  Name = 
REMARK  12 active torsions:
REMARK  status: ('A' for Active; 'I' for Inactive)
REMARK    1  A    between atoms: C_1  and  C_2
REMARK    2  A    between atoms: C_2  and  O_3
REMARK    3  A    between atoms: O_3  and  P_4
REMARK    4  A    between atoms: P_4  and  O_6
REMARK    5  A    between atoms: P_4  and  C_9
REMARK    6  A    between atoms: O_6  and  C_7
REMARK    7  A    between atoms: C_7  and  C_8
REMARK    8  A    between atoms: C_11  and  C_12
REMARK    9  A    between atoms: N_14  and  C_15
REMARK   10  A    between atoms: C_19  and  C_20
REMARK   11  A    between atoms: C_20  and  C_21
REMARK   12  A    between atoms: N_25  and  C_26
REMARK                            x       y       z     vdW  Elec       q    Type
REMARK                         _______ _______ _______ _____ _____    ______ ____
ROOT
ATOM      1  C   UNL     1       4.144   3.878  18.480  0.00  0.00    +0.000 C 
ATOM      2  C   UNL     1       4.763   5.191  18.037  0.00  0.00    +0.000 C 
ATOM      3  C   UNL     1       6.250   4.963  18.221  0.00  0.00    +0.000 C 
ATOM      4  O   UNL     1       6.375   3.883  19.139  0.00  0.00    +0.000 OA
ATOM      5  N   UNL     1       5.032   3.549  19.627  0.00  0.00    +0.000 NA
ATOM      6  C   UNL     1       5.098   2.104  19.869  0.00  0.00    +0.000 C 
ENDROOT
BRANCH   3   7
ATOM      7  C   UNL     1       6.959   4.687  16.889  0.00  0.00    +0.000 C 
ATOM      8  O   UNL     1       8.110   4.255  16.879  0.00  0.00    +0.000 OA
ATOM      9  N   UNL     1       6.179   4.922  15.765  0.00  0.00    +0.000 N 
ATOM     10  H   UNL     1       5.311   5.425  15.918  0.00  0.00    +0.000 HD
BRANCH   9  11
ATOM     11  C   UNL     1       6.577   4.711  14.424  0.00  0.00    +0.000 A 
ATOM     12  C   UNL     1       7.634   5.399  13.828  0.00  0.00    +0.000 A 
ATOM     13  C   UNL     1       7.960   5.189  12.488  0.00  0.00    +0.000 A 
ATOM     14  C   UNL     1       7.235   4.281  11.722  0.00  0.00    +0.000 A 
ATOM     15  C   UNL     1       6.183   3.562  12.298  0.00  0.00    +0.000 A 
ATOM     16  C   UNL     1       5.873   3.771  13.660  0.00  0.00    +0.000 A 
BRANCH  15  17
ATOM     17  C   UNL     1       5.348   2.585  11.529  0.00  0.00    +0.000 C 
ATOM     18  C   UNL     1       3.956   2.942  11.062  0.00  0.00    +0.000 C 
ATOM     19  O   UNL     1       5.803   1.466  11.294  0.00  0.00    +0.000 OA
ENDBRANCH  15  17
ENDBRANCH   9  11
ENDBRANCH   3   7
BRANCH   1  20
ATOM     20  P   UNL     1       2.437   4.103  19.101  0.00  0.00    +0.000 P 
ATOM     21  O   UNL     1       1.885   3.807  17.692  0.00  0.00    +0.000 OA
BRANCH  20  22
ATOM     22  O   UNL     1       0.824   4.315  19.689  0.00  0.00    +0.000 OA
BRANCH  22  24
ATOM     23  C   UNL     1       1.779   2.763  21.252  0.00  0.00    +0.000 C 
ATOM     24  C   UNL     1       0.656   3.741  20.979  0.00  0.00    +0.000 C 
ENDBRANCH  22  24
ENDBRANCH  20  22
BRANCH  20  25
ATOM     25  O   UNL     1       2.683   5.743  19.206  0.00  0.00    +0.000 OA
BRANCH  25  26
ATOM     26  C   UNL     1       1.919   6.572  18.334  0.00  0.00    +0.000 C 
ATOM     27  C   UNL     1       2.423   7.999  18.412  0.00  0.00    +0.000 C 
ENDBRANCH  25  26
ENDBRANCH  20  25
ENDBRANCH   1  20
TORSDOF 8
ENDMDL
MODEL 7
REMARK VINA RESULT:      -6.6      3.292      9.139
REMARK  Name = 
REMARK  12 active torsions:
REMARK  status: ('A' for Active; 'I' for Inactive)
REMARK    1  A    between atoms: C_1  and  C_2
REMARK    2  A    between atoms: C_2  and  O_3
REMARK    3  A    between atoms: O_3  and  P_4
REMARK    4  A    between atoms: P_4  and  O_6
REMARK    5  A    between atoms: P_4  and  C_9
REMARK    6  A    between atoms: O_6  and  C_7
REMARK    7  A    between atoms: C_7  and  C_8
REMARK    8  A    between atoms: C_11  and  C_12
REMARK    9  A    between atoms: N_14  and  C_15
REMARK   10  A    between atoms: C_19  and  C_20
REMARK   11  A    between atoms: C_20  and  C_21
REMARK   12  A    between atoms: N_25  and  C_26
REMARK                            x       y       z     vdW  Elec       q    Type
REMARK                         _______ _______ _______ _____ _____    ______ ____
ROOT
ATOM      1  C   UNL     1       4.410   5.547  18.150  0.00  0.00    +0.000 C 
ATOM      2  C   UNL     1       3.904   6.959  17.918  0.00  0.00    +0.000 C 
ATOM      3  C   UNL     1       2.405   6.832  18.097  0.00  0.00    +0.000 C 
ATOM      4  O   UNL     1       2.097   5.455  17.914  0.00  0.00    +0.000 OA
ATOM      5  N   UNL     1       3.325   4.772  17.489  0.00  0.00    +0.000 NA
ATOM      6  C   UNL     1       3.190   3.427  18.056  0.00  0.00    +0.000 C 
ENDROOT
BRANCH   3   7
ATOM      7  C   UNL     1       1.940   7.362  19.460  0.00  0.00    +0.000 C 
ATOM      8  O   UNL     1       2.250   6.770  20.492  0.00  0.00    +0.000 OA
ATOM      9  N   UNL     1       1.213   8.543  19.399  0.00  0.00    +0.000 N 
ATOM     10  H   UNL     1       0.898   8.829  18.477  0.00  0.00    +0.000 HD
BRANCH   9  11
ATOM     11  C   UNL     1       0.703   9.259  20.507  0.00  0.00    +0.000 A 
ATOM     12  C   UNL     1       0.183   8.633  21.640  0.00  0.00    +0.000 A 
ATOM     13  C   UNL     1      -0.350   9.382  22.690  0.00  0.00    +0.000 A 
ATOM     14  C   UNL     1      -0.366  10.773  22.624  0.00  0.00    +0.000 A 
ATOM     15  C   UNL     1       0.168  11.427  21.510  0.00  0.00    +0.000 A 
ATOM     16  C   UNL     1       0.719  10.659  20.461  0.00  0.00    +0.000 A 
BRANCH  15  17
ATOM     17  C   UNL     1       0.165  12.918  21.363  0.00  0.00    +0.000 C 
ATOM     18  C   UNL     1      -1.023  13.645  20.780  0.00  0.00    +0.000 C 
ATOM     19  O   UNL     1       1.162  13.552  21.708  0.00  0.00    +0.000 OA
ENDBRANCH  15  17
ENDBRANCH   9  11
ENDBRANCH   3   7
BRANCH   1  20
ATOM     20  P   UNL     1       5.982   5.230  17.267  0.00  0.00    +0.000 P 
ATOM     21  O   UNL     1       6.527   4.487  18.503  0.00  0.00    +0.000 OA
BRANCH  20  22
ATOM     22  O   UNL     1       7.467   4.932  16.432  0.00  0.00    +0.000 OA
BRANCH  22  24
ATOM     23  C   UNL     1       5.808   4.481  14.758  0.00  0.00    +0.000 C 
ATOM     24  C   UNL     1       7.263   4.793  15.031  0.00  0.00    +0.000 C 
ENDBRANCH  22  24
ENDBRANCH  20  22
BRANCH  20  25
ATOM     25  O   UNL     1       6.400   6.832  17.423  0.00  0.00    +0.000 OA
BRANCH  25  26
ATOM     26  C   UNL     1       7.692   7.118  17.953  0.00  0.00    +0.000 C 
ATOM     27  C   UNL     1       8.001   8.591  17.780  0.00  0.00    +0.000 C 
ENDBRANCH  25  26
ENDBRANCH  20  25
ENDBRANCH   1  20
TORSDOF 8
ENDMDL
MODEL 8
REMARK VINA RESULT:      -6.5      3.792      7.533
REMARK  Name = 
REMARK  12 active torsions:
REMARK  status: ('A' for Active; 'I' for Inactive)
REMARK    1  A    between atoms: C_1  and  C_2
REMARK    2  A    between atoms: C_2  and  O_3
REMARK    3  A    between atoms: O_3  and  P_4
REMARK    4  A    between atoms: P_4  and  O_6
REMARK    5  A    between atoms: P_4  and  C_9
REMARK    6  A    between atoms: O_6  and  C_7
REMARK    7  A    between atoms: C_7  and  C_8
REMARK    8  A    between atoms: C_11  and  C_12
REMARK    9  A    between atoms: N_14  and  C_15
REMARK   10  A    between atoms: C_19  and  C_20
REMARK   11  A    between atoms: C_20  and  C_21
REMARK   12  A    between atoms: N_25  and  C_26
REMARK                            x       y       z     vdW  Elec       q    Type
REMARK                         _______ _______ _______ _____ _____    ______ ____
ROOT
ATOM      1  C   UNL     1       2.709   5.350  17.871  0.00  0.00    +0.000 C 
ATOM      2  C   UNL     1       2.201   6.188  19.029  0.00  0.00    +0.000 C 
ATOM      3  C   UNL     1       2.980   7.481  18.902  0.00  0.00    +0.000 C 
ATOM      4  O   UNL     1       4.128   7.178  18.117  0.00  0.00    +0.000 OA
ATOM      5  N   UNL     1       4.149   5.727  17.892  0.00  0.00    +0.000 NA
ATOM      6  C   UNL     1       4.769   5.589  16.571  0.00  0.00    +0.000 C 
ENDROOT
BRANCH   3   7
ATOM      7  C   UNL     1       2.134   8.606  18.292  0.00  0.00    +0.000 C 
ATOM      8  O   UNL     1       2.277   8.919  17.112  0.00  0.00    +0.000 OA
ATOM      9  N   UNL     1       1.208   9.164  19.165  0.00  0.00    +0.000 N 
ATOM     10  H   UNL     1       1.311   8.920  20.144  0.00  0.00    +0.000 HD
BRANCH   9  11
ATOM     11  C   UNL     1       0.283  10.185  18.846  0.00  0.00    +0.000 A 
ATOM     12  C   UNL     1       0.369  11.477  19.364  0.00  0.00    +0.000 A 
ATOM     13  C   UNL     1      -0.594  12.438  19.056  0.00  0.00    +0.000 A 
ATOM     14  C   UNL     1      -1.660  12.122  18.218  0.00  0.00    +0.000 A 
ATOM     15  C   UNL     1      -1.761  10.841  17.668  0.00  0.00    +0.000 A 
ATOM     16  C   UNL     1      -0.771   9.881  17.974  0.00  0.00    +0.000 A 
BRANCH  15  17
ATOM     17  C   UNL     1      -2.891  10.425  16.776  0.00  0.00    +0.000 C 
ATOM     18  C   UNL     1      -4.279  10.992  16.955  0.00  0.00    +0.000 C 
ATOM     19  O   UNL     1      -2.680   9.589  15.897  0.00  0.00    +0.000 OA
ENDBRANCH  15  17
ENDBRANCH   9  11
ENDBRANCH   3   7
BRANCH   1  20
ATOM     20  P   UNL     1       2.565   3.557  18.208  0.00  0.00    +0.000 P 
ATOM     21  O   UNL     1       1.993   3.337  16.793  0.00  0.00    +0.000 OA
BRANCH  20  22
ATOM     22  O   UNL     1       2.429   1.862  18.527  0.00  0.00    +0.000 OA
BRANCH  22  24
ATOM     23  C   UNL     1       4.491   1.996  19.749  0.00  0.00    +0.000 C 
ATOM     24  C   UNL     1       3.705   1.255  18.689  0.00  0.00    +0.000 C 
ENDBRANCH  22  24
ENDBRANCH  20  22
BRANCH  20  25
ATOM     25  O   UNL     1       1.282   3.845  19.225  0.00  0.00    +0.000 OA
BRANCH  25  26
ATOM     26  C   UNL     1       0.892   2.785  20.095  0.00  0.00    +0.000 C 
ATOM     27  C   UNL     1       1.419   3.048  21.491  0.00  0.00    +0.000 C 
ENDBRANCH  25  26
ENDBRANCH  20  25
ENDBRANCH   1  20
TORSDOF 8
ENDMDL
MODEL 9
REMARK VINA RESULT:      -6.5      5.417      7.947
REMARK  Name = 
REMARK  12 active torsions:
REMARK  status: ('A' for Active; 'I' for Inactive)
REMARK    1  A    between atoms: C_1  and  C_2
REMARK    2  A    between atoms: C_2  and  O_3
REMARK    3  A    between atoms: O_3  and  P_4
REMARK    4  A    between atoms: P_4  and  O_6
REMARK    5  A    between atoms: P_4  and  C_9
REMARK    6  A    between atoms: O_6  and  C_7
REMARK    7  A    between atoms: C_7  and  C_8
REMARK    8  A    between atoms: C_11  and  C_12
REMARK    9  A    between atoms: N_14  and  C_15
REMARK   10  A    between atoms: C_19  and  C_20
REMARK   11  A    between atoms: C_20  and  C_21
REMARK   12  A    between atoms: N_25  and  C_26
REMARK                            x       y       z     vdW  Elec       q    Type
REMARK                         _______ _______ _______ _____ _____    ______ ____
ROOT
ATOM      1  C   UNL     1      -1.527  10.335  18.676  0.00  0.00    +0.000 C 
ATOM      2  C   UNL     1      -0.476  10.034  17.624  0.00  0.00    +0.000 C 
ATOM      3  C   UNL     1       0.831  10.319  18.337  0.00  0.00    +0.000 C 
ATOM      4  O   UNL     1       0.510  11.167  19.433  0.00  0.00    +0.000 OA
ATOM      5  N   UNL     1      -0.911  11.524  19.324  0.00  0.00    +0.000 NA
ATOM      6  C   UNL     1      -1.341  11.670  20.718  0.00  0.00    +0.000 C 
ENDROOT
BRANCH   3   7
ATOM      7  C   UNL     1       1.539   9.031  18.779  0.00  0.00    +0.000 C 
ATOM      8  O   UNL     1       1.545   8.704  19.964  0.00  0.00    +0.000 OA
ATOM      9  N   UNL     1       2.097   8.298  17.740  0.00  0.00    +0.000 N 
ATOM     10  H   UNL     1       2.155   8.766  16.841  0.00  0.00    +0.000 HD
BRANCH   9  11
ATOM     11  C   UNL     1       2.768   7.060  17.869  0.00  0.00    +0.000 A 
ATOM     12  C   UNL     1       4.130   6.903  17.609  0.00  0.00    +0.000 A 
ATOM     13  C   UNL     1       4.738   5.652  17.707  0.00  0.00    +0.000 A 
ATOM     14  C   UNL     1       3.992   4.534  18.073  0.00  0.00    +0.000 A 
ATOM     15  C   UNL     1       2.631   4.665  18.360  0.00  0.00    +0.000 A 
ATOM     16  C   UNL     1       2.030   5.940  18.273  0.00  0.00    +0.000 A 
BRANCH  15  17
ATOM     17  C   UNL     1       1.764   3.504  18.738  0.00  0.00    +0.000 C 
ATOM     18  C   UNL     1       1.208   3.364  20.136  0.00  0.00    +0.000 C 
ATOM     19  O   UNL     1       1.521   2.641  17.894  0.00  0.00    +0.000 OA
ENDBRANCH  15  17
ENDBRANCH   9  11
ENDBRANCH   3   7
BRANCH   1  20
ATOM     20  P   UNL     1      -3.121  10.834  17.926  0.00  0.00    +0.000 P 
ATOM     21  O   UNL     1      -3.624   9.379  18.028  0.00  0.00    +0.000 OA
BRANCH  20  22
ATOM     22  O   UNL     1      -4.627  11.305  17.217  0.00  0.00    +0.000 OA
BRANCH  22  24
ATOM     23  C   UNL     1      -5.622  12.110  19.247  0.00  0.00    +0.000 C 
ATOM     24  C   UNL     1      -5.712  11.110  18.115  0.00  0.00    +0.000 C 
ENDBRANCH  22  24
ENDBRANCH  20  22
BRANCH  20  25
ATOM     25  O   UNL     1      -2.380  11.002  16.447  0.00  0.00    +0.000 OA
BRANCH  25  26
ATOM     26  C   UNL     1      -3.225  11.085  15.303  0.00  0.00    +0.000 C 
ATOM     27  C   UNL     1      -2.949   9.918  14.377  0.00  0.00    +0.000 C 
ENDBRANCH  25  26
ENDBRANCH  20  25
ENDBRANCH   1  20
TORSDOF 8
ENDMDL
