MODEL 1
REMARK VINA RESULT:      -7.3      0.000      0.000
REMARK  Name = 
REMARK  6 active torsions:
REMARK  status: ('A' for Active; 'I' for Inactive)
REMARK    1  A    between atoms: C_1  and  O_2
REMARK    2  A    between atoms: O_2  and  C_3
REMARK    3  A    between atoms: C_3  and  C_4
REMARK    4  A    between atoms: C_4  and  C_5
REMARK    5  A    between atoms: N_7  and  C_8
REMARK    6  A    between atoms: N_12  and  C_13
REMARK                            x       y       z     vdW  Elec       q    Type
REMARK                         _______ _______ _______ _____ _____    ______ ____
ROOT
ATOM      1  C   UNL     1       6.072   5.048  15.482  0.00  0.00    +0.000 C 
ATOM      2  C   UNL     1       5.350   6.389  15.394  0.00  0.00    +0.000 C 
ATOM      3  C   UNL     1       4.673   6.524  16.733  0.00  0.00    +0.000 C 
ATOM      4  O   UNL     1       4.145   7.550  17.126  0.00  0.00    +0.000 OA
ATOM      5  N   UNL     1       4.723   5.297  17.379  0.00  0.00    +0.000 N 
ATOM      6  C   UNL     1       5.241   4.271  16.501  0.00  0.00    +0.000 C 
ENDROOT
BRANCH   5   7
ATOM      7  C   UNL     1       4.023   4.940  18.611  0.00  0.00    +0.000 C 
ATOM      8  C   UNL     1       2.486   4.814  18.502  0.00  0.00    +0.000 C 
ATOM      9  C   UNL     1       2.182   3.974  19.705  0.00  0.00    +0.000 A 
ATOM     10  C   UNL     1       0.953   3.785  20.314  0.00  0.00    +0.000 A 
ATOM     11  C   UNL     1       0.884   2.929  21.411  0.00  0.00    +0.000 A 
ATOM     12  C   UNL     1       2.033   2.267  21.877  0.00  0.00    +0.000 A 
ATOM     13  C   UNL     1       3.266   2.447  21.239  0.00  0.00    +0.000 A 
ATOM     14  C   UNL     1       3.328   3.308  20.157  0.00  0.00    +0.000 A 
ATOM     15  C   UNL     1       4.509   3.638  19.290  0.00  0.00    +0.000 C 
ENDBRANCH   5   7
BRANCH   1  18
ATOM     16  C   UNL     1       7.146   4.725  13.263  0.00  0.00    +0.000 C 
ATOM     17  O   UNL     1       8.027   5.553  13.476  0.00  0.00    +0.000 OA
ATOM     18  N   UNL     1       6.177   4.415  14.183  0.00  0.00    +0.000 N 
ATOM     19  H   UNL     1       5.382   3.883  13.829  0.00  0.00    +0.000 HD
BRANCH  16  20
ATOM     20  C   UNL     1       7.013   4.009  11.927  0.00  0.00    +0.000 C 
BRANCH  20  21
ATOM     21  C   UNL     1       5.982   2.884  11.940  0.00  0.00    +0.000 C 
BRANCH  21  23
ATOM     22  C   UNL     1       3.943   3.353  10.821  0.00  0.00    +0.000 C 
ATOM     23  O   UNL     1       4.670   3.458  12.037  0.00  0.00    +0.000 OA
ENDBRANCH  21  23
ENDBRANCH  20  21
ENDBRANCH  16  20
ENDBRANCH   1  18
TORSDOF 5
ENDMDL
MODEL 2
REMARK VINA RESULT:      -6.6      5.144      6.948
REMARK  Name = 
REMARK  6 active torsions:
REMARK  status: ('A' for Active; 'I' for Inactive)
REMARK    1  A    between atoms: C_1  and  O_2
REMARK    2  A    between atoms: O_2  and  C_3
REMARK    3  A    between atoms: C_3  and  C_4
REMARK    4  A    between atoms: C_4  and  C_5
REMARK    5  A    between atoms: N_7  and  C_8
REMARK    6  A    between atoms: N_12  and  C_13
REMARK                            x       y       z     vdW  Elec       q    Type
REMARK                         _______ _______ _______ _____ _____    ______ ____
ROOT
ATOM      1  C   UNL     1       3.322   6.234  19.344  0.00  0.00    +0.000 C 
ATOM      2  C   UNL     1       3.198   6.854  17.955  0.00  0.00    +0.000 C 
ATOM      3  C   UNL     1       2.403   8.113  18.191  0.00  0.00    +0.000 C 
ATOM      4  O   UNL     1       2.251   8.985  17.354  0.00  0.00    +0.000 OA
ATOM      5  N   UNL     1       1.865   8.061  19.469  0.00  0.00    +0.000 N 
ATOM      6  C   UNL     1       2.093   6.768  20.074  0.00  0.00    +0.000 C 
ENDROOT
BRANCH   5   7
ATOM      7  C   UNL     1       0.878   8.983  20.028  0.00  0.00    +0.000 C 
ATOM      8  C   UNL     1       0.463   8.719  21.494  0.00  0.00    +0.000 C 
ATOM      9  C   UNL     1      -0.092  10.057  21.879  0.00  0.00    +0.000 A 
ATOM     10  C   UNL     1      -0.897  10.356  22.964  0.00  0.00    +0.000 A 
ATOM     11  C   UNL     1      -1.277  11.683  23.160  0.00  0.00    +0.000 A 
ATOM     12  C   UNL     1      -0.839  12.690  22.282  0.00  0.00    +0.000 A 
ATOM     13  C   UNL     1      -0.005  12.379  21.202  0.00  0.00    +0.000 A 
ATOM     14  C   UNL     1       0.358  11.057  21.008  0.00  0.00    +0.000 A 
ATOM     15  C   UNL     1       1.262  10.479  19.958  0.00  0.00    +0.000 C 
ENDBRANCH   5   7
BRANCH   1  18
ATOM     16  C   UNL     1       4.580   4.089  19.306  0.00  0.00    +0.000 C 
ATOM     17  O   UNL     1       5.674   4.632  19.425  0.00  0.00    +0.000 OA
ATOM     18  N   UNL     1       3.401   4.789  19.274  0.00  0.00    +0.000 N 
ATOM     19  H   UNL     1       2.583   4.266  18.959  0.00  0.00    +0.000 HD
BRANCH  16  20
ATOM     20  C   UNL     1       4.438   2.586  19.123  0.00  0.00    +0.000 C 
BRANCH  20  21
ATOM     21  C   UNL     1       3.149   2.178  18.415  0.00  0.00    +0.000 C 
BRANCH  21  23
ATOM     22  C   UNL     1       0.816   2.365  18.803  0.00  0.00    +0.000 C 
ATOM     23  O   UNL     1       2.090   2.112  19.381  0.00  0.00    +0.000 OA
ENDBRANCH  21  23
ENDBRANCH  20  21
ENDBRANCH  16  20
ENDBRANCH   1  18
TORSDOF 5
ENDMDL
MODEL 3
REMARK VINA RESULT:      -6.5      4.177      6.013
REMARK  Name = 
REMARK  6 active torsions:
REMARK  status: ('A' for Active; 'I' for Inactive)
REMARK    1  A    between atoms: C_1  and  O_2
REMARK    2  A    between atoms: O_2  and  C_3
REMARK    3  A    between atoms: C_3  and  C_4
REMARK    4  A    between atoms: C_4  and  C_5
REMARK    5  A    between atoms: N_7  and  C_8
REMARK    6  A    between atoms: N_12  and  C_13
REMARK                            x       y       z     vdW  Elec       q    Type
REMARK                         _______ _______ _______ _____ _____    ______ ____
ROOT
ATOM      1  C   UNL     1       7.410   7.326  17.299  0.00  0.00    +0.000 C 
ATOM      2  C   UNL     1       7.812   6.678  18.621  0.00  0.00    +0.000 C 
ATOM      3  C   UNL     1       6.705   5.691  18.890  0.00  0.00    +0.000 C 
ATOM      4  O   UNL     1       6.753   4.841  19.763  0.00  0.00    +0.000 OA
ATOM      5  N   UNL     1       5.654   5.960  18.025  0.00  0.00    +0.000 N 
ATOM      6  C   UNL     1       5.891   7.181  17.288  0.00  0.00    +0.000 C 
ENDROOT
BRANCH   5   7
ATOM      7  C   UNL     1       4.320   5.367  18.078  0.00  0.00    +0.000 C 
ATOM      8  C   UNL     1       4.226   3.878  17.669  0.00  0.00    +0.000 C 
ATOM      9  C   UNL     1       2.929   3.488  18.312  0.00  0.00    +0.000 A 
ATOM     10  C   UNL     1       2.159   2.369  18.045  0.00  0.00    +0.000 A 
ATOM     11  C   UNL     1       0.996   2.175  18.788  0.00  0.00    +0.000 A 
ATOM     12  C   UNL     1       0.625   3.089  19.790  0.00  0.00    +0.000 A 
ATOM     13  C   UNL     1       1.425   4.204  20.068  0.00  0.00    +0.000 A 
ATOM     14  C   UNL     1       2.572   4.394  19.317  0.00  0.00    +0.000 A 
ATOM     15  C   UNL     1       3.604   5.478  19.444  0.00  0.00    +0.000 C 
ENDBRANCH   5   7
BRANCH   1  18
ATOM     16  C   UNL     1       8.601   9.313  18.205  0.00  0.00    +0.000 C 
ATOM     17  O   UNL     1       8.923   8.749  19.247  0.00  0.00    +0.000 OA
ATOM     18  N   UNL     1       7.886   8.692  17.213  0.00  0.00    +0.000 N 
ATOM     19  H   UNL     1       7.493   9.305  16.498  0.00  0.00    +0.000 HD
BRANCH  16  20
ATOM     20  C   UNL     1       8.917  10.778  17.946  0.00  0.00    +0.000 C 
BRANCH  20  21
ATOM     21  C   UNL     1       9.721  11.435  19.063  0.00  0.00    +0.000 C 
BRANCH  21  23
ATOM     22  C   UNL     1      10.599  12.977  17.488  0.00  0.00    +0.000 C 
ATOM     23  O   UNL     1      10.902  12.026  18.500  0.00  0.00    +0.000 OA
ENDBRANCH  21  23
ENDBRANCH  20  21
ENDBRANCH  16  20
ENDBRANCH   1  18
TORSDOF 5
ENDMDL
MODEL 4
REMARK VINA RESULT:      -6.5      1.403      1.684
REMARK  Name = 
REMARK  6 active torsions:
REMARK  status: ('A' for Active; 'I' for Inactive)
REMARK    1  A    between atoms: C_1  and  O_2
REMARK    2  A    between atoms: O_2  and  C_3
REMARK    3  A    between atoms: C_3  and  C_4
REMARK    4  A    between atoms: C_4  and  C_5
REMARK    5  A    between atoms: N_7  and  C_8
REMARK    6  A    between atoms: N_12  and  C_13
REMARK                            x       y       z     vdW  Elec       q    Type
REMARK                         _______ _______ _______ _____ _____    ______ ____
ROOT
ATOM      1  C   UNL     1       6.982   4.369  15.530  0.00  0.00    +0.000 C 
ATOM      2  C   UNL     1       6.903   5.889  15.631  0.00  0.00    +0.000 C 
ATOM      3  C   UNL     1       6.037   6.126  16.842  0.00  0.00    +0.000 C 
ATOM      4  O   UNL     1       5.889   7.216  17.367  0.00  0.00    +0.000 OA
ATOM      5  N   UNL     1       5.435   4.927  17.196  0.00  0.00    +0.000 N 
ATOM      6  C   UNL     1       5.692   3.907  16.203  0.00  0.00    +0.000 C 
ENDROOT
BRANCH   5   7
ATOM      7  C   UNL     1       4.378   4.751  18.189  0.00  0.00    +0.000 C 
ATOM      8  C   UNL     1       2.987   4.364  17.633  0.00  0.00    +0.000 C 
ATOM      9  C   UNL     1       2.345   3.780  18.855  0.00  0.00    +0.000 A 
ATOM     10  C   UNL     1       0.997   3.543  19.068  0.00  0.00    +0.000 A 
ATOM     11  C   UNL     1       0.612   2.956  20.271  0.00  0.00    +0.000 A 
ATOM     12  C   UNL     1       1.572   2.604  21.236  0.00  0.00    +0.000 A 
ATOM     13  C   UNL     1       2.934   2.827  21.000  0.00  0.00    +0.000 A 
ATOM     14  C   UNL     1       3.306   3.421  19.807  0.00  0.00    +0.000 A 
ATOM     15  C   UNL     1       4.689   3.728  19.306  0.00  0.00    +0.000 C 
ENDBRANCH   5   7
BRANCH   1  18
ATOM     16  C   UNL     1       6.083   3.792  13.284  0.00  0.00    +0.000 C 
ATOM     17  O   UNL     1       4.922   4.046  13.591  0.00  0.00    +0.000 OA
ATOM     18  N   UNL     1       7.133   3.936  14.155  0.00  0.00    +0.000 N 
ATOM     19  H   UNL     1       8.010   3.499  13.871  0.00  0.00    +0.000 HD
BRANCH  16  20
ATOM     20  C   UNL     1       6.456   3.235  11.919  0.00  0.00    +0.000 C 
BRANCH  20  21
ATOM     21  C   UNL     1       5.626   2.023  11.507  0.00  0.00    +0.000 C 
BRANCH  21  23
ATOM     22  C   UNL     1       6.051  -0.301  11.289  0.00  0.00    +0.000 C 
ATOM     23  O   UNL     1       6.504   1.013  10.989  0.00  0.00    +0.000 OA
ENDBRANCH  21  23
ENDBRANCH  20  21
ENDBRANCH  16  20
ENDBRANCH   1  18
TORSDOF 5
ENDMDL
MODEL 5
REMARK VINA RESULT:      -6.4      2.498      7.813
REMARK  Name = 
REMARK  6 active torsions:
REMARK  status: ('A' for Active; 'I' for Inactive)
REMARK    1  A    between atoms: C_1  and  O_2
REMARK    2  A    between atoms: O_2  and  C_3
REMARK    3  A    between atoms: C_3  and  C_4
REMARK    4  A    between atoms: C_4  and  C_5
REMARK    5  A    between atoms: N_7  and  C_8
REMARK    6  A    between atoms: N_12  and  C_13
REMARK                            x       y       z     vdW  Elec       q    Type
REMARK                         _______ _______ _______ _____ _____    ______ ____
ROOT
ATOM      1  C   UNL     1       4.542   5.574  18.809  0.00  0.00    +0.000 C 
ATOM      2  C   UNL     1       5.827   5.158  19.521  0.00  0.00    +0.000 C 
ATOM      3  C   UNL     1       6.794   4.894  18.395  0.00  0.00    +0.000 C 
ATOM      4  O   UNL     1       7.989   4.718  18.556  0.00  0.00    +0.000 OA
ATOM      5  N   UNL     1       6.082   4.845  17.205  0.00  0.00    +0.000 N 
ATOM      6  C   UNL     1       4.658   4.887  17.451  0.00  0.00    +0.000 C 
ENDROOT
BRANCH   5   7
ATOM      7  C   UNL     1       6.602   4.426  15.905  0.00  0.00    +0.000 C 
ATOM      8  C   UNL     1       5.604   3.684  14.986  0.00  0.00    +0.000 C 
ATOM      9  C   UNL     1       6.251   3.876  13.648  0.00  0.00    +0.000 A 
ATOM     10  C   UNL     1       5.994   3.180  12.479  0.00  0.00    +0.000 A 
ATOM     11  C   UNL     1       6.690   3.543  11.327  0.00  0.00    +0.000 A 
ATOM     12  C   UNL     1       7.618   4.599  11.354  0.00  0.00    +0.000 A 
ATOM     13  C   UNL     1       7.852   5.311  12.536  0.00  0.00    +0.000 A 
ATOM     14  C   UNL     1       7.165   4.936  13.678  0.00  0.00    +0.000 A 
ATOM     15  C   UNL     1       7.211   5.558  15.044  0.00  0.00    +0.000 C 
ENDBRANCH   5   7
BRANCH   1  18
ATOM     16  C   UNL     1       2.400   6.095  19.961  0.00  0.00    +0.000 C 
ATOM     17  O   UNL     1       2.435   7.286  19.667  0.00  0.00    +0.000 OA
ATOM     18  N   UNL     1       3.369   5.203  19.574  0.00  0.00    +0.000 N 
ATOM     19  H   UNL     1       3.355   4.299  20.047  0.00  0.00    +0.000 HD
BRANCH  16  20
ATOM     20  C   UNL     1       1.305   5.508  20.839  0.00  0.00    +0.000 C 
BRANCH  20  21
ATOM     21  C   UNL     1       1.259   3.983  20.818  0.00  0.00    +0.000 C 
BRANCH  21  23
ATOM     22  C   UNL     1       2.873   2.400  21.537  0.00  0.00    +0.000 C 
ATOM     23  O   UNL     1       2.033   3.481  21.918  0.00  0.00    +0.000 OA
ENDBRANCH  21  23
ENDBRANCH  20  21
ENDBRANCH  16  20
ENDBRANCH   1  18
TORSDOF 5
ENDMDL
MODEL 6
REMARK VINA RESULT:      -6.4      5.781      7.506
REMARK  Name = 
REMARK  6 active torsions:
REMARK  status: ('A' for Active; 'I' for Inactive)
REMARK    1  A    between atoms: C_1  and  O_2
REMARK    2  A    between atoms: O_2  and  C_3
REMARK    3  A    between atoms: C_3  and  C_4
REMARK    4  A    between atoms: C_4  and  C_5
REMARK    5  A    between atoms: N_7  and  C_8
REMARK    6  A    between atoms: N_12  and  C_13
REMARK                            x       y       z     vdW  Elec       q    Type
REMARK                         _______ _______ _______ _____ _____    ______ ____
ROOT
ATOM      1  C   UNL     1       2.701   7.108  19.305  0.00  0.00    +0.000 C 
ATOM      2  C   UNL     1       2.620   7.770  17.932  0.00  0.00    +0.000 C 
ATOM      3  C   UNL     1       1.942   9.088  18.207  0.00  0.00    +0.000 C 
ATOM      4  O   UNL     1       1.860   9.991  17.391  0.00  0.00    +0.000 OA
ATOM      5  N   UNL     1       1.414   9.054  19.489  0.00  0.00    +0.000 N 
ATOM      6  C   UNL     1       1.531   7.731  20.062  0.00  0.00    +0.000 C 
ENDROOT
BRANCH   5   7
ATOM      7  C   UNL     1       0.519  10.046  20.081  0.00  0.00    +0.000 C 
ATOM      8  C   UNL     1      -0.150   9.640  21.416  0.00  0.00    +0.000 C 
ATOM      9  C   UNL     1      -0.529  10.983  21.964  0.00  0.00    +0.000 A 
ATOM     10  C   UNL     1      -1.429  11.256  22.980  0.00  0.00    +0.000 A 
ATOM     11  C   UNL     1      -1.611  12.583  23.362  0.00  0.00    +0.000 A 
ATOM     12  C   UNL     1      -0.887  13.614  22.738  0.00  0.00    +0.000 A 
ATOM     13  C   UNL     1       0.038  13.324  21.728  0.00  0.00    +0.000 A 
ATOM     14  C   UNL     1       0.203  12.004  21.347  0.00  0.00    +0.000 A 
ATOM     15  C   UNL     1       1.149  11.437  20.327  0.00  0.00    +0.000 C 
ENDBRANCH   5   7
BRANCH   1  18
ATOM     16  C   UNL     1       3.747   4.852  19.344  0.00  0.00    +0.000 C 
ATOM     17  O   UNL     1       4.867   5.284  19.601  0.00  0.00    +0.000 OA
ATOM     18  N   UNL     1       2.650   5.664  19.200  0.00  0.00    +0.000 N 
ATOM     19  H   UNL     1       1.828   5.230  18.781  0.00  0.00    +0.000 HD
BRANCH  16  20
ATOM     20  C   UNL     1       3.484   3.373  19.100  0.00  0.00    +0.000 C 
BRANCH  20  21
ATOM     21  C   UNL     1       2.931   3.073  17.710  0.00  0.00    +0.000 C 
BRANCH  21  23
ATOM     22  C   UNL     1       0.914   2.440  18.787  0.00  0.00    +0.000 C 
ATOM     23  O   UNL     1       1.502   3.203  17.742  0.00  0.00    +0.000 OA
ENDBRANCH  21  23
ENDBRANCH  20  21
ENDBRANCH  16  20
ENDBRANCH   1  18
TORSDOF 5
ENDMDL
MODEL 7
REMARK VINA RESULT:      -6.4      5.479      7.636
REMARK  Name = 
REMARK  6 active torsions:
REMARK  status: ('A' for Active; 'I' for Inactive)
REMARK    1  A    between atoms: C_1  and  O_2
REMARK    2  A    between atoms: O_2  and  C_3
REMARK    3  A    between atoms: C_3  and  C_4
REMARK    4  A    between atoms: C_4  and  C_5
REMARK    5  A    between atoms: N_7  and  C_8
REMARK    6  A    between atoms: N_12  and  C_13
REMARK                            x       y       z     vdW  Elec       q    Type
REMARK                         _______ _______ _______ _____ _____    ______ ____
ROOT
ATOM      1  C   UNL     1       2.705   6.480  19.452  0.00  0.00    +0.000 C 
ATOM      2  C   UNL     1       2.534   7.054  18.049  0.00  0.00    +0.000 C 
ATOM      3  C   UNL     1       2.074   8.469  18.291  0.00  0.00    +0.000 C 
ATOM      4  O   UNL     1       2.005   9.318  17.419  0.00  0.00    +0.000 OA
ATOM      5  N   UNL     1       1.714   8.593  19.625  0.00  0.00    +0.000 N 
ATOM      6  C   UNL     1       1.732   7.308  20.288  0.00  0.00    +0.000 C 
ENDROOT
BRANCH   5   7
ATOM      7  C   UNL     1       1.039   9.737  20.234  0.00  0.00    +0.000 C 
ATOM      8  C   UNL     1      -0.178  10.294  19.458  0.00  0.00    +0.000 C 
ATOM      9  C   UNL     1      -0.894  11.037  20.546  0.00  0.00    +0.000 A 
ATOM     10  C   UNL     1      -1.882  11.995  20.403  0.00  0.00    +0.000 A 
ATOM     11  C   UNL     1      -2.445  12.541  21.555  0.00  0.00    +0.000 A 
ATOM     12  C   UNL     1      -2.024  12.117  22.827  0.00  0.00    +0.000 A 
ATOM     13  C   UNL     1      -1.041  11.129  22.960  0.00  0.00    +0.000 A 
ATOM     14  C   UNL     1      -0.480  10.601  21.810  0.00  0.00    +0.000 A 
ATOM     15  C   UNL     1       0.552   9.517  21.686  0.00  0.00    +0.000 C 
ENDBRANCH   5   7
BRANCH   1  18
ATOM     16  C   UNL     1       3.448   4.107  19.512  0.00  0.00    +0.000 C 
ATOM     17  O   UNL     1       4.640   4.394  19.556  0.00  0.00    +0.000 OA
ATOM     18  N   UNL     1       2.454   5.053  19.475  0.00  0.00    +0.000 N 
ATOM     19  H   UNL     1       1.526   4.712  19.226  0.00  0.00    +0.000 HD
BRANCH  16  20
ATOM     20  C   UNL     1       2.963   2.667  19.434  0.00  0.00    +0.000 C 
BRANCH  20  21
ATOM     21  C   UNL     1       1.446   2.540  19.331  0.00  0.00    +0.000 C 
BRANCH  21  23
ATOM     22  C   UNL     1       1.597   2.446  21.696  0.00  0.00    +0.000 C 
ATOM     23  O   UNL     1       0.861   2.931  20.582  0.00  0.00    +0.000 OA
ENDBRANCH  21  23
ENDBRANCH  20  21
ENDBRANCH  16  20
ENDBRANCH   1  18
TORSDOF 5
ENDMDL
MODEL 8
REMARK VINA RESULT:      -6.4      4.423      5.872
REMARK  Name = 
REMARK  6 active torsions:
REMARK  status: ('A' for Active; 'I' for Inactive)
REMARK    1  A    between atoms: C_1  and  O_2
REMARK    2  A    between atoms: O_2  and  C_3
REMARK    3  A    between atoms: C_3  and  C_4
REMARK    4  A    between atoms: C_4  and  C_5
REMARK    5  A    between atoms: N_7  and  C_8
REMARK    6  A    between atoms: N_12  and  C_13
REMARK                            x       y       z     vdW  Elec       q    Type
REMARK                         _______ _______ _______ _____ _____    ______ ____
ROOT
ATOM      1  C   UNL     1       3.121   5.683  17.778  0.00  0.00    +0.000 C 
ATOM      2  C   UNL     1       3.106   4.795  19.019  0.00  0.00    +0.000 C 
ATOM      3  C   UNL     1       2.383   5.625  20.048  0.00  0.00    +0.000 C 
ATOM      4  O   UNL     1       2.003   5.191  21.123  0.00  0.00    +0.000 OA
ATOM      5  N   UNL     1       2.284   6.926  19.577  0.00  0.00    +0.000 N 
ATOM      6  C   UNL     1       3.045   7.093  18.358  0.00  0.00    +0.000 C 
ENDROOT
BRANCH   5   7
ATOM      7  C   UNL     1       1.828   8.087  20.336  0.00  0.00    +0.000 C 
ATOM      8  C   UNL     1       1.122   9.194  19.518  0.00  0.00    +0.000 C 
ATOM      9  C   UNL     1       0.367   9.909  20.598  0.00  0.00    +0.000 A 
ATOM     10  C   UNL     1      -0.202  11.169  20.537  0.00  0.00    +0.000 A 
ATOM     11  C   UNL     1      -0.895  11.636  21.652  0.00  0.00    +0.000 A 
ATOM     12  C   UNL     1      -1.021  10.839  22.803  0.00  0.00    +0.000 A 
ATOM     13  C   UNL     1      -0.462   9.556  22.845  0.00  0.00    +0.000 A 
ATOM     14  C   UNL     1       0.235   9.105  21.737  0.00  0.00    +0.000 A 
ATOM     15  C   UNL     1       0.887   7.770  21.522  0.00  0.00    +0.000 C 
ENDBRANCH   5   7
BRANCH   1  18
ATOM     16  C   UNL     1       4.698   4.176  16.584  0.00  0.00    +0.000 C 
ATOM     17  O   UNL     1       4.088   3.157  16.891  0.00  0.00    +0.000 OA
ATOM     18  N   UNL     1       4.289   5.431  16.959  0.00  0.00    +0.000 N 
ATOM     19  H   UNL     1       4.974   6.177  16.836  0.00  0.00    +0.000 HD
BRANCH  16  20
ATOM     20  C   UNL     1       6.004   4.135  15.804  0.00  0.00    +0.000 C 
BRANCH  20  21
ATOM     21  C   UNL     1       7.196   4.680  16.585  0.00  0.00    +0.000 C 
BRANCH  21  23
ATOM     22  C   UNL     1       7.426   6.888  17.422  0.00  0.00    +0.000 C 
ATOM     23  O   UNL     1       7.367   6.068  16.263  0.00  0.00    +0.000 OA
ENDBRANCH  21  23
ENDBRANCH  20  21
ENDBRANCH  16  20
ENDBRANCH   1  18
TORSDOF 5
ENDMDL
MODEL 9
REMARK VINA RESULT:      -6.4      5.793      7.918
REMARK  Name = 
REMARK  6 active torsions:
REMARK  status: ('A' for Active; 'I' for Inactive)
REMARK    1  A    between atoms: C_1  and  O_2
REMARK    2  A    between atoms: O_2  and  C_3
REMARK    3  A    between atoms: C_3  and  C_4
REMARK    4  A    between atoms: C_4  and  C_5
REMARK    5  A    between atoms: N_7  and  C_8
REMARK    6  A    between atoms: N_12  and  C_13
REMARK                            x       y       z     vdW  Elec       q    Type
REMARK                         _______ _______ _______ _____ _____    ______ ____
ROOT
ATOM      1  C   UNL     1       2.720   6.996  19.508  0.00  0.00    +0.000 C 
ATOM      2  C   UNL     1       2.583   7.559  18.096  0.00  0.00    +0.000 C 
ATOM      3  C   UNL     1       1.889   8.882  18.301  0.00  0.00    +0.000 C 
ATOM      4  O   UNL     1       1.764   9.724  17.428  0.00  0.00    +0.000 OA
ATOM      5  N   UNL     1       1.403   8.929  19.599  0.00  0.00    +0.000 N 
ATOM      6  C   UNL     1       1.564   7.652  20.258  0.00  0.00    +0.000 C 
ENDROOT
BRANCH   5   7
ATOM      7  C   UNL     1       0.509   9.945  20.150  0.00  0.00    +0.000 C 
ATOM      8  C   UNL     1      -0.155   9.598  21.504  0.00  0.00    +0.000 C 
ATOM      9  C   UNL     1      -0.534  10.962  21.994  0.00  0.00    +0.000 A 
ATOM     10  C   UNL     1      -1.430  11.279  23.000  0.00  0.00    +0.000 A 
ATOM     11  C   UNL     1      -1.613  12.621  23.325  0.00  0.00    +0.000 A 
ATOM     12  C   UNL     1      -0.893  13.625  22.653  0.00  0.00    +0.000 A 
ATOM     13  C   UNL     1       0.029  13.292  21.653  0.00  0.00    +0.000 A 
ATOM     14  C   UNL     1       0.195  11.956  21.330  0.00  0.00    +0.000 A 
ATOM     15  C   UNL     1       1.138  11.346  20.333  0.00  0.00    +0.000 C 
ENDBRANCH   5   7
BRANCH   1  18
ATOM     16  C   UNL     1       3.820   4.766  19.460  0.00  0.00    +0.000 C 
ATOM     17  O   UNL     1       4.955   5.233  19.443  0.00  0.00    +0.000 OA
ATOM     18  N   UNL     1       2.693   5.548  19.506  0.00  0.00    +0.000 N 
ATOM     19  H   UNL     1       1.814   5.072  19.300  0.00  0.00    +0.000 HD
BRANCH  16  20
ATOM     20  C   UNL     1       3.558   3.270  19.370  0.00  0.00    +0.000 C 
BRANCH  20  21
ATOM     21  C   UNL     1       3.573   2.566  20.723  0.00  0.00    +0.000 C 
BRANCH  21  23
ATOM     22  C   UNL     1       1.279   2.753  21.295  0.00  0.00    +0.000 C 
ATOM     23  O   UNL     1       2.602   3.185  21.580  0.00  0.00    +0.000 OA
ENDBRANCH  21  23
ENDBRANCH  20  21
ENDBRANCH  16  20
ENDBRANCH   1  18
TORSDOF 5
ENDMDL
