MODEL 1
REMARK VINA RESULT:      -7.2      0.000      0.000
REMARK  Name = 
REMARK  5 active torsions:
REMARK  status: ('A' for Active; 'I' for Inactive)
REMARK    1  A    between atoms: C_1  and  O_2
REMARK    2  A    between atoms: O_2  and  C_3
REMARK    3  A    between atoms: C_7  and  N_8
REMARK    4  A    between atoms: N_11  and  C_12
REMARK    5  A    between atoms: C_12  and  C_13
REMARK                            x       y       z     vdW  Elec       q    Type
REMARK                         _______ _______ _______ _____ _____    ______ ____
ROOT
ATOM      1  N   UNL     1       6.358   3.913  16.205  0.00  0.00    +0.000 N 
ATOM      2  C   UNL     1       5.482   4.652  16.966  0.00  0.00    +0.000 C 
ATOM      3  O   UNL     1       4.747   5.540  16.546  0.00  0.00    +0.000 OA
ATOM      4  N   UNL     1       5.451   4.271  18.290  0.00  0.00    +0.000 N 
ATOM      5  H   UNL     1       6.756   3.096  16.636  0.00  0.00    +0.000 HD
ATOM      6  H   UNL     1       6.311   3.933  18.685  0.00  0.00    +0.000 HD
ENDROOT
BRANCH   1  11
ATOM      7  C   UNL     1       5.986   3.436  12.535  0.00  0.00    +0.000 A 
ATOM      8  C   UNL     1       6.919   4.346  12.038  0.00  0.00    +0.000 A 
ATOM      9  C   UNL     1       7.667   5.126  12.913  0.00  0.00    +0.000 A 
ATOM     10  C   UNL     1       7.481   4.997  14.288  0.00  0.00    +0.000 A 
ATOM     11  C   UNL     1       6.559   4.086  14.812  0.00  0.00    +0.000 A 
ATOM     12  C   UNL     1       5.812   3.303  13.921  0.00  0.00    +0.000 A 
BRANCH   7  14
ATOM     13  C   UNL     1       4.031   3.214  11.206  0.00  0.00    +0.000 C 
ATOM     14  O   UNL     1       5.315   2.722  11.577  0.00  0.00    +0.000 OA
ENDBRANCH   7  14
ENDBRANCH   1  11
BRANCH   4  15
ATOM     15  C   UNL     1       4.582   5.030  19.174  0.00  0.00    +0.000 C 
BRANCH  15  16
ATOM     16  C   UNL     1       3.338   4.287  19.559  0.00  0.00    +0.000 A 
ATOM     17  C   UNL     1       3.188   2.931  19.231  0.00  0.00    +0.000 A 
ATOM     18  C   UNL     1       1.991   2.264  19.502  0.00  0.00    +0.000 A 
ATOM     19  C   UNL     1       0.931   2.944  20.102  0.00  0.00    +0.000 A 
ATOM     20  C   UNL     1       1.066   4.293  20.423  0.00  0.00    +0.000 A 
ATOM     21  C   UNL     1       2.259   4.953  20.145  0.00  0.00    +0.000 A 
ATOM     22  F   UNL     1       2.353   6.259  20.431  0.00  0.00    +0.000 F 
ENDBRANCH  15  16
ENDBRANCH   4  15
TORSDOF 4
ENDMDL
MODEL 2
REMARK VINA RESULT:      -7.1      6.211      7.863
REMARK  Name = 
REMARK  5 active torsions:
REMARK  status: ('A' for Active; 'I' for Inactive)
REMARK    1  A    between atoms: C_1  and  O_2
REMARK    2  A    between atoms: O_2  and  C_3
REMARK    3  A    between atoms: C_7  and  N_8
REMARK    4  A    between atoms: N_11  and  C_12
REMARK    5  A    between atoms: C_12  and  C_13
REMARK                            x       y       z     vdW  Elec       q    Type
REMARK                         _______ _______ _______ _____ _____    ______ ____
ROOT
ATOM      1  N   UNL     1       8.350   9.827  17.761  0.00  0.00    +0.000 N 
ATOM      2  C   UNL     1       8.125   8.482  17.940  0.00  0.00    +0.000 C 
ATOM      3  O   UNL     1       8.642   7.781  18.803  0.00  0.00    +0.000 OA
ATOM      4  N   UNL     1       7.193   7.963  17.067  0.00  0.00    +0.000 N 
ATOM      5  H   UNL     1       7.723  10.315  17.144  0.00  0.00    +0.000 HD
ATOM      6  H   UNL     1       7.155   8.370  16.149  0.00  0.00    +0.000 HD
ENDROOT
BRANCH   1  11
ATOM      7  C   UNL     1      11.099  12.178  18.630  0.00  0.00    +0.000 A 
ATOM      8  C   UNL     1      11.061  12.151  20.023  0.00  0.00    +0.000 A 
ATOM      9  C   UNL     1      10.123  11.363  20.681  0.00  0.00    +0.000 A 
ATOM     10  C   UNL     1       9.218  10.602  19.943  0.00  0.00    +0.000 A 
ATOM     11  C   UNL     1       9.240  10.605  18.545  0.00  0.00    +0.000 A 
ATOM     12  C   UNL     1      10.193  11.400  17.893  0.00  0.00    +0.000 A 
BRANCH   7  14
ATOM     13  C   UNL     1      12.025  13.184  16.689  0.00  0.00    +0.000 C 
ATOM     14  O   UNL     1      12.069  12.987  18.098  0.00  0.00    +0.000 OA
ENDBRANCH   7  14
ENDBRANCH   1  11
BRANCH   4  15
ATOM     15  C   UNL     1       6.927   6.537  17.158  0.00  0.00    +0.000 C 
BRANCH  15  16
ATOM     16  C   UNL     1       5.591   6.224  17.763  0.00  0.00    +0.000 A 
ATOM     17  C   UNL     1       4.413   6.717  17.181  0.00  0.00    +0.000 A 
ATOM     18  C   UNL     1       3.177   6.508  17.796  0.00  0.00    +0.000 A 
ATOM     19  C   UNL     1       3.103   5.805  18.999  0.00  0.00    +0.000 A 
ATOM     20  C   UNL     1       4.268   5.318  19.590  0.00  0.00    +0.000 A 
ATOM     21  C   UNL     1       5.497   5.536  18.975  0.00  0.00    +0.000 A 
ATOM     22  F   UNL     1       6.607   5.089  19.580  0.00  0.00    +0.000 F 
ENDBRANCH  15  16
ENDBRANCH   4  15
TORSDOF 4
ENDMDL
MODEL 3
REMARK VINA RESULT:      -7.1      5.854      7.853
REMARK  Name = 
REMARK  5 active torsions:
REMARK  status: ('A' for Active; 'I' for Inactive)
REMARK    1  A    between atoms: C_1  and  O_2
REMARK    2  A    between atoms: O_2  and  C_3
REMARK    3  A    between atoms: C_7  and  N_8
REMARK    4  A    between atoms: N_11  and  C_12
REMARK    5  A    between atoms: C_12  and  C_13
REMARK                            x       y       z     vdW  Elec       q    Type
REMARK                         _______ _______ _______ _____ _____    ______ ____
ROOT
ATOM      1  N   UNL     1       6.926   7.533  16.881  0.00  0.00    +0.000 N 
ATOM      2  C   UNL     1       7.778   7.792  17.930  0.00  0.00    +0.000 C 
ATOM      3  O   UNL     1       8.144   6.975  18.769  0.00  0.00    +0.000 OA
ATOM      4  N   UNL     1       8.253   9.085  17.942  0.00  0.00    +0.000 N 
ATOM      5  H   UNL     1       6.860   8.236  16.165  0.00  0.00    +0.000 HD
ATOM      6  H   UNL     1       7.636   9.799  17.598  0.00  0.00    +0.000 HD
ENDROOT
BRANCH   1  11
ATOM      7  C   UNL     1       4.459   4.752  17.010  0.00  0.00    +0.000 A 
ATOM      8  C   UNL     1       5.072   3.796  16.199  0.00  0.00    +0.000 A 
ATOM      9  C   UNL     1       6.297   4.070  15.601  0.00  0.00    +0.000 A 
ATOM     10  C   UNL     1       6.910   5.304  15.812  0.00  0.00    +0.000 A 
ATOM     11  C   UNL     1       6.321   6.276  16.627  0.00  0.00    +0.000 A 
ATOM     12  C   UNL     1       5.088   5.987  17.227  0.00  0.00    +0.000 A 
BRANCH   7  14
ATOM     13  C   UNL     1       2.429   5.403  18.054  0.00  0.00    +0.000 C 
ATOM     14  O   UNL     1       3.259   4.365  17.546  0.00  0.00    +0.000 OA
ENDBRANCH   7  14
ENDBRANCH   1  11
BRANCH   4  15
ATOM     15  C   UNL     1       9.127   9.456  19.043  0.00  0.00    +0.000 C 
BRANCH  15  16
ATOM     16  C   UNL     1       9.590  10.881  18.975  0.00  0.00    +0.000 A 
ATOM     17  C   UNL     1       9.941  11.457  17.745  0.00  0.00    +0.000 A 
ATOM     18  C   UNL     1      10.464  12.752  17.692  0.00  0.00    +0.000 A 
ATOM     19  C   UNL     1      10.643  13.483  18.866  0.00  0.00    +0.000 A 
ATOM     20  C   UNL     1      10.305  12.917  20.095  0.00  0.00    +0.000 A 
ATOM     21  C   UNL     1       9.790  11.625  20.140  0.00  0.00    +0.000 A 
ATOM     22  F   UNL     1       9.506  11.088  21.335  0.00  0.00    +0.000 F 
ENDBRANCH  15  16
ENDBRANCH   4  15
TORSDOF 4
ENDMDL
MODEL 4
REMARK VINA RESULT:      -7.1      1.081      1.456
REMARK  Name = 
REMARK  5 active torsions:
REMARK  status: ('A' for Active; 'I' for Inactive)
REMARK    1  A    between atoms: C_1  and  O_2
REMARK    2  A    between atoms: O_2  and  C_3
REMARK    3  A    between atoms: C_7  and  N_8
REMARK    4  A    between atoms: N_11  and  C_12
REMARK    5  A    between atoms: C_12  and  C_13
REMARK                            x       y       z     vdW  Elec       q    Type
REMARK                         _______ _______ _______ _____ _____    ______ ____
ROOT
ATOM      1  N   UNL     1       6.321   4.003  16.299  0.00  0.00    +0.000 N 
ATOM      2  C   UNL     1       5.460   4.779  17.040  0.00  0.00    +0.000 C 
ATOM      3  O   UNL     1       4.757   5.683  16.600  0.00  0.00    +0.000 OA
ATOM      4  N   UNL     1       5.404   4.418  18.369  0.00  0.00    +0.000 N 
ATOM      5  H   UNL     1       6.689   3.180  16.746  0.00  0.00    +0.000 HD
ATOM      6  H   UNL     1       6.249   4.060  18.778  0.00  0.00    +0.000 HD
ENDROOT
BRANCH   1  11
ATOM      7  C   UNL     1       6.002   3.455  12.634  0.00  0.00    +0.000 A 
ATOM      8  C   UNL     1       6.941   4.358  12.133  0.00  0.00    +0.000 A 
ATOM      9  C   UNL     1       7.676   5.155  13.004  0.00  0.00    +0.000 A 
ATOM     10  C   UNL     1       7.470   5.052  14.378  0.00  0.00    +0.000 A 
ATOM     11  C   UNL     1       6.541   4.150  14.906  0.00  0.00    +0.000 A 
ATOM     12  C   UNL     1       5.809   3.349  14.020  0.00  0.00    +0.000 A 
BRANCH   7  14
ATOM     13  C   UNL     1       4.080   3.222  11.261  0.00  0.00    +0.000 C 
ATOM     14  O   UNL     1       5.345   2.724  11.680  0.00  0.00    +0.000 OA
ENDBRANCH   7  14
ENDBRANCH   1  11
BRANCH   4  15
ATOM     15  C   UNL     1       4.549   5.216  19.233  0.00  0.00    +0.000 C 
BRANCH  15  16
ATOM     16  C   UNL     1       3.354   4.464  19.738  0.00  0.00    +0.000 A 
ATOM     17  C   UNL     1       2.099   5.086  19.806  0.00  0.00    +0.000 A 
ATOM     18  C   UNL     1       1.006   4.420  20.366  0.00  0.00    +0.000 A 
ATOM     19  C   UNL     1       1.156   3.126  20.865  0.00  0.00    +0.000 A 
ATOM     20  C   UNL     1       2.401   2.502  20.810  0.00  0.00    +0.000 A 
ATOM     21  C   UNL     1       3.486   3.174  20.257  0.00  0.00    +0.000 A 
ATOM     22  F   UNL     1       4.681   2.566  20.247  0.00  0.00    +0.000 F 
ENDBRANCH  15  16
ENDBRANCH   4  15
TORSDOF 4
ENDMDL
MODEL 5
REMARK VINA RESULT:      -7.1      5.815      7.977
REMARK  Name = 
REMARK  5 active torsions:
REMARK  status: ('A' for Active; 'I' for Inactive)
REMARK    1  A    between atoms: C_1  and  O_2
REMARK    2  A    between atoms: O_2  and  C_3
REMARK    3  A    between atoms: C_7  and  N_8
REMARK    4  A    between atoms: N_11  and  C_12
REMARK    5  A    between atoms: C_12  and  C_13
REMARK                            x       y       z     vdW  Elec       q    Type
REMARK                         _______ _______ _______ _____ _____    ______ ____
ROOT
ATOM      1  N   UNL     1       7.783   6.743  18.118  0.00  0.00    +0.000 N 
ATOM      2  C   UNL     1       7.687   8.073  17.778  0.00  0.00    +0.000 C 
ATOM      3  O   UNL     1       6.863   8.553  17.005  0.00  0.00    +0.000 OA
ATOM      4  N   UNL     1       8.594   8.873  18.437  0.00  0.00    +0.000 N 
ATOM      5  H   UNL     1       8.373   6.516  18.900  0.00  0.00    +0.000 HD
ATOM      6  H   UNL     1       9.486   8.465  18.653  0.00  0.00    +0.000 HD
ENDROOT
BRANCH   1  11
ATOM      7  C   UNL     1       5.058   4.217  17.935  0.00  0.00    +0.000 A 
ATOM      8  C   UNL     1       5.272   3.667  16.671  0.00  0.00    +0.000 A 
ATOM      9  C   UNL     1       6.310   4.133  15.873  0.00  0.00    +0.000 A 
ATOM     10  C   UNL     1       7.137   5.155  16.338  0.00  0.00    +0.000 A 
ATOM     11  C   UNL     1       6.949   5.718  17.604  0.00  0.00    +0.000 A 
ATOM     12  C   UNL     1       5.901   5.238  18.401  0.00  0.00    +0.000 A 
BRANCH   7  14
ATOM     13  C   UNL     1       3.593   2.372  18.228  0.00  0.00    +0.000 C 
ATOM     14  O   UNL     1       4.009   3.674  18.628  0.00  0.00    +0.000 OA
ENDBRANCH   7  14
ENDBRANCH   1  11
BRANCH   4  15
ATOM     15  C   UNL     1       8.590  10.288  18.102  0.00  0.00    +0.000 C 
BRANCH  15  16
ATOM     16  C   UNL     1       9.762  11.032  18.669  0.00  0.00    +0.000 A 
ATOM     17  C   UNL     1      10.834  11.406  17.844  0.00  0.00    +0.000 A 
ATOM     18  C   UNL     1      11.969  12.012  18.388  0.00  0.00    +0.000 A 
ATOM     19  C   UNL     1      12.047  12.249  19.760  0.00  0.00    +0.000 A 
ATOM     20  C   UNL     1      10.992  11.874  20.590  0.00  0.00    +0.000 A 
ATOM     21  C   UNL     1       9.866  11.265  20.042  0.00  0.00    +0.000 A 
ATOM     22  F   UNL     1       8.879  10.881  20.864  0.00  0.00    +0.000 F 
ENDBRANCH  15  16
ENDBRANCH   4  15
TORSDOF 4
ENDMDL
MODEL 6
REMARK VINA RESULT:      -7.1      1.162      1.276
REMARK  Name = 
REMARK  5 active torsions:
REMARK  status: ('A' for Active; 'I' for Inactive)
REMARK    1  A    between atoms: C_1  and  O_2
REMARK    2  A    between atoms: O_2  and  C_3
REMARK    3  A    between atoms: C_7  and  N_8
REMARK    4  A    between atoms: N_11  and  C_12
REMARK    5  A    between atoms: C_12  and  C_13
REMARK                            x       y       z     vdW  Elec       q    Type
REMARK                         _______ _______ _______ _____ _____    ______ ____
ROOT
ATOM      1  N   UNL     1       6.117   4.081  16.393  0.00  0.00    +0.000 N 
ATOM      2  C   UNL     1       5.214   4.875  17.060  0.00  0.00    +0.000 C 
ATOM      3  O   UNL     1       4.548   5.775  16.558  0.00  0.00    +0.000 OA
ATOM      4  N   UNL     1       5.066   4.538  18.388  0.00  0.00    +0.000 N 
ATOM      5  H   UNL     1       6.449   3.264  16.877  0.00  0.00    +0.000 HD
ATOM      6  H   UNL     1       5.879   4.183  18.859  0.00  0.00    +0.000 HD
ENDROOT
BRANCH   1  11
ATOM      7  C   UNL     1       5.984   3.529  12.716  0.00  0.00    +0.000 A 
ATOM      8  C   UNL     1       7.012   4.360  12.271  0.00  0.00    +0.000 A 
ATOM      9  C   UNL     1       7.747   5.111  13.182  0.00  0.00    +0.000 A 
ATOM     10  C   UNL     1       7.452   5.033  14.542  0.00  0.00    +0.000 A 
ATOM     11  C   UNL     1       6.431   4.202  15.015  0.00  0.00    +0.000 A 
ATOM     12  C   UNL     1       5.700   3.447  14.088  0.00  0.00    +0.000 A 
BRANCH   7  14
ATOM     13  C   UNL     1       5.914   1.595  11.341  0.00  0.00    +0.000 C 
ATOM     14  O   UNL     1       5.337   2.838  11.727  0.00  0.00    +0.000 OA
ENDBRANCH   7  14
ENDBRANCH   1  11
BRANCH   4  15
ATOM     15  C   UNL     1       4.161   5.356  19.179  0.00  0.00    +0.000 C 
BRANCH  15  16
ATOM     16  C   UNL     1       3.000   4.585  19.733  0.00  0.00    +0.000 A 
ATOM     17  C   UNL     1       3.029   4.103  21.050  0.00  0.00    +0.000 A 
ATOM     18  C   UNL     1       1.993   3.303  21.536  0.00  0.00    +0.000 A 
ATOM     19  C   UNL     1       0.917   2.974  20.711  0.00  0.00    +0.000 A 
ATOM     20  C   UNL     1       0.882   3.440  19.398  0.00  0.00    +0.000 A 
ATOM     21  C   UNL     1       1.921   4.232  18.919  0.00  0.00    +0.000 A 
ATOM     22  F   UNL     1       1.883   4.639  17.642  0.00  0.00    +0.000 F 
ENDBRANCH  15  16
ENDBRANCH   4  15
TORSDOF 4
ENDMDL
MODEL 7
REMARK VINA RESULT:      -7.0      6.131      8.109
REMARK  Name = 
REMARK  5 active torsions:
REMARK  status: ('A' for Active; 'I' for Inactive)
REMARK    1  A    between atoms: C_1  and  O_2
REMARK    2  A    between atoms: O_2  and  C_3
REMARK    3  A    between atoms: C_7  and  N_8
REMARK    4  A    between atoms: N_11  and  C_12
REMARK    5  A    between atoms: C_12  and  C_13
REMARK                            x       y       z     vdW  Elec       q    Type
REMARK                         _______ _______ _______ _____ _____    ______ ____
ROOT
ATOM      1  N   UNL     1       6.776   7.739  16.903  0.00  0.00    +0.000 N 
ATOM      2  C   UNL     1       7.735   8.074  17.831  0.00  0.00    +0.000 C 
ATOM      3  O   UNL     1       8.248   7.303  18.635  0.00  0.00    +0.000 OA
ATOM      4  N   UNL     1       8.134   9.390  17.754  0.00  0.00    +0.000 N 
ATOM      5  H   UNL     1       6.582   8.416  16.185  0.00  0.00    +0.000 HD
ATOM      6  H   UNL     1       7.439  10.060  17.474  0.00  0.00    +0.000 HD
ENDROOT
BRANCH   1  11
ATOM      7  C   UNL     1       4.357   4.925  17.171  0.00  0.00    +0.000 A 
ATOM      8  C   UNL     1       5.051   3.898  16.532  0.00  0.00    +0.000 A 
ATOM      9  C   UNL     1       6.315   4.133  16.003  0.00  0.00    +0.000 A 
ATOM     10  C   UNL     1       6.887   5.400  16.112  0.00  0.00    +0.000 A 
ATOM     11  C   UNL     1       6.216   6.444  16.755  0.00  0.00    +0.000 A 
ATOM     12  C   UNL     1       4.944   6.195  17.287  0.00  0.00    +0.000 A 
BRANCH   7  14
ATOM     13  C   UNL     1       2.689   3.247  17.367  0.00  0.00    +0.000 C 
ATOM     14  O   UNL     1       3.125   4.572  17.654  0.00  0.00    +0.000 OA
ENDBRANCH   7  14
ENDBRANCH   1  11
BRANCH   4  15
ATOM     15  C   UNL     1       9.116   9.839  18.728  0.00  0.00    +0.000 C 
BRANCH  15  16
ATOM     16  C   UNL     1       9.488  11.283  18.567  0.00  0.00    +0.000 A 
ATOM     17  C   UNL     1       8.638  12.166  17.886  0.00  0.00    +0.000 A 
ATOM     18  C   UNL     1       9.027  13.487  17.651  0.00  0.00    +0.000 A 
ATOM     19  C   UNL     1      10.271  13.939  18.093  0.00  0.00    +0.000 A 
ATOM     20  C   UNL     1      11.128  13.067  18.763  0.00  0.00    +0.000 A 
ATOM     21  C   UNL     1      10.735  11.751  18.988  0.00  0.00    +0.000 A 
ATOM     22  F   UNL     1      11.590  10.922  19.604  0.00  0.00    +0.000 F 
ENDBRANCH  15  16
ENDBRANCH   4  15
TORSDOF 4
ENDMDL
MODEL 8
REMARK VINA RESULT:      -7.0      5.939      7.972
REMARK  Name = 
REMARK  5 active torsions:
REMARK  status: ('A' for Active; 'I' for Inactive)
REMARK    1  A    between atoms: C_1  and  O_2
REMARK    2  A    between atoms: O_2  and  C_3
REMARK    3  A    between atoms: C_7  and  N_8
REMARK    4  A    between atoms: N_11  and  C_12
REMARK    5  A    between atoms: C_12  and  C_13
REMARK                            x       y       z     vdW  Elec       q    Type
REMARK                         _______ _______ _______ _____ _____    ______ ____
ROOT
ATOM      1  N   UNL     1       7.676   6.485  18.307  0.00  0.00    +0.000 N 
ATOM      2  C   UNL     1       7.720   7.794  17.884  0.00  0.00    +0.000 C 
ATOM      3  O   UNL     1       7.014   8.283  17.008  0.00  0.00    +0.000 OA
ATOM      4  N   UNL     1       8.623   8.565  18.583  0.00  0.00    +0.000 N 
ATOM      5  H   UNL     1       8.170   6.265  19.155  0.00  0.00    +0.000 HD
ATOM      6  H   UNL     1       9.455   8.105  18.909  0.00  0.00    +0.000 HD
ENDROOT
BRANCH   1  11
ATOM      7  C   UNL     1       4.895   4.026  18.077  0.00  0.00    +0.000 A 
ATOM      8  C   UNL     1       5.083   3.510  16.795  0.00  0.00    +0.000 A 
ATOM      9  C   UNL     1       6.122   3.977  16.000  0.00  0.00    +0.000 A 
ATOM     10  C   UNL     1       6.976   4.966  16.486  0.00  0.00    +0.000 A 
ATOM     11  C   UNL     1       6.814   5.495  17.771  0.00  0.00    +0.000 A 
ATOM     12  C   UNL     1       5.765   5.013  18.565  0.00  0.00    +0.000 A 
BRANCH   7  14
ATOM     13  C   UNL     1       3.509   2.135  18.454  0.00  0.00    +0.000 C 
ATOM     14  O   UNL     1       3.842   3.483  18.766  0.00  0.00    +0.000 OA
ENDBRANCH   7  14
ENDBRANCH   1  11
BRANCH   4  15
ATOM     15  C   UNL     1       8.764   9.951  18.171  0.00  0.00    +0.000 C 
BRANCH  15  16
ATOM     16  C   UNL     1       9.620  10.759  19.100  0.00  0.00    +0.000 A 
ATOM     17  C   UNL     1       9.227  10.966  20.431  0.00  0.00    +0.000 A 
ATOM     18  C   UNL     1       9.972  11.797  21.270  0.00  0.00    +0.000 A 
ATOM     19  C   UNL     1      11.118  12.432  20.789  0.00  0.00    +0.000 A 
ATOM     20  C   UNL     1      11.513  12.240  19.466  0.00  0.00    +0.000 A 
ATOM     21  C   UNL     1      10.762  11.415  18.634  0.00  0.00    +0.000 A 
ATOM     22  F   UNL     1      11.142  11.274  17.356  0.00  0.00    +0.000 F 
ENDBRANCH  15  16
ENDBRANCH   4  15
TORSDOF 4
ENDMDL
MODEL 9
REMARK VINA RESULT:      -6.9      6.106      7.765
REMARK  Name = 
REMARK  5 active torsions:
REMARK  status: ('A' for Active; 'I' for Inactive)
REMARK    1  A    between atoms: C_1  and  O_2
REMARK    2  A    between atoms: O_2  and  C_3
REMARK    3  A    between atoms: C_7  and  N_8
REMARK    4  A    between atoms: N_11  and  C_12
REMARK    5  A    between atoms: C_12  and  C_13
REMARK                            x       y       z     vdW  Elec       q    Type
REMARK                         _______ _______ _______ _____ _____    ______ ____
ROOT
ATOM      1  N   UNL     1       8.106   9.526  17.768  0.00  0.00    +0.000 N 
ATOM      2  C   UNL     1       7.930   8.169  17.915  0.00  0.00    +0.000 C 
ATOM      3  O   UNL     1       8.547   7.451  18.696  0.00  0.00    +0.000 OA
ATOM      4  N   UNL     1       6.928   7.658  17.119  0.00  0.00    +0.000 N 
ATOM      5  H   UNL     1       7.410  10.019  17.236  0.00  0.00    +0.000 HD
ATOM      6  H   UNL     1       6.790   8.097  16.226  0.00  0.00    +0.000 HD
ENDROOT
BRANCH   1  11
ATOM      7  C   UNL     1      11.019  11.735  18.454  0.00  0.00    +0.000 A 
ATOM      8  C   UNL     1      10.983  11.822  19.846  0.00  0.00    +0.000 A 
ATOM      9  C   UNL     1       9.992  11.159  20.561  0.00  0.00    +0.000 A 
ATOM     10  C   UNL     1       9.033  10.408  19.883  0.00  0.00    +0.000 A 
ATOM     11  C   UNL     1       9.052  10.298  18.490  0.00  0.00    +0.000 A 
ATOM     12  C   UNL     1      10.057  10.968  17.779  0.00  0.00    +0.000 A 
BRANCH   7  14
ATOM     13  C   UNL     1      11.959  13.847  17.914  0.00  0.00    +0.000 C 
ATOM     14  O   UNL     1      12.043  12.427  17.863  0.00  0.00    +0.000 OA
ENDBRANCH   7  14
ENDBRANCH   1  11
BRANCH   4  15
ATOM     15  C   UNL     1       6.705   6.223  17.181  0.00  0.00    +0.000 C 
BRANCH  15  16
ATOM     16  C   UNL     1       5.259   5.857  17.338  0.00  0.00    +0.000 A 
ATOM     17  C   UNL     1       4.343   6.784  17.857  0.00  0.00    +0.000 A 
ATOM     18  C   UNL     1       3.017   6.414  18.095  0.00  0.00    +0.000 A 
ATOM     19  C   UNL     1       2.593   5.114  17.819  0.00  0.00    +0.000 A 
ATOM     20  C   UNL     1       3.498   4.182  17.312  0.00  0.00    +0.000 A 
ATOM     21  C   UNL     1       4.818   4.557  17.083  0.00  0.00    +0.000 A 
ATOM     22  F   UNL     1       5.678   3.634  16.628  0.00  0.00    +0.000 F 
ENDBRANCH  15  16
ENDBRANCH   4  15
TORSDOF 4
ENDMDL
