MODEL 1
REMARK VINA RESULT:      -7.9      0.000      0.000
REMARK  Name = 
REMARK  7 active torsions:
REMARK  status: ('A' for Active; 'I' for Inactive)
REMARK    1  A    between atoms: C_1  and  C_2
REMARK    2  A    between atoms: C_2  and  N_3
REMARK    3  A    between atoms: N_3  and  C_4
REMARK    4  A    between atoms: N_12  and  O_13
REMARK    5  A    between atoms: O_13  and  S_14
REMARK    6  A    between atoms: S_14  and  C_17
REMARK    7  A    between atoms: C_20  and  C_21
REMARK                            x       y       z     vdW  Elec       q    Type
REMARK                         _______ _______ _______ _____ _____    ______ ____
ROOT
ATOM      1  C   UNL     1       6.468   4.071  14.732  0.00  0.00    +0.000 A 
ATOM      2  C   UNL     1       7.160   5.110  15.406  0.00  0.00    +0.000 A 
ATOM      3  C   UNL     1       6.938   5.415  16.764  0.00  0.00    +0.000 A 
ATOM      4  C   UNL     1       5.984   4.682  17.426  0.00  0.00    +0.000 A 
ATOM      5  C   UNL     1       5.293   3.684  16.769  0.00  0.00    +0.000 A 
ATOM      6  C   UNL     1       5.497   3.361  15.440  0.00  0.00    +0.000 A 
ATOM      7  C   UNL     1       4.382   3.065  17.711  0.00  0.00    +0.000 C 
ATOM      8  O   UNL     1       3.704   2.109  17.398  0.00  0.00    +0.000 OA
ATOM      9  N   UNL     1       4.524   3.740  18.875  0.00  0.00    +0.000 N 
ATOM     10  C   UNL     1       5.481   4.711  18.815  0.00  0.00    +0.000 C 
ATOM     11  O   UNL     1       5.907   5.458  19.681  0.00  0.00    +0.000 OA
ENDROOT
BRANCH   1  12
ATOM     12  N   UNL     1       6.612   3.800  13.371  0.00  0.00    +0.000 N 
ATOM     13  H   UNL     1       7.401   4.291  12.949  0.00  0.00    +0.000 HD
BRANCH  12  15
ATOM     14  C   UNL     1       5.496   2.425  11.687  0.00  0.00    +0.000 C 
ATOM     15  C   UNL     1       5.438   3.692  12.521  0.00  0.00    +0.000 C 
ENDBRANCH  12  15
ENDBRANCH   1  12
BRANCH   9  16
ATOM     16  O   UNL     1       3.893   3.419  20.081  0.00  0.00    +0.000 OA
BRANCH  16  17
ATOM     17  S   UNL     1       2.310   3.858  20.170  0.00  0.00    +0.000 S 
ATOM     18  O   UNL     1       1.552   3.050  19.235  0.00  0.00    +0.000 OA
ATOM     19  O   UNL     1       1.947   3.978  21.571  0.00  0.00    +0.000 OA
BRANCH  17  20
ATOM     20  C   UNL     1       2.234   5.524  19.554  0.00  0.00    +0.000 A 
ATOM     21  C   UNL     1       2.050   6.594  20.426  0.00  0.00    +0.000 A 
ATOM     22  C   UNL     1       1.970   7.887  19.905  0.00  0.00    +0.000 A 
ATOM     23  C   UNL     1       2.067   8.112  18.521  0.00  0.00    +0.000 A 
ATOM     24  C   UNL     1       1.979   9.504  17.967  0.00  0.00    +0.000 C 
ATOM     25  C   UNL     1       2.243   7.025  17.658  0.00  0.00    +0.000 A 
ATOM     26  C   UNL     1       2.325   5.731  18.170  0.00  0.00    +0.000 A 
ENDBRANCH  17  20
ENDBRANCH  16  17
ENDBRANCH   9  16
TORSDOF 5
ENDMDL
MODEL 2
REMARK VINA RESULT:      -7.8      2.787      7.465
REMARK  Name = 
REMARK  7 active torsions:
REMARK  status: ('A' for Active; 'I' for Inactive)
REMARK    1  A    between atoms: C_1  and  C_2
REMARK    2  A    between atoms: C_2  and  N_3
REMARK    3  A    between atoms: N_3  and  C_4
REMARK    4  A    between atoms: N_12  and  O_13
REMARK    5  A    between atoms: O_13  and  S_14
REMARK    6  A    between atoms: S_14  and  C_17
REMARK    7  A    between atoms: C_20  and  C_21
REMARK                            x       y       z     vdW  Elec       q    Type
REMARK                         _______ _______ _______ _____ _____    ______ ____
ROOT
ATOM      1  C   UNL     1       0.584   9.269  21.216  0.00  0.00    +0.000 A 
ATOM      2  C   UNL     1       0.965   9.902  20.005  0.00  0.00    +0.000 A 
ATOM      3  C   UNL     1       1.666   9.229  18.984  0.00  0.00    +0.000 A 
ATOM      4  C   UNL     1       2.009   7.920  19.213  0.00  0.00    +0.000 A 
ATOM      5  C   UNL     1       1.660   7.306  20.400  0.00  0.00    +0.000 A 
ATOM      6  C   UNL     1       0.968   7.941  21.413  0.00  0.00    +0.000 A 
ATOM      7  C   UNL     1       2.121   5.933  20.354  0.00  0.00    +0.000 C 
ATOM      8  O   UNL     1       1.878   5.156  21.253  0.00  0.00    +0.000 OA
ATOM      9  N   UNL     1       2.765   5.788  19.173  0.00  0.00    +0.000 N 
ATOM     10  C   UNL     1       2.730   6.915  18.404  0.00  0.00    +0.000 C 
ATOM     11  O   UNL     1       3.150   7.118  17.277  0.00  0.00    +0.000 OA
ENDROOT
BRANCH   1  12
ATOM     12  N   UNL     1      -0.040   9.932  22.273  0.00  0.00    +0.000 N 
ATOM     13  H   UNL     1      -0.678   9.333  22.797  0.00  0.00    +0.000 HD
BRANCH  12  15
ATOM     14  C   UNL     1      -1.709  11.575  22.974  0.00  0.00    +0.000 C 
ATOM     15  C   UNL     1      -0.491  11.304  22.109  0.00  0.00    +0.000 C 
ENDBRANCH  12  15
ENDBRANCH   1  12
BRANCH   9  16
ATOM     16  O   UNL     1       3.296   4.592  18.680  0.00  0.00    +0.000 OA
BRANCH  16  17
ATOM     17  S   UNL     1       4.914   4.405  18.913  0.00  0.00    +0.000 S 
ATOM     18  O   UNL     1       5.413   5.560  19.634  0.00  0.00    +0.000 OA
ATOM     19  O   UNL     1       5.159   3.044  19.353  0.00  0.00    +0.000 OA
BRANCH  17  20
ATOM     20  C   UNL     1       5.648   4.481  17.296  0.00  0.00    +0.000 A 
ATOM     21  C   UNL     1       7.003   4.763  17.146  0.00  0.00    +0.000 A 
ATOM     22  C   UNL     1       7.542   4.840  15.860  0.00  0.00    +0.000 A 
ATOM     23  C   UNL     1       6.732   4.643  14.729  0.00  0.00    +0.000 A 
ATOM     24  C   UNL     1       7.316   4.728  13.348  0.00  0.00    +0.000 C 
ATOM     25  C   UNL     1       5.371   4.368  14.896  0.00  0.00    +0.000 A 
ATOM     26  C   UNL     1       4.824   4.289  16.177  0.00  0.00    +0.000 A 
ENDBRANCH  17  20
ENDBRANCH  16  17
ENDBRANCH   9  16
TORSDOF 5
ENDMDL
MODEL 3
REMARK VINA RESULT:      -7.8      0.343      1.026
REMARK  Name = 
REMARK  7 active torsions:
REMARK  status: ('A' for Active; 'I' for Inactive)
REMARK    1  A    between atoms: C_1  and  C_2
REMARK    2  A    between atoms: C_2  and  N_3
REMARK    3  A    between atoms: N_3  and  C_4
REMARK    4  A    between atoms: N_12  and  O_13
REMARK    5  A    between atoms: O_13  and  S_14
REMARK    6  A    between atoms: S_14  and  C_17
REMARK    7  A    between atoms: C_20  and  C_21
REMARK                            x       y       z     vdW  Elec       q    Type
REMARK                         _______ _______ _______ _____ _____    ______ ____
ROOT
ATOM      1  C   UNL     1       6.482   4.415  14.900  0.00  0.00    +0.000 A 
ATOM      2  C   UNL     1       7.199   5.346  15.694  0.00  0.00    +0.000 A 
ATOM      3  C   UNL     1       6.983   5.488  17.080  0.00  0.00    +0.000 A 
ATOM      4  C   UNL     1       6.011   4.702  17.649  0.00  0.00    +0.000 A 
ATOM      5  C   UNL     1       5.296   3.810  16.876  0.00  0.00    +0.000 A 
ATOM      6  C   UNL     1       5.493   3.648  15.518  0.00  0.00    +0.000 A 
ATOM      7  C   UNL     1       4.370   3.103  17.737  0.00  0.00    +0.000 C 
ATOM      8  O   UNL     1       3.668   2.209  17.311  0.00  0.00    +0.000 OA
ATOM      9  N   UNL     1       4.528   3.626  18.975  0.00  0.00    +0.000 N 
ATOM     10  C   UNL     1       5.508   4.573  19.032  0.00  0.00    +0.000 C 
ATOM     11  O   UNL     1       5.951   5.198  19.982  0.00  0.00    +0.000 OA
ENDROOT
BRANCH   1  12
ATOM     12  N   UNL     1       6.620   4.310  13.516  0.00  0.00    +0.000 N 
ATOM     13  H   UNL     1       6.924   5.181  13.078  0.00  0.00    +0.000 HD
BRANCH  12  15
ATOM     14  C   UNL     1       6.362   2.574  11.814  0.00  0.00    +0.000 C 
ATOM     15  C   UNL     1       5.656   3.546  12.742  0.00  0.00    +0.000 C 
ENDBRANCH  12  15
ENDBRANCH   1  12
BRANCH   9  16
ATOM     16  O   UNL     1       3.888   3.175  20.134  0.00  0.00    +0.000 OA
BRANCH  16  17
ATOM     17  S   UNL     1       2.310   3.622  20.270  0.00  0.00    +0.000 S 
ATOM     18  O   UNL     1       1.511   2.764  19.418  0.00  0.00    +0.000 OA
ATOM     19  O   UNL     1       2.012   3.823  21.677  0.00  0.00    +0.000 OA
BRANCH  17  20
ATOM     20  C   UNL     1       2.205   5.250  19.564  0.00  0.00    +0.000 A 
ATOM     21  C   UNL     1       2.174   5.422  18.183  0.00  0.00    +0.000 A 
ATOM     22  C   UNL     1       2.117   6.717  17.662  0.00  0.00    +0.000 A 
ATOM     23  C   UNL     1       2.095   7.834  18.514  0.00  0.00    +0.000 A 
ATOM     24  C   UNL     1       2.035   9.223  17.948  0.00  0.00    +0.000 C 
ATOM     25  C   UNL     1       2.135   7.644  19.899  0.00  0.00    +0.000 A 
ATOM     26  C   UNL     1       2.192   6.355  20.428  0.00  0.00    +0.000 A 
ENDBRANCH  17  20
ENDBRANCH  16  17
ENDBRANCH   9  16
TORSDOF 5
ENDMDL
MODEL 4
REMARK VINA RESULT:      -7.8      2.735      3.913
REMARK  Name = 
REMARK  7 active torsions:
REMARK  status: ('A' for Active; 'I' for Inactive)
REMARK    1  A    between atoms: C_1  and  C_2
REMARK    2  A    between atoms: C_2  and  N_3
REMARK    3  A    between atoms: N_3  and  C_4
REMARK    4  A    between atoms: N_12  and  O_13
REMARK    5  A    between atoms: O_13  and  S_14
REMARK    6  A    between atoms: S_14  and  C_17
REMARK    7  A    between atoms: C_20  and  C_21
REMARK                            x       y       z     vdW  Elec       q    Type
REMARK                         _______ _______ _______ _____ _____    ______ ____
ROOT
ATOM      1  C   UNL     1       5.695   3.419  12.338  0.00  0.00    +0.000 A 
ATOM      2  C   UNL     1       6.933   4.096  12.191  0.00  0.00    +0.000 A 
ATOM      3  C   UNL     1       7.479   4.911  13.203  0.00  0.00    +0.000 A 
ATOM      4  C   UNL     1       6.744   5.063  14.353  0.00  0.00    +0.000 A 
ATOM      5  C   UNL     1       5.528   4.423  14.492  0.00  0.00    +0.000 A 
ATOM      6  C   UNL     1       4.975   3.615  13.518  0.00  0.00    +0.000 A 
ATOM      7  C   UNL     1       4.997   4.738  15.803  0.00  0.00    +0.000 C 
ATOM      8  O   UNL     1       3.964   4.242  16.201  0.00  0.00    +0.000 OA
ATOM      9  N   UNL     1       5.881   5.585  16.378  0.00  0.00    +0.000 N 
ATOM     10  C   UNL     1       6.977   5.821  15.600  0.00  0.00    +0.000 C 
ATOM     11  O   UNL     1       7.983   6.475  15.825  0.00  0.00    +0.000 OA
ENDROOT
BRANCH   1  12
ATOM     12  N   UNL     1       5.097   2.670  11.325  0.00  0.00    +0.000 N 
ATOM     13  H   UNL     1       5.674   2.601  10.486  0.00  0.00    +0.000 HD
BRANCH  12  15
ATOM     14  C   UNL     1       3.401   3.894  10.059  0.00  0.00    +0.000 C 
ATOM     15  C   UNL     1       3.670   2.795  11.071  0.00  0.00    +0.000 C 
ENDBRANCH  12  15
ENDBRANCH   1  12
BRANCH   9  16
ATOM     16  O   UNL     1       5.803   6.075  17.686  0.00  0.00    +0.000 OA
BRANCH  16  17
ATOM     17  S   UNL     1       6.241   5.002  18.853  0.00  0.00    +0.000 S 
ATOM     18  O   UNL     1       6.910   3.880  18.223  0.00  0.00    +0.000 OA
ATOM     19  O   UNL     1       6.828   5.740  19.957  0.00  0.00    +0.000 OA
BRANCH  17  20
ATOM     20  C   UNL     1       4.722   4.359  19.516  0.00  0.00    +0.000 A 
ATOM     21  C   UNL     1       4.560   2.991  19.717  0.00  0.00    +0.000 A 
ATOM     22  C   UNL     1       3.344   2.518  20.216  0.00  0.00    +0.000 A 
ATOM     23  C   UNL     1       2.293   3.405  20.506  0.00  0.00    +0.000 A 
ATOM     24  C   UNL     1       0.988   2.890  21.041  0.00  0.00    +0.000 C 
ATOM     25  C   UNL     1       2.469   4.775  20.291  0.00  0.00    +0.000 A 
ATOM     26  C   UNL     1       3.680   5.256  19.794  0.00  0.00    +0.000 A 
ENDBRANCH  17  20
ENDBRANCH  16  17
ENDBRANCH   9  16
TORSDOF 5
ENDMDL
MODEL 5
REMARK VINA RESULT:      -7.6      5.373      7.479
REMARK  Name = 
REMARK  7 active torsions:
REMARK  status: ('A' for Active; 'I' for Inactive)
REMARK    1  A    between atoms: C_1  and  C_2
REMARK    2  A    between atoms: C_2  and  N_3
REMARK    3  A    between atoms: N_3  and  C_4
REMARK    4  A    between atoms: N_12  and  O_13
REMARK    5  A    between atoms: O_13  and  S_14
REMARK    6  A    between atoms: S_14  and  C_17
REMARK    7  A    between atoms: C_20  and  C_21
REMARK                            x       y       z     vdW  Elec       q    Type
REMARK                         _______ _______ _______ _____ _____    ______ ____
ROOT
ATOM      1  C   UNL     1       2.624   5.320  19.772  0.00  0.00    +0.000 A 
ATOM      2  C   UNL     1       3.017   5.657  18.451  0.00  0.00    +0.000 A 
ATOM      3  C   UNL     1       2.835   6.945  17.909  0.00  0.00    +0.000 A 
ATOM      4  C   UNL     1       2.219   7.881  18.702  0.00  0.00    +0.000 A 
ATOM      5  C   UNL     1       1.815   7.552  19.981  0.00  0.00    +0.000 A 
ATOM      6  C   UNL     1       1.988   6.299  20.538  0.00  0.00    +0.000 A 
ATOM      7  C   UNL     1       1.229   8.729  20.590  0.00  0.00    +0.000 C 
ATOM      8  O   UNL     1       0.854   8.723  21.744  0.00  0.00    +0.000 OA
ATOM      9  N   UNL     1       1.259   9.699  19.647  0.00  0.00    +0.000 N 
ATOM     10  C   UNL     1       1.859   9.298  18.489  0.00  0.00    +0.000 C 
ATOM     11  O   UNL     1       2.108   9.920  17.468  0.00  0.00    +0.000 OA
ENDROOT
BRANCH   1  12
ATOM     12  N   UNL     1       2.721   4.035  20.305  0.00  0.00    +0.000 N 
ATOM     13  H   UNL     1       3.429   3.464  19.842  0.00  0.00    +0.000 HD
BRANCH  12  15
ATOM     14  C   UNL     1       0.807   2.761  19.476  0.00  0.00    +0.000 C 
ATOM     15  C   UNL     1       1.521   3.314  20.696  0.00  0.00    +0.000 C 
ENDBRANCH  12  15
ENDBRANCH   1  12
BRANCH   9  16
ATOM     16  O   UNL     1       0.869  11.028  19.838  0.00  0.00    +0.000 OA
BRANCH  16  17
ATOM     17  S   UNL     1      -0.652  11.384  19.322  0.00  0.00    +0.000 S 
ATOM     18  O   UNL     1      -0.600  12.594  18.525  0.00  0.00    +0.000 OA
ATOM     19  O   UNL     1      -1.270  10.160  18.844  0.00  0.00    +0.000 OA
BRANCH  17  20
ATOM     20  C   UNL     1      -1.575  11.798  20.784  0.00  0.00    +0.000 A 
ATOM     21  C   UNL     1      -1.134  11.390  22.040  0.00  0.00    +0.000 A 
ATOM     22  C   UNL     1      -1.896  11.711  23.164  0.00  0.00    +0.000 A 
ATOM     23  C   UNL     1      -3.096  12.431  23.037  0.00  0.00    +0.000 A 
ATOM     24  C   UNL     1      -3.913  12.773  24.249  0.00  0.00    +0.000 C 
ATOM     25  C   UNL     1      -3.530  12.827  21.767  0.00  0.00    +0.000 A 
ATOM     26  C   UNL     1      -2.774  12.511  20.639  0.00  0.00    +0.000 A 
ENDBRANCH  17  20
ENDBRANCH  16  17
ENDBRANCH   9  16
TORSDOF 5
ENDMDL
MODEL 6
REMARK VINA RESULT:      -7.6      5.297      7.316
REMARK  Name = 
REMARK  7 active torsions:
REMARK  status: ('A' for Active; 'I' for Inactive)
REMARK    1  A    between atoms: C_1  and  C_2
REMARK    2  A    between atoms: C_2  and  N_3
REMARK    3  A    between atoms: N_3  and  C_4
REMARK    4  A    between atoms: N_12  and  O_13
REMARK    5  A    between atoms: O_13  and  S_14
REMARK    6  A    between atoms: S_14  and  C_17
REMARK    7  A    between atoms: C_20  and  C_21
REMARK                            x       y       z     vdW  Elec       q    Type
REMARK                         _______ _______ _______ _____ _____    ______ ____
ROOT
ATOM      1  C   UNL     1       2.609   5.158  19.668  0.00  0.00    +0.000 A 
ATOM      2  C   UNL     1       3.015   5.531  18.360  0.00  0.00    +0.000 A 
ATOM      3  C   UNL     1       2.856   6.839  17.860  0.00  0.00    +0.000 A 
ATOM      4  C   UNL     1       2.252   7.758  18.681  0.00  0.00    +0.000 A 
ATOM      5  C   UNL     1       1.836   7.394  19.946  0.00  0.00    +0.000 A 
ATOM      6  C   UNL     1       1.985   6.121  20.462  0.00  0.00    +0.000 A 
ATOM      7  C   UNL     1       1.266   8.561  20.590  0.00  0.00    +0.000 C 
ATOM      8  O   UNL     1       0.886   8.523  21.742  0.00  0.00    +0.000 OA
ATOM      9  N   UNL     1       1.317   9.560  19.680  0.00  0.00    +0.000 N 
ATOM     10  C   UNL     1       1.916   9.187  18.512  0.00  0.00    +0.000 C 
ATOM     11  O   UNL     1       2.180   9.838  17.513  0.00  0.00    +0.000 OA
ENDROOT
BRANCH   1  12
ATOM     12  N   UNL     1       2.683   3.854  20.159  0.00  0.00    +0.000 N 
ATOM     13  H   UNL     1       3.483   3.706  20.775  0.00  0.00    +0.000 HD
BRANCH  12  15
ATOM     14  C   UNL     1       0.862   2.602  19.114  0.00  0.00    +0.000 C 
ATOM     15  C   UNL     1       2.364   2.730  19.294  0.00  0.00    +0.000 C 
ENDBRANCH  12  15
ENDBRANCH   1  12
BRANCH   9  16
ATOM     16  O   UNL     1       0.949  10.889  19.912  0.00  0.00    +0.000 OA
BRANCH  16  17
ATOM     17  S   UNL     1      -0.522  11.314  19.310  0.00  0.00    +0.000 S 
ATOM     18  O   UNL     1      -0.372  12.532  18.538  0.00  0.00    +0.000 OA
ATOM     19  O   UNL     1      -1.158  10.124  18.775  0.00  0.00    +0.000 OA
BRANCH  17  20
ATOM     20  C   UNL     1      -1.517  11.746  20.719  0.00  0.00    +0.000 A 
ATOM     21  C   UNL     1      -2.678  12.497  20.563  0.00  0.00    +0.000 A 
ATOM     22  C   UNL     1      -3.422  12.839  21.694  0.00  0.00    +0.000 A 
ATOM     23  C   UNL     1      -3.006  12.439  22.975  0.00  0.00    +0.000 A 
ATOM     24  C   UNL     1      -3.809  12.812  24.188  0.00  0.00    +0.000 C 
ATOM     25  C   UNL     1      -1.833  11.692  23.116  0.00  0.00    +0.000 A 
ATOM     26  C   UNL     1      -1.084  11.345  21.992  0.00  0.00    +0.000 A 
ENDBRANCH  17  20
ENDBRANCH  16  17
ENDBRANCH   9  16
TORSDOF 5
ENDMDL
MODEL 7
REMARK VINA RESULT:      -7.5      2.493      6.896
REMARK  Name = 
REMARK  7 active torsions:
REMARK  status: ('A' for Active; 'I' for Inactive)
REMARK    1  A    between atoms: C_1  and  C_2
REMARK    2  A    between atoms: C_2  and  N_3
REMARK    3  A    between atoms: N_3  and  C_4
REMARK    4  A    between atoms: N_12  and  O_13
REMARK    5  A    between atoms: O_13  and  S_14
REMARK    6  A    between atoms: S_14  and  C_17
REMARK    7  A    between atoms: C_20  and  C_21
REMARK                            x       y       z     vdW  Elec       q    Type
REMARK                         _______ _______ _______ _____ _____    ______ ____
ROOT
ATOM      1  C   UNL     1       1.453  10.176  18.890  0.00  0.00    +0.000 A 
ATOM      2  C   UNL     1       0.959   9.790  20.162  0.00  0.00    +0.000 A 
ATOM      3  C   UNL     1       1.133   8.491  20.683  0.00  0.00    +0.000 A 
ATOM      4  C   UNL     1       1.781   7.577  19.890  0.00  0.00    +0.000 A 
ATOM      5  C   UNL     1       2.245   7.943  18.642  0.00  0.00    +0.000 A 
ATOM      6  C   UNL     1       2.093   9.210  18.112  0.00  0.00    +0.000 A 
ATOM      7  C   UNL     1       2.907   6.798  18.049  0.00  0.00    +0.000 C 
ATOM      8  O   UNL     1       3.464   6.877  16.975  0.00  0.00    +0.000 OA
ATOM      9  N   UNL     1       2.775   5.783  18.934  0.00  0.00    +0.000 N 
ATOM     10  C   UNL     1       2.139   6.156  20.082  0.00  0.00    +0.000 C 
ATOM     11  O   UNL     1       1.906   5.525  21.101  0.00  0.00    +0.000 OA
ENDROOT
BRANCH   1  12
ATOM     12  N   UNL     1       1.227  11.429  18.320  0.00  0.00    +0.000 N 
ATOM     13  H   UNL     1       1.451  11.460  17.324  0.00  0.00    +0.000 HD
BRANCH  12  15
ATOM     14  C   UNL     1       0.307  13.393  19.447  0.00  0.00    +0.000 C 
ATOM     15  C   UNL     1       1.564  12.637  19.055  0.00  0.00    +0.000 C 
ENDBRANCH  12  15
ENDBRANCH   1  12
BRANCH   9  16
ATOM     16  O   UNL     1       3.342   4.512  18.802  0.00  0.00    +0.000 OA
BRANCH  16  17
ATOM     17  S   UNL     1       4.971   4.454  19.029  0.00  0.00    +0.000 S 
ATOM     18  O   UNL     1       5.386   5.667  19.706  0.00  0.00    +0.000 OA
ATOM     19  O   UNL     1       5.319   3.131  19.513  0.00  0.00    +0.000 OA
BRANCH  17  20
ATOM     20  C   UNL     1       5.690   4.529  17.404  0.00  0.00    +0.000 A 
ATOM     21  C   UNL     1       6.887   5.206  17.190  0.00  0.00    +0.000 A 
ATOM     22  C   UNL     1       7.410   5.266  15.897  0.00  0.00    +0.000 A 
ATOM     23  C   UNL     1       6.740   4.659  14.821  0.00  0.00    +0.000 A 
ATOM     24  C   UNL     1       7.306   4.729  13.433  0.00  0.00    +0.000 C 
ATOM     25  C   UNL     1       5.533   3.991  15.052  0.00  0.00    +0.000 A 
ATOM     26  C   UNL     1       5.004   3.925  16.340  0.00  0.00    +0.000 A 
ENDBRANCH  17  20
ENDBRANCH  16  17
ENDBRANCH   9  16
TORSDOF 5
ENDMDL
MODEL 8
REMARK VINA RESULT:      -7.4      3.529      7.385
REMARK  Name = 
REMARK  7 active torsions:
REMARK  status: ('A' for Active; 'I' for Inactive)
REMARK    1  A    between atoms: C_1  and  C_2
REMARK    2  A    between atoms: C_2  and  N_3
REMARK    3  A    between atoms: N_3  and  C_4
REMARK    4  A    between atoms: N_12  and  O_13
REMARK    5  A    between atoms: O_13  and  S_14
REMARK    6  A    between atoms: S_14  and  C_17
REMARK    7  A    between atoms: C_20  and  C_21
REMARK                            x       y       z     vdW  Elec       q    Type
REMARK                         _______ _______ _______ _____ _____    ______ ____
ROOT
ATOM      1  C   UNL     1      -0.836  11.088  18.335  0.00  0.00    +0.000 A 
ATOM      2  C   UNL     1      -1.158  10.906  19.705  0.00  0.00    +0.000 A 
ATOM      3  C   UNL     1      -0.464  10.003  20.534  0.00  0.00    +0.000 A 
ATOM      4  C   UNL     1       0.537   9.260  19.958  0.00  0.00    +0.000 A 
ATOM      5  C   UNL     1       0.839   9.418  18.620  0.00  0.00    +0.000 A 
ATOM      6  C   UNL     1       0.178  10.301  17.787  0.00  0.00    +0.000 A 
ATOM      7  C   UNL     1       1.943   8.537  18.296  0.00  0.00    +0.000 C 
ATOM      8  O   UNL     1       2.446   8.536  17.192  0.00  0.00    +0.000 OA
ATOM      9  N   UNL     1       2.229   7.855  19.429  0.00  0.00    +0.000 N 
ATOM     10  C   UNL     1       1.459   8.235  20.489  0.00  0.00    +0.000 C 
ATOM     11  O   UNL     1       1.486   7.879  21.656  0.00  0.00    +0.000 OA
ENDROOT
BRANCH   1  12
ATOM     12  N   UNL     1      -1.557  11.917  17.474  0.00  0.00    +0.000 N 
ATOM     13  H   UNL     1      -1.476  12.906  17.712  0.00  0.00    +0.000 HD
BRANCH  12  15
ATOM     14  C   UNL     1      -2.769  10.851  15.638  0.00  0.00    +0.000 C 
ATOM     15  C   UNL     1      -2.871  11.512  17.001  0.00  0.00    +0.000 C 
ENDBRANCH  12  15
ENDBRANCH   1  12
BRANCH   9  16
ATOM     16  O   UNL     1       3.287   6.955  19.588  0.00  0.00    +0.000 OA
BRANCH  16  17
ATOM     17  S   UNL     1       3.002   5.442  19.009  0.00  0.00    +0.000 S 
ATOM     18  O   UNL     1       3.419   4.478  20.008  0.00  0.00    +0.000 OA
ATOM     19  O   UNL     1       1.680   5.423  18.410  0.00  0.00    +0.000 OA
BRANCH  17  20
ATOM     20  C   UNL     1       4.108   5.233  17.633  0.00  0.00    +0.000 A 
ATOM     21  C   UNL     1       4.163   4.023  16.946  0.00  0.00    +0.000 A 
ATOM     22  C   UNL     1       5.062   3.886  15.886  0.00  0.00    +0.000 A 
ATOM     23  C   UNL     1       5.905   4.947  15.517  0.00  0.00    +0.000 A 
ATOM     24  C   UNL     1       6.870   4.793  14.377  0.00  0.00    +0.000 C 
ATOM     25  C   UNL     1       5.843   6.152  16.223  0.00  0.00    +0.000 A 
ATOM     26  C   UNL     1       4.949   6.299  17.282  0.00  0.00    +0.000 A 
ENDBRANCH  17  20
ENDBRANCH  16  17
ENDBRANCH   9  16
TORSDOF 5
ENDMDL
MODEL 9
REMARK VINA RESULT:      -7.4      2.321      4.104
REMARK  Name = 
REMARK  7 active torsions:
REMARK  status: ('A' for Active; 'I' for Inactive)
REMARK    1  A    between atoms: C_1  and  C_2
REMARK    2  A    between atoms: C_2  and  N_3
REMARK    3  A    between atoms: N_3  and  C_4
REMARK    4  A    between atoms: N_12  and  O_13
REMARK    5  A    between atoms: O_13  and  S_14
REMARK    6  A    between atoms: S_14  and  C_17
REMARK    7  A    between atoms: C_20  and  C_21
REMARK                            x       y       z     vdW  Elec       q    Type
REMARK                         _______ _______ _______ _____ _____    ______ ____
ROOT
ATOM      1  C   UNL     1       7.677   7.059  18.182  0.00  0.00    +0.000 A 
ATOM      2  C   UNL     1       7.514   6.962  16.776  0.00  0.00    +0.000 A 
ATOM      3  C   UNL     1       6.682   5.997  16.172  0.00  0.00    +0.000 A 
ATOM      4  C   UNL     1       6.043   5.109  17.002  0.00  0.00    +0.000 A 
ATOM      5  C   UNL     1       6.216   5.186  18.369  0.00  0.00    +0.000 A 
ATOM      6  C   UNL     1       7.020   6.125  18.986  0.00  0.00    +0.000 A 
ATOM      7  C   UNL     1       5.407   4.155  18.988  0.00  0.00    +0.000 C 
ATOM      8  O   UNL     1       5.329   4.053  20.194  0.00  0.00    +0.000 OA
ATOM      9  N   UNL     1       4.823   3.473  17.976  0.00  0.00    +0.000 N 
ATOM     10  C   UNL     1       5.119   3.985  16.747  0.00  0.00    +0.000 C 
ATOM     11  O   UNL     1       4.725   3.662  15.638  0.00  0.00    +0.000 OA
ENDROOT
BRANCH   1  12
ATOM     12  N   UNL     1       8.553   7.951  18.801  0.00  0.00    +0.000 N 
ATOM     13  H   UNL     1       8.619   7.810  19.809  0.00  0.00    +0.000 HD
BRANCH  12  15
ATOM     14  C   UNL     1       9.316  10.193  19.408  0.00  0.00    +0.000 C 
ATOM     15  C   UNL     1       8.596   9.342  18.378  0.00  0.00    +0.000 C 
ENDBRANCH  12  15
ENDBRANCH   1  12
BRANCH   9  16
ATOM     16  O   UNL     1       3.888   2.443  18.126  0.00  0.00    +0.000 OA
BRANCH  16  17
ATOM     17  S   UNL     1       2.318   2.904  17.952  0.00  0.00    +0.000 S 
ATOM     18  O   UNL     1       2.077   3.210  16.556  0.00  0.00    +0.000 OA
ATOM     19  O   UNL     1       1.486   1.983  18.705  0.00  0.00    +0.000 OA
BRANCH  17  20
ATOM     20  C   UNL     1       2.166   4.445  18.826  0.00  0.00    +0.000 A 
ATOM     21  C   UNL     1       1.833   4.463  20.178  0.00  0.00    +0.000 A 
ATOM     22  C   UNL     1       1.697   5.692  20.826  0.00  0.00    +0.000 A 
ATOM     23  C   UNL     1       1.887   6.897  20.129  0.00  0.00    +0.000 A 
ATOM     24  C   UNL     1       1.739   8.216  20.832  0.00  0.00    +0.000 C 
ATOM     25  C   UNL     1       2.213   6.862  18.770  0.00  0.00    +0.000 A 
ATOM     26  C   UNL     1       2.352   5.639  18.114  0.00  0.00    +0.000 A 
ENDBRANCH  17  20
ENDBRANCH  16  17
ENDBRANCH   9  16
TORSDOF 5
ENDMDL
