MODEL 1
REMARK VINA RESULT:      -7.4      0.000      0.000
REMARK  Name = 
REMARK  8 active torsions:
REMARK  status: ('A' for Active; 'I' for Inactive)
REMARK    1  A    between atoms: C_1  and  C_2
REMARK    2  A    between atoms: C_2  and  C_3
REMARK    3  A    between atoms: C_3  and  C_4
REMARK    4  A    between atoms: N_6  and  C_7
REMARK    5  A    between atoms: N_15  and  C_16
REMARK    6  A    between atoms: C_16  and  C_17
REMARK    7  A    between atoms: C_17  and  C_18
REMARK    8  A    between atoms: C_18  and  O_20
REMARK                            x       y       z     vdW  Elec       q    Type
REMARK                         _______ _______ _______ _____ _____    ______ ____
ROOT
ATOM      1  C   UNL     1       5.610   6.469  17.035  0.00  0.00    +0.000 A 
ATOM      2  C   UNL     1       5.617   5.363  16.154  0.00  0.00    +0.000 A 
ATOM      3  C   UNL     1       4.697   4.317  16.277  0.00  0.00    +0.000 A 
ATOM      4  C   UNL     1       3.782   4.406  17.298  0.00  0.00    +0.000 A 
ATOM      5  C   UNL     1       3.769   5.469  18.180  0.00  0.00    +0.000 A 
ATOM      6  C   UNL     1       4.673   6.516  18.080  0.00  0.00    +0.000 A 
ATOM      7  C   UNL     1       2.686   5.226  19.135  0.00  0.00    +0.000 C 
ATOM      8  O   UNL     1       2.397   5.985  20.039  0.00  0.00    +0.000 OA
ATOM      9  N   UNL     1       2.121   4.024  18.795  0.00  0.00    +0.000 N 
ATOM     10  C   UNL     1       2.719   3.486  17.686  0.00  0.00    +0.000 C 
ATOM     11  O   UNL     1       2.469   2.442  17.115  0.00  0.00    +0.000 OA
ENDROOT
BRANCH   1  14
ATOM     12  C   UNL     1       7.640   7.734  17.741  0.00  0.00    +0.000 C 
ATOM     13  O   UNL     1       8.064   6.955  18.587  0.00  0.00    +0.000 OA
ATOM     14  N   UNL     1       6.536   7.531  16.926  0.00  0.00    +0.000 N 
ATOM     15  H   UNL     1       6.430   8.153  16.134  0.00  0.00    +0.000 HD
BRANCH  12  16
ATOM     16  C   UNL     1       8.350   9.053  17.500  0.00  0.00    +0.000 C 
BRANCH  16  18
ATOM     17  C   UNL     1       9.491  11.067  18.552  0.00  0.00    +0.000 C 
ATOM     18  C   UNL     1       8.921   9.672  18.773  0.00  0.00    +0.000 C 
ENDBRANCH  16  18
ENDBRANCH  12  16
ENDBRANCH   1  14
BRANCH   9  19
ATOM     19  C   UNL     1       0.989   3.411  19.473  0.00  0.00    +0.000 C 
BRANCH  19  20
ATOM     20  C   UNL     1       1.418   2.249  20.367  0.00  0.00    +0.000 C 
BRANCH  20  21
ATOM     21  C   UNL     1       2.404   2.707  21.405  0.00  0.00    +0.000 C 
ATOM     22  O   UNL     1       2.146   3.440  22.347  0.00  0.00    +0.000 OA
BRANCH  21  23
ATOM     23  O   UNL     1       3.648   2.219  21.188  0.00  0.00    +0.000 OA
ATOM     24  H   UNL     1       4.121   1.956  22.000  0.00  0.00    +0.000 HD
ENDBRANCH  21  23
ENDBRANCH  20  21
ENDBRANCH  19  20
ENDBRANCH   9  19
TORSDOF 7
ENDMDL
MODEL 2
REMARK VINA RESULT:      -7.2      1.055      1.143
REMARK  Name = 
REMARK  8 active torsions:
REMARK  status: ('A' for Active; 'I' for Inactive)
REMARK    1  A    between atoms: C_1  and  C_2
REMARK    2  A    between atoms: C_2  and  C_3
REMARK    3  A    between atoms: C_3  and  C_4
REMARK    4  A    between atoms: N_6  and  C_7
REMARK    5  A    between atoms: N_15  and  C_16
REMARK    6  A    between atoms: C_16  and  C_17
REMARK    7  A    between atoms: C_17  and  C_18
REMARK    8  A    between atoms: C_18  and  O_20
REMARK                            x       y       z     vdW  Elec       q    Type
REMARK                         _______ _______ _______ _____ _____    ______ ____
ROOT
ATOM      1  C   UNL     1       6.243   6.524  17.090  0.00  0.00    +0.000 A 
ATOM      2  C   UNL     1       6.778   5.270  16.712  0.00  0.00    +0.000 A 
ATOM      3  C   UNL     1       6.028   4.093  16.799  0.00  0.00    +0.000 A 
ATOM      4  C   UNL     1       4.743   4.204  17.274  0.00  0.00    +0.000 A 
ATOM      5  C   UNL     1       4.209   5.415  17.665  0.00  0.00    +0.000 A 
ATOM      6  C   UNL     1       4.934   6.596  17.591  0.00  0.00    +0.000 A 
ATOM      7  C   UNL     1       2.844   5.157  18.128  0.00  0.00    +0.000 C 
ATOM      8  O   UNL     1       2.089   6.022  18.530  0.00  0.00    +0.000 OA
ATOM      9  N   UNL     1       2.637   3.807  18.015  0.00  0.00    +0.000 N 
ATOM     10  C   UNL     1       3.732   3.175  17.488  0.00  0.00    +0.000 C 
ATOM     11  O   UNL     1       3.891   1.993  17.250  0.00  0.00    +0.000 OA
ENDROOT
BRANCH   1  14
ATOM     12  C   UNL     1       7.971   8.127  17.905  0.00  0.00    +0.000 C 
ATOM     13  O   UNL     1       8.441   7.453  18.816  0.00  0.00    +0.000 OA
ATOM     14  N   UNL     1       6.991   7.721  17.013  0.00  0.00    +0.000 N 
ATOM     15  H   UNL     1       6.855   8.294  16.188  0.00  0.00    +0.000 HD
BRANCH  12  16
ATOM     16  C   UNL     1       8.475   9.538  17.668  0.00  0.00    +0.000 C 
BRANCH  16  18
ATOM     17  C   UNL     1       9.833  11.477  18.596  0.00  0.00    +0.000 C 
ATOM     18  C   UNL     1       9.133  10.159  18.897  0.00  0.00    +0.000 C 
ENDBRANCH  16  18
ENDBRANCH  12  16
ENDBRANCH   1  14
BRANCH   9  19
ATOM     19  C   UNL     1       1.396   3.120  18.345  0.00  0.00    +0.000 C 
BRANCH  19  20
ATOM     20  C   UNL     1       1.529   2.278  19.612  0.00  0.00    +0.000 C 
BRANCH  20  21
ATOM     21  C   UNL     1       1.285   3.112  20.839  0.00  0.00    +0.000 C 
ATOM     22  O   UNL     1       0.835   4.246  20.841  0.00  0.00    +0.000 OA
BRANCH  21  23
ATOM     23  O   UNL     1       1.626   2.467  21.979  0.00  0.00    +0.000 OA
ATOM     24  H   UNL     1       0.899   2.385  22.625  0.00  0.00    +0.000 HD
ENDBRANCH  21  23
ENDBRANCH  20  21
ENDBRANCH  19  20
ENDBRANCH   9  19
TORSDOF 7
ENDMDL
MODEL 3
REMARK VINA RESULT:      -7.2      2.919      4.906
REMARK  Name = 
REMARK  8 active torsions:
REMARK  status: ('A' for Active; 'I' for Inactive)
REMARK    1  A    between atoms: C_1  and  C_2
REMARK    2  A    between atoms: C_2  and  C_3
REMARK    3  A    between atoms: C_3  and  C_4
REMARK    4  A    between atoms: N_6  and  C_7
REMARK    5  A    between atoms: N_15  and  C_16
REMARK    6  A    between atoms: C_16  and  C_17
REMARK    7  A    between atoms: C_17  and  C_18
REMARK    8  A    between atoms: C_18  and  O_20
REMARK                            x       y       z     vdW  Elec       q    Type
REMARK                         _______ _______ _______ _____ _____    ______ ____
ROOT
ATOM      1  C   UNL     1       5.858   3.862  15.399  0.00  0.00    +0.000 A 
ATOM      2  C   UNL     1       6.829   4.423  16.261  0.00  0.00    +0.000 A 
ATOM      3  C   UNL     1       6.498   4.897  17.534  0.00  0.00    +0.000 A 
ATOM      4  C   UNL     1       5.181   4.798  17.915  0.00  0.00    +0.000 A 
ATOM      5  C   UNL     1       4.216   4.269  17.082  0.00  0.00    +0.000 A 
ATOM      6  C   UNL     1       4.518   3.796  15.813  0.00  0.00    +0.000 A 
ATOM      7  C   UNL     1       2.941   4.337  17.799  0.00  0.00    +0.000 C 
ATOM      8  O   UNL     1       1.886   3.936  17.346  0.00  0.00    +0.000 OA
ATOM      9  N   UNL     1       3.200   4.921  19.012  0.00  0.00    +0.000 N 
ATOM     10  C   UNL     1       4.532   5.206  19.156  0.00  0.00    +0.000 C 
ATOM     11  O   UNL     1       5.107   5.717  20.097  0.00  0.00    +0.000 OA
ENDROOT
BRANCH   1  14
ATOM     12  C   UNL     1       6.805   4.106  13.105  0.00  0.00    +0.000 C 
ATOM     13  O   UNL     1       7.308   5.219  13.225  0.00  0.00    +0.000 OA
ATOM     14  N   UNL     1       6.177   3.384  14.107  0.00  0.00    +0.000 N 
ATOM     15  H   UNL     1       6.004   2.402  13.925  0.00  0.00    +0.000 HD
BRANCH  12  16
ATOM     16  C   UNL     1       6.855   3.392  11.768  0.00  0.00    +0.000 C 
BRANCH  16  18
ATOM     17  C   UNL     1       4.379   3.113  11.262  0.00  0.00    +0.000 C 
ATOM     18  C   UNL     1       5.700   2.417  11.561  0.00  0.00    +0.000 C 
ENDBRANCH  16  18
ENDBRANCH  12  16
ENDBRANCH   1  14
BRANCH   9  19
ATOM     19  C   UNL     1       2.212   5.160  20.054  0.00  0.00    +0.000 C 
BRANCH  19  20
ATOM     20  C   UNL     1       2.415   4.239  21.256  0.00  0.00    +0.000 C 
BRANCH  20  21
ATOM     21  C   UNL     1       1.385   3.145  21.274  0.00  0.00    +0.000 C 
ATOM     22  O   UNL     1       1.289   2.283  22.133  0.00  0.00    +0.000 OA
BRANCH  21  23
ATOM     23  O   UNL     1       0.549   3.203  20.211  0.00  0.00    +0.000 OA
ATOM     24  H   UNL     1       0.908   2.799  19.398  0.00  0.00    +0.000 HD
ENDBRANCH  21  23
ENDBRANCH  20  21
ENDBRANCH  19  20
ENDBRANCH   9  19
TORSDOF 7
ENDMDL
MODEL 4
REMARK VINA RESULT:      -7.2      2.737      4.450
REMARK  Name = 
REMARK  8 active torsions:
REMARK  status: ('A' for Active; 'I' for Inactive)
REMARK    1  A    between atoms: C_1  and  C_2
REMARK    2  A    between atoms: C_2  and  C_3
REMARK    3  A    between atoms: C_3  and  C_4
REMARK    4  A    between atoms: N_6  and  C_7
REMARK    5  A    between atoms: N_15  and  C_16
REMARK    6  A    between atoms: C_16  and  C_17
REMARK    7  A    between atoms: C_17  and  C_18
REMARK    8  A    between atoms: C_18  and  O_20
REMARK                            x       y       z     vdW  Elec       q    Type
REMARK                         _______ _______ _______ _____ _____    ______ ____
ROOT
ATOM      1  C   UNL     1       5.118   4.920  15.475  0.00  0.00    +0.000 A 
ATOM      2  C   UNL     1       5.162   6.296  15.800  0.00  0.00    +0.000 A 
ATOM      3  C   UNL     1       4.478   6.814  16.904  0.00  0.00    +0.000 A 
ATOM      4  C   UNL     1       3.752   5.927  17.663  0.00  0.00    +0.000 A 
ATOM      5  C   UNL     1       3.682   4.584  17.352  0.00  0.00    +0.000 A 
ATOM      6  C   UNL     1       4.348   4.047  16.260  0.00  0.00    +0.000 A 
ATOM      7  C   UNL     1       2.818   3.953  18.351  0.00  0.00    +0.000 C 
ATOM      8  O   UNL     1       2.559   2.765  18.371  0.00  0.00    +0.000 OA
ATOM      9  N   UNL     1       2.396   4.948  19.194  0.00  0.00    +0.000 N 
ATOM     10  C   UNL     1       2.937   6.159  18.850  0.00  0.00    +0.000 C 
ATOM     11  O   UNL     1       2.783   7.243  19.378  0.00  0.00    +0.000 OA
ENDROOT
BRANCH   1  14
ATOM     12  C   UNL     1       7.046   4.779  13.900  0.00  0.00    +0.000 C 
ATOM     13  O   UNL     1       7.811   5.552  14.466  0.00  0.00    +0.000 OA
ATOM     14  N   UNL     1       5.799   4.383  14.359  0.00  0.00    +0.000 N 
ATOM     15  H   UNL     1       5.375   3.583  13.903  0.00  0.00    +0.000 HD
BRANCH  12  16
ATOM     16  C   UNL     1       7.445   4.149  12.579  0.00  0.00    +0.000 C 
BRANCH  16  18
ATOM     17  C   UNL     1       6.914   2.018  11.297  0.00  0.00    +0.000 C 
ATOM     18  C   UNL     1       6.358   3.260  11.980  0.00  0.00    +0.000 C 
ENDBRANCH  16  18
ENDBRANCH  12  16
ENDBRANCH   1  14
BRANCH   9  19
ATOM     19  C   UNL     1       1.535   4.755  20.352  0.00  0.00    +0.000 C 
BRANCH  19  20
ATOM     20  C   UNL     1       2.329   4.351  21.593  0.00  0.00    +0.000 C 
BRANCH  20  21
ATOM     21  C   UNL     1       2.297   2.860  21.789  0.00  0.00    +0.000 C 
ATOM     22  O   UNL     1       1.354   2.230  22.243  0.00  0.00    +0.000 OA
BRANCH  21  23
ATOM     23  O   UNL     1       3.450   2.263  21.406  0.00  0.00    +0.000 OA
ATOM     24  H   UNL     1       3.442   1.291  21.488  0.00  0.00    +0.000 HD
ENDBRANCH  21  23
ENDBRANCH  20  21
ENDBRANCH  19  20
ENDBRANCH   9  19
TORSDOF 7
ENDMDL
MODEL 5
REMARK VINA RESULT:      -7.1      3.765      6.623
REMARK  Name = 
REMARK  8 active torsions:
REMARK  status: ('A' for Active; 'I' for Inactive)
REMARK    1  A    between atoms: C_1  and  C_2
REMARK    2  A    between atoms: C_2  and  C_3
REMARK    3  A    between atoms: C_3  and  C_4
REMARK    4  A    between atoms: N_6  and  C_7
REMARK    5  A    between atoms: N_15  and  C_16
REMARK    6  A    between atoms: C_16  and  C_17
REMARK    7  A    between atoms: C_17  and  C_18
REMARK    8  A    between atoms: C_18  and  O_20
REMARK                            x       y       z     vdW  Elec       q    Type
REMARK                         _______ _______ _______ _____ _____    ______ ____
ROOT
ATOM      1  C   UNL     1       2.245   7.791  18.796  0.00  0.00    +0.000 A 
ATOM      2  C   UNL     1       2.315   6.812  19.815  0.00  0.00    +0.000 A 
ATOM      3  C   UNL     1       3.242   5.767  19.771  0.00  0.00    +0.000 A 
ATOM      4  C   UNL     1       4.086   5.725  18.688  0.00  0.00    +0.000 A 
ATOM      5  C   UNL     1       4.023   6.660  17.674  0.00  0.00    +0.000 A 
ATOM      6  C   UNL     1       3.110   7.705  17.693  0.00  0.00    +0.000 A 
ATOM      7  C   UNL     1       5.045   6.300  16.689  0.00  0.00    +0.000 C 
ATOM      8  O   UNL     1       5.262   6.934  15.674  0.00  0.00    +0.000 OA
ATOM      9  N   UNL     1       5.651   5.159  17.147  0.00  0.00    +0.000 N 
ATOM     10  C   UNL     1       5.137   4.769  18.355  0.00  0.00    +0.000 C 
ATOM     11  O   UNL     1       5.441   3.814  19.043  0.00  0.00    +0.000 OA
ENDROOT
BRANCH   1  14
ATOM     12  C   UNL     1       0.821   9.473  19.962  0.00  0.00    +0.000 C 
ATOM     13  O   UNL     1       1.225   9.302  21.108  0.00  0.00    +0.000 OA
ATOM     14  N   UNL     1       1.310   8.850  18.825  0.00  0.00    +0.000 N 
ATOM     15  H   UNL     1       1.034   9.242  17.932  0.00  0.00    +0.000 HD
BRANCH  12  16
ATOM     16  C   UNL     1      -0.304  10.454  19.694  0.00  0.00    +0.000 C 
BRANCH  16  18
ATOM     17  C   UNL     1      -2.256  10.293  18.073  0.00  0.00    +0.000 C 
ATOM     18  C   UNL     1      -0.753  10.473  18.235  0.00  0.00    +0.000 C 
ENDBRANCH  16  18
ENDBRANCH  12  16
ENDBRANCH   1  14
BRANCH   9  19
ATOM     19  C   UNL     1       6.747   4.469  16.482  0.00  0.00    +0.000 C 
BRANCH  19  20
ATOM     20  C   UNL     1       6.276   3.703  15.248  0.00  0.00    +0.000 C 
BRANCH  20  21
ATOM     21  C   UNL     1       6.803   4.336  13.990  0.00  0.00    +0.000 C 
ATOM     22  O   UNL     1       6.589   3.934  12.857  0.00  0.00    +0.000 OA
BRANCH  21  23
ATOM     23  O   UNL     1       7.567   5.425  14.239  0.00  0.00    +0.000 OA
ATOM     24  H   UNL     1       8.044   5.392  15.089  0.00  0.00    +0.000 HD
ENDBRANCH  21  23
ENDBRANCH  20  21
ENDBRANCH  19  20
ENDBRANCH   9  19
TORSDOF 7
ENDMDL
MODEL 6
REMARK VINA RESULT:      -7.1      2.896      4.827
REMARK  Name = 
REMARK  8 active torsions:
REMARK  status: ('A' for Active; 'I' for Inactive)
REMARK    1  A    between atoms: C_1  and  C_2
REMARK    2  A    between atoms: C_2  and  C_3
REMARK    3  A    between atoms: C_3  and  C_4
REMARK    4  A    between atoms: N_6  and  C_7
REMARK    5  A    between atoms: N_15  and  C_16
REMARK    6  A    between atoms: C_16  and  C_17
REMARK    7  A    between atoms: C_17  and  C_18
REMARK    8  A    between atoms: C_18  and  O_20
REMARK                            x       y       z     vdW  Elec       q    Type
REMARK                         _______ _______ _______ _____ _____    ______ ____
ROOT
ATOM      1  C   UNL     1       5.846   3.885  15.414  0.00  0.00    +0.000 A 
ATOM      2  C   UNL     1       6.752   4.396  16.372  0.00  0.00    +0.000 A 
ATOM      3  C   UNL     1       6.340   4.749  17.661  0.00  0.00    +0.000 A 
ATOM      4  C   UNL     1       5.009   4.581  17.960  0.00  0.00    +0.000 A 
ATOM      5  C   UNL     1       4.106   4.100  17.034  0.00  0.00    +0.000 A 
ATOM      6  C   UNL     1       4.489   3.747  15.748  0.00  0.00    +0.000 A 
ATOM      7  C   UNL     1       2.794   4.071  17.683  0.00  0.00    +0.000 C 
ATOM      8  O   UNL     1       1.777   3.682  17.142  0.00  0.00    +0.000 OA
ATOM      9  N   UNL     1       2.971   4.556  18.953  0.00  0.00    +0.000 N 
ATOM     10  C   UNL     1       4.284   4.863  19.194  0.00  0.00    +0.000 C 
ATOM     11  O   UNL     1       4.792   5.307  20.205  0.00  0.00    +0.000 OA
ENDROOT
BRANCH   1  14
ATOM     12  C   UNL     1       6.947   4.335  13.223  0.00  0.00    +0.000 C 
ATOM     13  O   UNL     1       7.450   5.424  13.483  0.00  0.00    +0.000 OA
ATOM     14  N   UNL     1       6.247   3.529  14.106  0.00  0.00    +0.000 N 
ATOM     15  H   UNL     1       6.078   2.572  13.819  0.00  0.00    +0.000 HD
BRANCH  12  16
ATOM     16  C   UNL     1       7.081   3.752  11.829  0.00  0.00    +0.000 C 
BRANCH  16  18
ATOM     17  C   UNL     1       6.919   1.342  11.036  0.00  0.00    +0.000 C 
ATOM     18  C   UNL     1       6.173   2.549  11.588  0.00  0.00    +0.000 C 
ENDBRANCH  16  18
ENDBRANCH  12  16
ENDBRANCH   1  14
BRANCH   9  19
ATOM     19  C   UNL     1       1.923   4.676  19.956  0.00  0.00    +0.000 C 
BRANCH  19  20
ATOM     20  C   UNL     1       1.315   3.321  20.314  0.00  0.00    +0.000 C 
BRANCH  20  21
ATOM     21  C   UNL     1       2.001   2.724  21.512  0.00  0.00    +0.000 C 
ATOM     22  O   UNL     1       3.200   2.512  21.603  0.00  0.00    +0.000 OA
BRANCH  21  23
ATOM     23  O   UNL     1       1.136   2.430  22.510  0.00  0.00    +0.000 OA
ATOM     24  H   UNL     1       1.472   1.774  23.150  0.00  0.00    +0.000 HD
ENDBRANCH  21  23
ENDBRANCH  20  21
ENDBRANCH  19  20
ENDBRANCH   9  19
TORSDOF 7
ENDMDL
MODEL 7
REMARK VINA RESULT:      -7.1      3.189      5.536
REMARK  Name = 
REMARK  8 active torsions:
REMARK  status: ('A' for Active; 'I' for Inactive)
REMARK    1  A    between atoms: C_1  and  C_2
REMARK    2  A    between atoms: C_2  and  C_3
REMARK    3  A    between atoms: C_3  and  C_4
REMARK    4  A    between atoms: N_6  and  C_7
REMARK    5  A    between atoms: N_15  and  C_16
REMARK    6  A    between atoms: C_16  and  C_17
REMARK    7  A    between atoms: C_17  and  C_18
REMARK    8  A    between atoms: C_18  and  O_20
REMARK                            x       y       z     vdW  Elec       q    Type
REMARK                         _______ _______ _______ _____ _____    ______ ____
ROOT
ATOM      1  C   UNL     1       5.809   4.184  14.719  0.00  0.00    +0.000 A 
ATOM      2  C   UNL     1       6.027   5.562  14.950  0.00  0.00    +0.000 A 
ATOM      3  C   UNL     1       5.348   6.257  15.955  0.00  0.00    +0.000 A 
ATOM      4  C   UNL     1       4.450   5.544  16.712  0.00  0.00    +0.000 A 
ATOM      5  C   UNL     1       4.210   4.203  16.491  0.00  0.00    +0.000 A 
ATOM      6  C   UNL     1       4.868   3.492  15.498  0.00  0.00    +0.000 A 
ATOM      7  C   UNL     1       3.195   3.779  17.459  0.00  0.00    +0.000 C 
ATOM      8  O   UNL     1       2.768   2.644  17.540  0.00  0.00    +0.000 OA
ATOM      9  N   UNL     1       2.862   4.888  18.192  0.00  0.00    +0.000 N 
ATOM     10  C   UNL     1       3.594   5.981  17.809  0.00  0.00    +0.000 C 
ATOM     11  O   UNL     1       3.560   7.115  18.246  0.00  0.00    +0.000 OA
ENDROOT
BRANCH   1  14
ATOM     12  C   UNL     1       5.957   3.113  12.472  0.00  0.00    +0.000 C 
ATOM     13  O   UNL     1       4.880   3.480  12.015  0.00  0.00    +0.000 OA
ATOM     14  N   UNL     1       6.484   3.469  13.704  0.00  0.00    +0.000 N 
ATOM     15  H   UNL     1       7.466   3.270  13.857  0.00  0.00    +0.000 HD
BRANCH  12  16
ATOM     16  C   UNL     1       6.852   2.197  11.660  0.00  0.00    +0.000 C 
BRANCH  16  18
ATOM     17  C   UNL     1       6.220  -0.250  11.372  0.00  0.00    +0.000 C 
ATOM     18  C   UNL     1       6.078   1.169  10.838  0.00  0.00    +0.000 C 
ENDBRANCH  16  18
ENDBRANCH  12  16
ENDBRANCH   1  14
BRANCH   9  19
ATOM     19  C   UNL     1       1.902   4.910  19.286  0.00  0.00    +0.000 C 
BRANCH  19  20
ATOM     20  C   UNL     1       2.541   4.513  20.616  0.00  0.00    +0.000 C 
BRANCH  20  21
ATOM     21  C   UNL     1       1.905   3.266  21.166  0.00  0.00    +0.000 C 
ATOM     22  O   UNL     1       0.991   2.652  20.639  0.00  0.00    +0.000 OA
BRANCH  21  23
ATOM     23  O   UNL     1       2.455   2.880  22.341  0.00  0.00    +0.000 OA
ATOM     24  H   UNL     1       2.990   2.066  22.282  0.00  0.00    +0.000 HD
ENDBRANCH  21  23
ENDBRANCH  20  21
ENDBRANCH  19  20
ENDBRANCH   9  19
TORSDOF 7
ENDMDL
MODEL 8
REMARK VINA RESULT:      -7.1      2.981      4.681
REMARK  Name = 
REMARK  8 active torsions:
REMARK  status: ('A' for Active; 'I' for Inactive)
REMARK    1  A    between atoms: C_1  and  C_2
REMARK    2  A    between atoms: C_2  and  C_3
REMARK    3  A    between atoms: C_3  and  C_4
REMARK    4  A    between atoms: N_6  and  C_7
REMARK    5  A    between atoms: N_15  and  C_16
REMARK    6  A    between atoms: C_16  and  C_17
REMARK    7  A    between atoms: C_17  and  C_18
REMARK    8  A    between atoms: C_18  and  O_20
REMARK                            x       y       z     vdW  Elec       q    Type
REMARK                         _______ _______ _______ _____ _____    ______ ____
ROOT
ATOM      1  C   UNL     1       5.268   4.511  15.593  0.00  0.00    +0.000 A 
ATOM      2  C   UNL     1       5.001   5.845  15.981  0.00  0.00    +0.000 A 
ATOM      3  C   UNL     1       4.438   6.153  17.223  0.00  0.00    +0.000 A 
ATOM      4  C   UNL     1       4.150   5.099  18.058  0.00  0.00    +0.000 A 
ATOM      5  C   UNL     1       4.387   3.790  17.692  0.00  0.00    +0.000 A 
ATOM      6  C   UNL     1       4.941   3.458  16.463  0.00  0.00    +0.000 A 
ATOM      7  C   UNL     1       3.948   2.943  18.803  0.00  0.00    +0.000 C 
ATOM      8  O   UNL     1       4.032   1.731  18.806  0.00  0.00    +0.000 OA
ATOM      9  N   UNL     1       3.450   3.782  19.766  0.00  0.00    +0.000 N 
ATOM     10  C   UNL     1       3.559   5.095  19.391  0.00  0.00    +0.000 C 
ATOM     11  O   UNL     1       3.225   6.094  19.999  0.00  0.00    +0.000 OA
ENDROOT
BRANCH   1  14
ATOM     12  C   UNL     1       6.993   4.719  13.805  0.00  0.00    +0.000 C 
ATOM     13  O   UNL     1       7.787   5.448  14.390  0.00  0.00    +0.000 OA
ATOM     14  N   UNL     1       5.831   4.184  14.339  0.00  0.00    +0.000 N 
ATOM     15  H   UNL     1       5.390   3.435  13.819  0.00  0.00    +0.000 HD
BRANCH  12  16
ATOM     16  C   UNL     1       7.255   4.314  12.367  0.00  0.00    +0.000 C 
BRANCH  16  18
ATOM     17  C   UNL     1       7.137   2.046  11.222  0.00  0.00    +0.000 C 
ATOM     18  C   UNL     1       6.360   3.173  11.888  0.00  0.00    +0.000 C 
ENDBRANCH  16  18
ENDBRANCH  12  16
ENDBRANCH   1  14
BRANCH   9  19
ATOM     19  C   UNL     1       2.926   3.358  21.056  0.00  0.00    +0.000 C 
BRANCH  19  20
ATOM     20  C   UNL     1       1.722   2.430  20.906  0.00  0.00    +0.000 C 
BRANCH  20  21
ATOM     21  C   UNL     1       0.718   3.003  19.945  0.00  0.00    +0.000 C 
ATOM     22  O   UNL     1       0.329   2.457  18.925  0.00  0.00    +0.000 OA
BRANCH  21  23
ATOM     23  O   UNL     1       0.275   4.224  20.326  0.00  0.00    +0.000 OA
ATOM     24  H   UNL     1      -0.224   4.701  19.636  0.00  0.00    +0.000 HD
ENDBRANCH  21  23
ENDBRANCH  20  21
ENDBRANCH  19  20
ENDBRANCH   9  19
TORSDOF 7
ENDMDL
MODEL 9
REMARK VINA RESULT:      -6.9      2.404      3.951
REMARK  Name = 
REMARK  8 active torsions:
REMARK  status: ('A' for Active; 'I' for Inactive)
REMARK    1  A    between atoms: C_1  and  C_2
REMARK    2  A    between atoms: C_2  and  C_3
REMARK    3  A    between atoms: C_3  and  C_4
REMARK    4  A    between atoms: N_6  and  C_7
REMARK    5  A    between atoms: N_15  and  C_16
REMARK    6  A    between atoms: C_16  and  C_17
REMARK    7  A    between atoms: C_17  and  C_18
REMARK    8  A    between atoms: C_18  and  O_20
REMARK                            x       y       z     vdW  Elec       q    Type
REMARK                         _______ _______ _______ _____ _____    ______ ____
ROOT
ATOM      1  C   UNL     1       5.056   5.490  15.828  0.00  0.00    +0.000 A 
ATOM      2  C   UNL     1       5.000   6.657  16.626  0.00  0.00    +0.000 A 
ATOM      3  C   UNL     1       4.163   6.746  17.742  0.00  0.00    +0.000 A 
ATOM      4  C   UNL     1       3.389   5.649  18.034  0.00  0.00    +0.000 A 
ATOM      5  C   UNL     1       3.416   4.507  17.258  0.00  0.00    +0.000 A 
ATOM      6  C   UNL     1       4.235   4.395  16.144  0.00  0.00    +0.000 A 
ATOM      7  C   UNL     1       2.465   3.561  17.845  0.00  0.00    +0.000 C 
ATOM      8  O   UNL     1       2.258   2.447  17.406  0.00  0.00    +0.000 OA
ATOM      9  N   UNL     1       1.899   4.189  18.924  0.00  0.00    +0.000 N 
ATOM     10  C   UNL     1       2.424   5.441  19.108  0.00  0.00    +0.000 C 
ATOM     11  O   UNL     1       2.158   6.263  19.962  0.00  0.00    +0.000 OA
ENDROOT
BRANCH   1  14
ATOM     12  C   UNL     1       7.224   5.000  14.698  0.00  0.00    +0.000 C 
ATOM     13  O   UNL     1       7.842   4.552  15.658  0.00  0.00    +0.000 OA
ATOM     14  N   UNL     1       5.893   5.387  14.694  0.00  0.00    +0.000 N 
ATOM     15  H   UNL     1       5.460   5.531  13.790  0.00  0.00    +0.000 HD
BRANCH  12  16
ATOM     16  C   UNL     1       7.916   5.155  13.357  0.00  0.00    +0.000 C 
BRANCH  16  18
ATOM     17  C   UNL     1       6.721   3.285  12.116  0.00  0.00    +0.000 C 
ATOM     18  C   UNL     1       7.030   4.774  12.173  0.00  0.00    +0.000 C 
ENDBRANCH  16  18
ENDBRANCH  12  16
ENDBRANCH   1  14
BRANCH   9  19
ATOM     19  C   UNL     1       0.912   3.596  19.814  0.00  0.00    +0.000 C 
BRANCH  19  20
ATOM     20  C   UNL     1       1.450   2.352  20.518  0.00  0.00    +0.000 C 
BRANCH  20  21
ATOM     21  C   UNL     1       2.545   2.713  21.484  0.00  0.00    +0.000 C 
ATOM     22  O   UNL     1       3.586   2.092  21.632  0.00  0.00    +0.000 OA
BRANCH  21  23
ATOM     23  O   UNL     1       2.256   3.824  22.201  0.00  0.00    +0.000 OA
ATOM     24  H   UNL     1       2.696   3.863  23.071  0.00  0.00    +0.000 HD
ENDBRANCH  21  23
ENDBRANCH  20  21
ENDBRANCH  19  20
ENDBRANCH   9  19
TORSDOF 7
ENDMDL
