MODEL 1
REMARK VINA RESULT:      -7.5      0.000      0.000
REMARK  Name = 
REMARK  5 active torsions:
REMARK  status: ('A' for Active; 'I' for Inactive)
REMARK    1  A    between atoms: C_1  and  N_2
REMARK    2  A    between atoms: N_2  and  C_3
REMARK    3  A    between atoms: N_2  and  C_4
REMARK    4  A    between atoms: N_7  and  C_8
REMARK    5  A    between atoms: C_8  and  C_9
REMARK                            x       y       z     vdW  Elec       q    Type
REMARK                         _______ _______ _______ _____ _____    ______ ____
ROOT
ATOM      1  C   UNL     1       1.406  10.391  18.579  0.00  0.00    +0.000 A 
ATOM      2  C   UNL     1       0.540  10.606  19.633  0.00  0.00    +0.000 A 
ATOM      3  C   UNL     1       0.485  11.974  20.025  0.00  0.00    +0.000 A 
ATOM      4  N   UNL     1      -0.375  12.466  20.939  0.00  0.00    +0.000 NA
ATOM      5  C   UNL     1      -0.377  13.802  21.059  0.00  0.00    +0.000 A 
ATOM      6  N   UNL     1      -1.397  14.387  21.895  0.00  0.00    +0.000 N 
ATOM      7  N   UNL     1      -1.582  15.745  21.941  0.00  0.00    +0.000 NA
ATOM      8  C   UNL     1      -2.631  15.912  22.744  0.00  0.00    +0.000 A 
ATOM      9  C   UNL     1      -3.124  14.704  23.266  0.00  0.00    +0.000 A 
ATOM     10  C   UNL     1      -4.163  14.345  24.147  0.00  0.00    +0.000 A 
ATOM     11  C   UNL     1      -4.355  12.995  24.458  0.00  0.00    +0.000 A 
ATOM     12  C   UNL     1      -3.538  12.016  23.902  0.00  0.00    +0.000 A 
ATOM     13  C   UNL     1      -2.509  12.355  23.018  0.00  0.00    +0.000 A 
ATOM     14  C   UNL     1      -2.314  13.715  22.708  0.00  0.00    +0.000 A 
ATOM     15  N   UNL     1       0.470  14.638  20.418  0.00  0.00    +0.000 NA
ATOM     16  C   UNL     1       1.407  14.151  19.569  0.00  0.00    +0.000 A 
ATOM     17  N   UNL     1       2.220  15.019  18.857  0.00  0.00    +0.000 N 
ATOM     18  C   UNL     1       1.795  16.426  18.779  0.00  0.00    +0.000 C 
ATOM     19  C   UNL     1       2.531  17.055  17.581  0.00  0.00    +0.000 C 
ATOM     20  O   UNL     1       3.963  16.946  17.714  0.00  0.00    +0.000 OA
ATOM     21  C   UNL     1       4.361  15.568  17.862  0.00  0.00    +0.000 C 
ATOM     22  C   UNL     1       3.672  14.915  19.071  0.00  0.00    +0.000 C 
ATOM     23  C   UNL     1       1.382  12.768  19.324  0.00  0.00    +0.000 A 
ATOM     24  S   UNL     1       2.267  11.814  18.190  0.00  0.00    +0.000 S 
ENDROOT
BRANCH   1  25
ATOM     25  C   UNL     1       1.608   9.133  17.781  0.00  0.00    +0.000 C 
BRANCH  25  29
ATOM     26  C   UNL     1       3.452   5.374  18.858  0.00  0.00    +0.000 C 
ATOM     27  C   UNL     1       2.808   6.240  19.958  0.00  0.00    +0.000 C 
ATOM     28  C   UNL     1       1.879   7.307  19.374  0.00  0.00    +0.000 C 
ATOM     29  N   UNL     1       2.567   8.205  18.425  0.00  0.00    +0.000 NA
ATOM     30  C   UNL     1       3.265   7.433  17.378  0.00  0.00    +0.000 C 
ATOM     31  C   UNL     1       4.207   6.375  17.958  0.00  0.00    +0.000 C 
BRANCH  26  33
ATOM     32  C   UNL     1       3.168   3.627  17.161  0.00  0.00    +0.000 C 
ATOM     33  N   UNL     1       2.486   4.538  18.090  0.00  0.00    +0.000 NA
ATOM     34  C   UNL     1       1.608   3.736  18.950  0.00  0.00    +0.000 C 
ENDBRANCH  26  33
ENDBRANCH  25  29
ENDBRANCH   1  25
TORSDOF 3
ENDMDL
MODEL 2
REMARK VINA RESULT:      -7.4      3.535      4.329
REMARK  Name = 
REMARK  5 active torsions:
REMARK  status: ('A' for Active; 'I' for Inactive)
REMARK    1  A    between atoms: C_1  and  N_2
REMARK    2  A    between atoms: N_2  and  C_3
REMARK    3  A    between atoms: N_2  and  C_4
REMARK    4  A    between atoms: N_7  and  C_8
REMARK    5  A    between atoms: C_8  and  C_9
REMARK                            x       y       z     vdW  Elec       q    Type
REMARK                         _______ _______ _______ _____ _____    ______ ____
ROOT
ATOM      1  C   UNL     1       0.623   9.629  20.955  0.00  0.00    +0.000 A 
ATOM      2  C   UNL     1       0.416  10.730  21.761  0.00  0.00    +0.000 A 
ATOM      3  C   UNL     1      -0.630  11.570  21.282  0.00  0.00    +0.000 A 
ATOM      4  N   UNL     1      -1.114  12.634  21.952  0.00  0.00    +0.000 NA
ATOM      5  C   UNL     1      -2.199  13.205  21.408  0.00  0.00    +0.000 A 
ATOM      6  N   UNL     1      -2.856  14.236  22.176  0.00  0.00    +0.000 N 
ATOM      7  N   UNL     1      -4.063  14.753  21.780  0.00  0.00    +0.000 NA
ATOM      8  C   UNL     1      -4.390  15.610  22.745  0.00  0.00    +0.000 A 
ATOM      9  C   UNL     1      -3.415  15.709  23.751  0.00  0.00    +0.000 A 
ATOM     10  C   UNL     1      -3.270  16.458  24.935  0.00  0.00    +0.000 A 
ATOM     11  C   UNL     1      -2.115  16.296  25.706  0.00  0.00    +0.000 A 
ATOM     12  C   UNL     1      -1.123  15.402  25.318  0.00  0.00    +0.000 A 
ATOM     13  C   UNL     1      -1.256  14.643  24.152  0.00  0.00    +0.000 A 
ATOM     14  C   UNL     1      -2.418  14.810  23.373  0.00  0.00    +0.000 A 
ATOM     15  N   UNL     1      -2.749  12.853  20.225  0.00  0.00    +0.000 NA
ATOM     16  C   UNL     1      -2.215  11.848  19.490  0.00  0.00    +0.000 A 
ATOM     17  N   UNL     1      -2.829  11.440  18.316  0.00  0.00    +0.000 N 
ATOM     18  C   UNL     1      -4.221  11.869  18.103  0.00  0.00    +0.000 C 
ATOM     19  C   UNL     1      -4.827  10.928  17.045  0.00  0.00    +0.000 C 
ATOM     20  O   UNL     1      -4.076  10.950  15.814  0.00  0.00    +0.000 OA
ATOM     21  C   UNL     1      -2.697  10.599  16.046  0.00  0.00    +0.000 C 
ATOM     22  C   UNL     1      -2.047  11.541  17.074  0.00  0.00    +0.000 C 
ATOM     23  C   UNL     1      -1.143  11.144  20.064  0.00  0.00    +0.000 A 
ATOM     24  S   UNL     1      -0.331   9.713  19.540  0.00  0.00    +0.000 S 
ENDROOT
BRANCH   1  25
ATOM     25  C   UNL     1       1.507   8.440  21.210  0.00  0.00    +0.000 C 
BRANCH  25  29
ATOM     26  C   UNL     1       2.912   5.394  18.484  0.00  0.00    +0.000 C 
ATOM     27  C   UNL     1       2.480   6.763  17.925  0.00  0.00    +0.000 C 
ATOM     28  C   UNL     1       2.393   7.826  19.023  0.00  0.00    +0.000 C 
ATOM     29  N   UNL     1       1.459   7.454  20.105  0.00  0.00    +0.000 NA
ATOM     30  C   UNL     1       1.778   6.116  20.641  0.00  0.00    +0.000 C 
ATOM     31  C   UNL     1       1.850   5.047  19.548  0.00  0.00    +0.000 C 
BRANCH  26  33
ATOM     32  C   UNL     1       4.689   4.013  19.456  0.00  0.00    +0.000 C 
ATOM     33  N   UNL     1       4.297   5.365  19.034  0.00  0.00    +0.000 NA
ATOM     34  C   UNL     1       5.305   5.854  18.085  0.00  0.00    +0.000 C 
ENDBRANCH  26  33
ENDBRANCH  25  29
ENDBRANCH   1  25
TORSDOF 3
ENDMDL
MODEL 3
REMARK VINA RESULT:      -7.1      5.673     10.195
REMARK  Name = 
REMARK  5 active torsions:
REMARK  status: ('A' for Active; 'I' for Inactive)
REMARK    1  A    between atoms: C_1  and  N_2
REMARK    2  A    between atoms: N_2  and  C_3
REMARK    3  A    between atoms: N_2  and  C_4
REMARK    4  A    between atoms: N_7  and  C_8
REMARK    5  A    between atoms: C_8  and  C_9
REMARK                            x       y       z     vdW  Elec       q    Type
REMARK                         _______ _______ _______ _____ _____    ______ ____
ROOT
ATOM      1  C   UNL     1       4.308  15.620  20.698  0.00  0.00    +0.000 A 
ATOM      2  C   UNL     1       5.506  15.544  20.017  0.00  0.00    +0.000 A 
ATOM      3  C   UNL     1       6.490  14.792  20.719  0.00  0.00    +0.000 A 
ATOM      4  N   UNL     1       7.695  14.462  20.215  0.00  0.00    +0.000 NA
ATOM      5  C   UNL     1       8.419  13.622  20.970  0.00  0.00    +0.000 A 
ATOM      6  N   UNL     1       9.637  13.104  20.395  0.00  0.00    +0.000 N 
ATOM      7  N   UNL     1      10.349  12.113  21.022  0.00  0.00    +0.000 NA
ATOM      8  C   UNL     1      11.351  11.844  20.187  0.00  0.00    +0.000 A 
ATOM      9  C   UNL     1      11.349  12.658  19.042  0.00  0.00    +0.000 A 
ATOM     10  C   UNL     1      12.170  12.788  17.905  0.00  0.00    +0.000 A 
ATOM     11  C   UNL     1      11.854  13.753  16.943  0.00  0.00    +0.000 A 
ATOM     12  C   UNL     1      10.738  14.569  17.098  0.00  0.00    +0.000 A 
ATOM     13  C   UNL     1       9.907  14.445  18.214  0.00  0.00    +0.000 A 
ATOM     14  C   UNL     1      10.229  13.476  19.185  0.00  0.00    +0.000 A 
ATOM     15  N   UNL     1       8.067  13.189  22.201  0.00  0.00    +0.000 NA
ATOM     16  C   UNL     1       6.903  13.590  22.765  0.00  0.00    +0.000 A 
ATOM     17  N   UNL     1       6.512  13.081  23.993  0.00  0.00    +0.000 N 
ATOM     18  C   UNL     1       7.195  11.866  24.465  0.00  0.00    +0.000 C 
ATOM     19  C   UNL     1       6.295  11.229  25.541  0.00  0.00    +0.000 C 
ATOM     20  O   UNL     1       6.034  12.140  26.628  0.00  0.00    +0.000 OA
ATOM     21  C   UNL     1       5.431  13.357  26.146  0.00  0.00    +0.000 C 
ATOM     22  C   UNL     1       6.319  14.040  25.092  0.00  0.00    +0.000 C 
ATOM     23  C   UNL     1       6.056  14.383  21.973  0.00  0.00    +0.000 A 
ATOM     24  S   UNL     1       4.441  14.927  22.254  0.00  0.00    +0.000 S 
ENDROOT
BRANCH   1  25
ATOM     25  C   UNL     1       2.995  16.171  20.217  0.00  0.00    +0.000 C 
BRANCH  25  29
ATOM     26  C   UNL     1       0.542  12.846  18.948  0.00  0.00    +0.000 C 
ATOM     27  C   UNL     1       2.039  12.859  18.585  0.00  0.00    +0.000 C 
ATOM     28  C   UNL     1       2.822  13.872  19.424  0.00  0.00    +0.000 C 
ATOM     29  N   UNL     1       2.302  15.247  19.288  0.00  0.00    +0.000 NA
ATOM     30  C   UNL     1       0.852  15.294  19.559  0.00  0.00    +0.000 C 
ATOM     31  C   UNL     1       0.064  14.293  18.710  0.00  0.00    +0.000 C 
BRANCH  26  33
ATOM     32  C   UNL     1      -1.190  12.393  20.624  0.00  0.00    +0.000 C 
ATOM     33  N   UNL     1       0.250  12.373  20.332  0.00  0.00    +0.000 NA
ATOM     34  C   UNL     1       0.747  11.016  20.594  0.00  0.00    +0.000 C 
ENDBRANCH  26  33
ENDBRANCH  25  29
ENDBRANCH   1  25
TORSDOF 3
ENDMDL
MODEL 4
REMARK VINA RESULT:      -7.0      2.292      5.878
REMARK  Name = 
REMARK  5 active torsions:
REMARK  status: ('A' for Active; 'I' for Inactive)
REMARK    1  A    between atoms: C_1  and  N_2
REMARK    2  A    between atoms: N_2  and  C_3
REMARK    3  A    between atoms: N_2  and  C_4
REMARK    4  A    between atoms: N_7  and  C_8
REMARK    5  A    between atoms: C_8  and  C_9
REMARK                            x       y       z     vdW  Elec       q    Type
REMARK                         _______ _______ _______ _____ _____    ______ ____
ROOT
ATOM      1  C   UNL     1       1.454   9.762  18.192  0.00  0.00    +0.000 A 
ATOM      2  C   UNL     1       2.408  10.738  17.987  0.00  0.00    +0.000 A 
ATOM      3  C   UNL     1       2.066  11.976  18.602  0.00  0.00    +0.000 A 
ATOM      4  N   UNL     1       2.884  13.045  18.660  0.00  0.00    +0.000 NA
ATOM      5  C   UNL     1       2.442  14.062  19.414  0.00  0.00    +0.000 A 
ATOM      6  N   UNL     1       3.354  15.155  19.647  0.00  0.00    +0.000 N 
ATOM      7  N   UNL     1       3.052  16.151  20.541  0.00  0.00    +0.000 NA
ATOM      8  C   UNL     1       4.131  16.932  20.547  0.00  0.00    +0.000 A 
ATOM      9  C   UNL     1       5.126  16.505  19.651  0.00  0.00    +0.000 A 
ATOM     10  C   UNL     1       6.400  16.973  19.274  0.00  0.00    +0.000 A 
ATOM     11  C   UNL     1       7.124  16.271  18.305  0.00  0.00    +0.000 A 
ATOM     12  C   UNL     1       6.600  15.120  17.725  0.00  0.00    +0.000 A 
ATOM     13  C   UNL     1       5.343  14.636  18.096  0.00  0.00    +0.000 A 
ATOM     14  C   UNL     1       4.612  15.347  19.069  0.00  0.00    +0.000 A 
ATOM     15  N   UNL     1       1.229  14.114  20.009  0.00  0.00    +0.000 NA
ATOM     16  C   UNL     1       0.355  13.088  19.880  0.00  0.00    +0.000 A 
ATOM     17  N   UNL     1      -0.855  13.114  20.557  0.00  0.00    +0.000 N 
ATOM     18  C   UNL     1      -0.986  14.077  21.662  0.00  0.00    +0.000 C 
ATOM     19  C   UNL     1      -2.155  13.598  22.543  0.00  0.00    +0.000 C 
ATOM     20  O   UNL     1      -3.382  13.489  21.794  0.00  0.00    +0.000 OA
ATOM     21  C   UNL     1      -3.221  12.598  20.672  0.00  0.00    +0.000 C 
ATOM     22  C   UNL     1      -2.083  13.064  19.748  0.00  0.00    +0.000 C 
ATOM     23  C   UNL     1       0.809  11.951  19.191  0.00  0.00    +0.000 A 
ATOM     24  S   UNL     1       0.080  10.400  18.981  0.00  0.00    +0.000 S 
ENDROOT
BRANCH   1  25
ATOM     25  C   UNL     1       1.530   8.299  17.853  0.00  0.00    +0.000 C 
BRANCH  25  29
ATOM     26  C   UNL     1       4.622   5.312  18.307  0.00  0.00    +0.000 C 
ATOM     27  C   UNL     1       3.709   5.640  19.504  0.00  0.00    +0.000 C 
ATOM     28  C   UNL     1       2.453   6.401  19.074  0.00  0.00    +0.000 C 
ATOM     29  N   UNL     1       2.764   7.662  18.372  0.00  0.00    +0.000 NA
ATOM     30  C   UNL     1       3.692   7.428  17.249  0.00  0.00    +0.000 C 
ATOM     31  C   UNL     1       4.957   6.681  17.679  0.00  0.00    +0.000 C 
BRANCH  26  33
ATOM     32  C   UNL     1       4.929   4.113  16.191  0.00  0.00    +0.000 C 
ATOM     33  N   UNL     1       4.025   4.366  17.321  0.00  0.00    +0.000 NA
ATOM     34  C   UNL     1       3.663   3.071  17.912  0.00  0.00    +0.000 C 
ENDBRANCH  26  33
ENDBRANCH  25  29
ENDBRANCH   1  25
TORSDOF 3
ENDMDL
MODEL 5
REMARK VINA RESULT:      -6.9      1.323      1.346
REMARK  Name = 
REMARK  5 active torsions:
REMARK  status: ('A' for Active; 'I' for Inactive)
REMARK    1  A    between atoms: C_1  and  N_2
REMARK    2  A    between atoms: N_2  and  C_3
REMARK    3  A    between atoms: N_2  and  C_4
REMARK    4  A    between atoms: N_7  and  C_8
REMARK    5  A    between atoms: C_8  and  C_9
REMARK                            x       y       z     vdW  Elec       q    Type
REMARK                         _______ _______ _______ _____ _____    ______ ____
ROOT
ATOM      1  C   UNL     1       1.114  10.054  18.405  0.00  0.00    +0.000 A 
ATOM      2  C   UNL     1       0.008  10.445  19.132  0.00  0.00    +0.000 A 
ATOM      3  C   UNL     1       0.011  11.838  19.429  0.00  0.00    +0.000 A 
ATOM      4  N   UNL     1      -1.013  12.491  20.012  0.00  0.00    +0.000 NA
ATOM      5  C   UNL     1      -0.881  13.824  20.068  0.00  0.00    +0.000 A 
ATOM      6  N   UNL     1      -2.022  14.581  20.524  0.00  0.00    +0.000 N 
ATOM      7  N   UNL     1      -2.038  15.951  20.452  0.00  0.00    +0.000 NA
ATOM      8  C   UNL     1      -3.249  16.293  20.886  0.00  0.00    +0.000 A 
ATOM      9  C   UNL     1      -4.025  15.191  21.284  0.00  0.00    +0.000 A 
ATOM     10  C   UNL     1      -5.317  15.017  21.817  0.00  0.00    +0.000 A 
ATOM     11  C   UNL     1      -5.764  13.725  22.112  0.00  0.00    +0.000 A 
ATOM     12  C   UNL     1      -4.949  12.622  21.876  0.00  0.00    +0.000 A 
ATOM     13  C   UNL     1      -3.669  12.777  21.338  0.00  0.00    +0.000 A 
ATOM     14  C   UNL     1      -3.218  14.079  21.045  0.00  0.00    +0.000 A 
ATOM     15  N   UNL     1       0.218  14.511  19.683  0.00  0.00    +0.000 NA
ATOM     16  C   UNL     1       1.297  13.860  19.185  0.00  0.00    +0.000 A 
ATOM     17  N   UNL     1       2.389  14.575  18.720  0.00  0.00    +0.000 N 
ATOM     18  C   UNL     1       2.189  16.009  18.455  0.00  0.00    +0.000 C 
ATOM     19  C   UNL     1       3.325  16.458  17.515  0.00  0.00    +0.000 C 
ATOM     20  O   UNL     1       4.624  16.205  18.085  0.00  0.00    +0.000 OA
ATOM     21  C   UNL     1       4.782  14.809  18.408  0.00  0.00    +0.000 C 
ATOM     22  C   UNL     1       3.684  14.332  19.374  0.00  0.00    +0.000 C 
ATOM     23  C   UNL     1       1.171  12.472  19.003  0.00  0.00    +0.000 A 
ATOM     24  S   UNL     1       2.227  11.340  18.238  0.00  0.00    +0.000 S 
ENDROOT
BRANCH   1  25
ATOM     25  C   UNL     1       1.385   8.722  17.763  0.00  0.00    +0.000 C 
BRANCH  25  29
ATOM     26  C   UNL     1       4.218   5.547  18.526  0.00  0.00    +0.000 C 
ATOM     27  C   UNL     1       3.306   6.034  19.669  0.00  0.00    +0.000 C 
ATOM     28  C   UNL     1       2.125   6.856  19.146  0.00  0.00    +0.000 C 
ATOM     29  N   UNL     1       2.552   8.033  18.364  0.00  0.00    +0.000 NA
ATOM     30  C   UNL     1       3.485   7.644  17.289  0.00  0.00    +0.000 C 
ATOM     31  C   UNL     1       4.676   6.835  17.810  0.00  0.00    +0.000 C 
BRANCH  26  33
ATOM     32  C   UNL     1       4.504   4.112  16.559  0.00  0.00    +0.000 C 
ATOM     33  N   UNL     1       3.572   4.579  17.595  0.00  0.00    +0.000 NA
ATOM     34  C   UNL     1       3.025   3.400  18.278  0.00  0.00    +0.000 C 
ENDBRANCH  26  33
ENDBRANCH  25  29
ENDBRANCH   1  25
TORSDOF 3
ENDMDL
MODEL 6
REMARK VINA RESULT:      -6.8      1.289      1.327
REMARK  Name = 
REMARK  5 active torsions:
REMARK  status: ('A' for Active; 'I' for Inactive)
REMARK    1  A    between atoms: C_1  and  N_2
REMARK    2  A    between atoms: N_2  and  C_3
REMARK    3  A    between atoms: N_2  and  C_4
REMARK    4  A    between atoms: N_7  and  C_8
REMARK    5  A    between atoms: C_8  and  C_9
REMARK                            x       y       z     vdW  Elec       q    Type
REMARK                         _______ _______ _______ _____ _____    ______ ____
ROOT
ATOM      1  C   UNL     1       1.184  10.322  18.488  0.00  0.00    +0.000 A 
ATOM      2  C   UNL     1       0.061  10.673  19.211  0.00  0.00    +0.000 A 
ATOM      3  C   UNL     1       0.014  12.064  19.510  0.00  0.00    +0.000 A 
ATOM      4  N   UNL     1      -1.034  12.680  20.090  0.00  0.00    +0.000 NA
ATOM      5  C   UNL     1      -0.949  14.018  20.148  0.00  0.00    +0.000 A 
ATOM      6  N   UNL     1      -2.118  14.733  20.600  0.00  0.00    +0.000 N 
ATOM      7  N   UNL     1      -2.182  16.101  20.530  0.00  0.00    +0.000 NA
ATOM      8  C   UNL     1      -3.406  16.400  20.960  0.00  0.00    +0.000 A 
ATOM      9  C   UNL     1      -4.145  15.271  21.353  0.00  0.00    +0.000 A 
ATOM     10  C   UNL     1      -5.432  15.051  21.881  0.00  0.00    +0.000 A 
ATOM     11  C   UNL     1      -5.834  13.744  22.173  0.00  0.00    +0.000 A 
ATOM     12  C   UNL     1      -4.980  12.671  21.939  0.00  0.00    +0.000 A 
ATOM     13  C   UNL     1      -3.704  12.871  21.406  0.00  0.00    +0.000 A 
ATOM     14  C   UNL     1      -3.298  14.189  21.116  0.00  0.00    +0.000 A 
ATOM     15  N   UNL     1       0.127  14.742  19.768  0.00  0.00    +0.000 NA
ATOM     16  C   UNL     1       1.229  14.130  19.274  0.00  0.00    +0.000 A 
ATOM     17  N   UNL     1       2.297  14.884  18.814  0.00  0.00    +0.000 N 
ATOM     18  C   UNL     1       2.049  16.310  18.550  0.00  0.00    +0.000 C 
ATOM     19  C   UNL     1       3.171  16.800  17.615  0.00  0.00    +0.000 C 
ATOM     20  O   UNL     1       4.477  16.593  18.190  0.00  0.00    +0.000 OA
ATOM     21  C   UNL     1       4.682  15.203  18.512  0.00  0.00    +0.000 C 
ATOM     22  C   UNL     1       3.598  14.686  19.473  0.00  0.00    +0.000 C 
ATOM     23  C   UNL     1       1.153  12.740  19.090  0.00  0.00    +0.000 A 
ATOM     24  S   UNL     1       2.250  11.647  18.328  0.00  0.00    +0.000 S 
ENDROOT
BRANCH   1  25
ATOM     25  C   UNL     1       1.503   9.001  17.845  0.00  0.00    +0.000 C 
BRANCH  25  29
ATOM     26  C   UNL     1       2.820   5.383  19.810  0.00  0.00    +0.000 C 
ATOM     27  C   UNL     1       2.275   6.546  20.660  0.00  0.00    +0.000 C 
ATOM     28  C   UNL     1       1.504   7.561  19.813  0.00  0.00    +0.000 C 
ATOM     29  N   UNL     1       2.321   8.130  18.723  0.00  0.00    +0.000 NA
ATOM     30  C   UNL     1       2.930   7.063  17.905  0.00  0.00    +0.000 C 
ATOM     31  C   UNL     1       3.715   6.054  18.748  0.00  0.00    +0.000 C 
BRANCH  26  33
ATOM     32  C   UNL     1       2.341   3.491  18.325  0.00  0.00    +0.000 C 
ATOM     33  N   UNL     1       1.766   4.521  19.201  0.00  0.00    +0.000 NA
ATOM     34  C   UNL     1       0.923   3.850  20.198  0.00  0.00    +0.000 C 
ENDBRANCH  26  33
ENDBRANCH  25  29
ENDBRANCH   1  25
TORSDOF 3
ENDMDL
MODEL 7
REMARK VINA RESULT:      -6.8      5.906     10.887
REMARK  Name = 
REMARK  5 active torsions:
REMARK  status: ('A' for Active; 'I' for Inactive)
REMARK    1  A    between atoms: C_1  and  N_2
REMARK    2  A    between atoms: N_2  and  C_3
REMARK    3  A    between atoms: N_2  and  C_4
REMARK    4  A    between atoms: N_7  and  C_8
REMARK    5  A    between atoms: C_8  and  C_9
REMARK                            x       y       z     vdW  Elec       q    Type
REMARK                         _______ _______ _______ _____ _____    ______ ____
ROOT
ATOM      1  C   UNL     1       4.762  16.459  21.478  0.00  0.00    +0.000 A 
ATOM      2  C   UNL     1       5.864  16.157  20.704  0.00  0.00    +0.000 A 
ATOM      3  C   UNL     1       6.623  15.074  21.231  0.00  0.00    +0.000 A 
ATOM      4  N   UNL     1       7.668  14.503  20.600  0.00  0.00    +0.000 NA
ATOM      5  C   UNL     1       8.154  13.399  21.187  0.00  0.00    +0.000 A 
ATOM      6  N   UNL     1       9.156  12.655  20.462  0.00  0.00    +0.000 N 
ATOM      7  N   UNL     1       9.584  11.428  20.904  0.00  0.00    +0.000 NA
ATOM      8  C   UNL     1      10.439  11.018  19.969  0.00  0.00    +0.000 A 
ATOM      9  C   UNL     1      10.623  11.955  18.939  0.00  0.00    +0.000 A 
ATOM     10  C   UNL     1      11.406  12.016  17.769  0.00  0.00    +0.000 A 
ATOM     11  C   UNL     1      11.336  13.157  16.962  0.00  0.00    +0.000 A 
ATOM     12  C   UNL     1      10.501  14.216  17.302  0.00  0.00    +0.000 A 
ATOM     13  C   UNL     1       9.710  14.167  18.453  0.00  0.00    +0.000 A 
ATOM     14  C   UNL     1       9.784  13.019  19.267  0.00  0.00    +0.000 A 
ATOM     15  N   UNL     1       7.741  12.908  22.377  0.00  0.00    +0.000 NA
ATOM     16  C   UNL     1       6.757  13.527  23.072  0.00  0.00    +0.000 A 
ATOM     17  N   UNL     1       6.285  12.975  24.253  0.00  0.00    +0.000 N 
ATOM     18  C   UNL     1       6.617  11.565  24.515  0.00  0.00    +0.000 C 
ATOM     19  C   UNL     1       5.616  11.053  25.567  0.00  0.00    +0.000 C 
ATOM     20  O   UNL     1       5.661  11.836  26.777  0.00  0.00    +0.000 OA
ATOM     21  C   UNL     1       5.405  13.227  26.498  0.00  0.00    +0.000 C 
ATOM     22  C   UNL     1       6.410  13.785  25.475  0.00  0.00    +0.000 C 
ATOM     23  C   UNL     1       6.138  14.625  22.453  0.00  0.00    +0.000 A 
ATOM     24  S   UNL     1       4.752  15.543  22.920  0.00  0.00    +0.000 S 
ENDROOT
BRANCH   1  25
ATOM     25  C   UNL     1       3.639  17.410  21.170  0.00  0.00    +0.000 C 
BRANCH  25  29
ATOM     26  C   UNL     1       0.206  16.275  18.800  0.00  0.00    +0.000 C 
ATOM     27  C   UNL     1       1.349  15.262  19.003  0.00  0.00    +0.000 C 
ATOM     28  C   UNL     1       2.270  15.664  20.158  0.00  0.00    +0.000 C 
ATOM     29  N   UNL     1       2.867  17.002  19.972  0.00  0.00    +0.000 NA
ATOM     30  C   UNL     1       1.826  18.013  19.705  0.00  0.00    +0.000 C 
ATOM     31  C   UNL     1       0.912  17.622  18.540  0.00  0.00    +0.000 C 
BRANCH  26  33
ATOM     32  C   UNL     1      -1.856  17.285  19.659  0.00  0.00    +0.000 C 
ATOM     33  N   UNL     1      -0.757  16.349  19.935  0.00  0.00    +0.000 NA
ATOM     34  C   UNL     1      -1.345  15.048  20.278  0.00  0.00    +0.000 C 
ENDBRANCH  26  33
ENDBRANCH  25  29
ENDBRANCH   1  25
TORSDOF 3
ENDMDL
MODEL 8
REMARK VINA RESULT:      -6.6      1.882      2.259
REMARK  Name = 
REMARK  5 active torsions:
REMARK  status: ('A' for Active; 'I' for Inactive)
REMARK    1  A    between atoms: C_1  and  N_2
REMARK    2  A    between atoms: N_2  and  C_3
REMARK    3  A    between atoms: N_2  and  C_4
REMARK    4  A    between atoms: N_7  and  C_8
REMARK    5  A    between atoms: C_8  and  C_9
REMARK                            x       y       z     vdW  Elec       q    Type
REMARK                         _______ _______ _______ _____ _____    ______ ____
ROOT
ATOM      1  C   UNL     1      -0.398  11.223  18.946  0.00  0.00    +0.000 A 
ATOM      2  C   UNL     1      -1.387  11.432  19.886  0.00  0.00    +0.000 A 
ATOM      3  C   UNL     1      -1.572  12.811  20.189  0.00  0.00    +0.000 A 
ATOM      4  N   UNL     1      -2.557  13.289  20.974  0.00  0.00    +0.000 NA
ATOM      5  C   UNL     1      -2.656  14.626  21.015  0.00  0.00    +0.000 A 
ATOM      6  N   UNL     1      -3.799  15.181  21.700  0.00  0.00    +0.000 N 
ATOM      7  N   UNL     1      -4.073  16.524  21.646  0.00  0.00    +0.000 NA
ATOM      8  C   UNL     1      -5.213  16.659  22.319  0.00  0.00    +0.000 A 
ATOM      9  C   UNL     1      -5.684  15.449  22.856  0.00  0.00    +0.000 A 
ATOM     10  C   UNL     1      -6.790  15.065  23.638  0.00  0.00    +0.000 A 
ATOM     11  C   UNL     1      -6.930  13.723  24.006  0.00  0.00    +0.000 A 
ATOM     12  C   UNL     1      -5.997  12.775  23.600  0.00  0.00    +0.000 A 
ATOM     13  C   UNL     1      -4.900  13.138  22.814  0.00  0.00    +0.000 A 
ATOM     14  C   UNL     1      -4.757  14.491  22.448  0.00  0.00    +0.000 A 
ATOM     15  N   UNL     1      -1.797  15.484  20.421  0.00  0.00    +0.000 NA
ATOM     16  C   UNL     1      -0.743  15.020  19.708  0.00  0.00    +0.000 A 
ATOM     17  N   UNL     1       0.088  15.904  19.038  0.00  0.00    +0.000 N 
ATOM     18  C   UNL     1      -0.413  17.273  18.833  0.00  0.00    +0.000 C 
ATOM     19  C   UNL     1       0.411  17.889  17.687  0.00  0.00    +0.000 C 
ATOM     20  O   UNL     1       1.823  17.885  17.979  0.00  0.00    +0.000 OA
ATOM     21  C   UNL     1       2.288  16.548  18.249  0.00  0.00    +0.000 C 
ATOM     22  C   UNL     1       1.510  15.911  19.414  0.00  0.00    +0.000 C 
ATOM     23  C   UNL     1      -0.654  13.628  19.543  0.00  0.00    +0.000 A 
ATOM     24  S   UNL     1       0.411  12.680  18.569  0.00  0.00    +0.000 S 
ENDROOT
BRANCH   1  25
ATOM     25  C   UNL     1      -0.029   9.942  18.250  0.00  0.00    +0.000 C 
BRANCH  25  29
ATOM     26  C   UNL     1       2.596   6.773  19.572  0.00  0.00    +0.000 C 
ATOM     27  C   UNL     1       2.012   7.750  20.610  0.00  0.00    +0.000 C 
ATOM     28  C   UNL     1       0.825   8.537  20.050  0.00  0.00    +0.000 C 
ATOM     29  N   UNL     1       1.173   9.306  18.838  0.00  0.00    +0.000 NA
ATOM     30  C   UNL     1       1.802   8.439  17.823  0.00  0.00    +0.000 C 
ATOM     31  C   UNL     1       2.999   7.662  18.376  0.00  0.00    +0.000 C 
BRANCH  26  33
ATOM     32  C   UNL     1       2.210   4.882  18.060  0.00  0.00    +0.000 C 
ATOM     33  N   UNL     1       1.672   5.673  19.175  0.00  0.00    +0.000 NA
ATOM     34  C   UNL     1       1.364   4.753  20.277  0.00  0.00    +0.000 C 
ENDBRANCH  26  33
ENDBRANCH  25  29
ENDBRANCH   1  25
TORSDOF 3
ENDMDL
MODEL 9
REMARK VINA RESULT:      -6.6      2.959      7.195
REMARK  Name = 
REMARK  5 active torsions:
REMARK  status: ('A' for Active; 'I' for Inactive)
REMARK    1  A    between atoms: C_1  and  N_2
REMARK    2  A    between atoms: N_2  and  C_3
REMARK    3  A    between atoms: N_2  and  C_4
REMARK    4  A    between atoms: N_7  and  C_8
REMARK    5  A    between atoms: C_8  and  C_9
REMARK                            x       y       z     vdW  Elec       q    Type
REMARK                         _______ _______ _______ _____ _____    ______ ____
ROOT
ATOM      1  C   UNL     1       2.750  14.630  18.221  0.00  0.00    +0.000 A 
ATOM      2  C   UNL     1       1.537  15.087  18.696  0.00  0.00    +0.000 A 
ATOM      3  C   UNL     1       0.710  14.037  19.186  0.00  0.00    +0.000 A 
ATOM      4  N   UNL     1      -0.464  14.230  19.818  0.00  0.00    +0.000 NA
ATOM      5  C   UNL     1      -1.019  13.126  20.340  0.00  0.00    +0.000 A 
ATOM      6  N   UNL     1      -2.185  13.305  21.173  0.00  0.00    +0.000 N 
ATOM      7  N   UNL     1      -2.714  12.258  21.883  0.00  0.00    +0.000 NA
ATOM      8  C   UNL     1      -3.715  12.798  22.575  0.00  0.00    +0.000 A 
ATOM      9  C   UNL     1      -3.893  14.167  22.313  0.00  0.00    +0.000 A 
ATOM     10  C   UNL     1      -4.788  15.162  22.751  0.00  0.00    +0.000 A 
ATOM     11  C   UNL     1      -4.665  16.459  22.245  0.00  0.00    +0.000 A 
ATOM     12  C   UNL     1      -3.667  16.771  21.327  0.00  0.00    +0.000 A 
ATOM     13  C   UNL     1      -2.764  15.798  20.891  0.00  0.00    +0.000 A 
ATOM     14  C   UNL     1      -2.891  14.490  21.398  0.00  0.00    +0.000 A 
ATOM     15  N   UNL     1      -0.540  11.871  20.186  0.00  0.00    +0.000 NA
ATOM     16  C   UNL     1       0.588  11.649  19.470  0.00  0.00    +0.000 A 
ATOM     17  N   UNL     1       1.115  10.370  19.381  0.00  0.00    +0.000 N 
ATOM     18  C   UNL     1       0.637   9.377  20.355  0.00  0.00    +0.000 C 
ATOM     19  C   UNL     1       1.677   8.241  20.392  0.00  0.00    +0.000 C 
ATOM     20  O   UNL     1       1.871   7.649  19.092  0.00  0.00    +0.000 OA
ATOM     21  C   UNL     1       2.270   8.645  18.129  0.00  0.00    +0.000 C 
ATOM     22  C   UNL     1       1.236   9.780  18.038  0.00  0.00    +0.000 C 
ATOM     23  C   UNL     1       1.269  12.781  18.992  0.00  0.00    +0.000 A 
ATOM     24  S   UNL     1       2.805  12.922  18.217  0.00  0.00    +0.000 S 
ENDROOT
BRANCH   1  25
ATOM     25  C   UNL     1       3.944  15.433  17.786  0.00  0.00    +0.000 C 
BRANCH  25  29
ATOM     26  C   UNL     1       7.993  15.838  19.246  0.00  0.00    +0.000 C 
ATOM     27  C   UNL     1       7.520  14.475  18.705  0.00  0.00    +0.000 C 
ATOM     28  C   UNL     1       6.234  14.601  17.885  0.00  0.00    +0.000 C 
ATOM     29  N   UNL     1       5.125  15.203  18.652  0.00  0.00    +0.000 NA
ATOM     30  C   UNL     1       5.534  16.486  19.256  0.00  0.00    +0.000 C 
ATOM     31  C   UNL     1       6.811  16.360  20.091  0.00  0.00    +0.000 C 
BRANCH  26  33
ATOM     32  C   UNL     1       8.774  18.111  18.761  0.00  0.00    +0.000 C 
ATOM     33  N   UNL     1       8.408  16.807  18.192  0.00  0.00    +0.000 NA
ATOM     34  C   UNL     1       9.538  16.331  17.385  0.00  0.00    +0.000 C 
ENDBRANCH  26  33
ENDBRANCH  25  29
ENDBRANCH   1  25
TORSDOF 3
ENDMDL
