MODEL 1
REMARK VINA RESULT:      -8.2      0.000      0.000
REMARK  Name = 
REMARK  5 active torsions:
REMARK  status: ('A' for Active; 'I' for Inactive)
REMARK    1  A    between atoms: C_2  and  C_3
REMARK    2  A    between atoms: N_5  and  C_6
REMARK    3  A    between atoms: C_10  and  O_11
REMARK    4  A    between atoms: O_11  and  C_12
REMARK    5  A    between atoms: N_19  and  C_20
REMARK                            x       y       z     vdW  Elec       q    Type
REMARK                         _______ _______ _______ _____ _____    ______ ____
ROOT
ATOM      1  C   UNL     1       2.778   5.280  18.447  0.00  0.00    +0.000 A 
ATOM      2  N   UNL     1       2.229   6.482  18.643  0.00  0.00    +0.000 NA
ATOM      3  C   UNL     1       1.738   6.771  19.845  0.00  0.00    +0.000 A 
ATOM      4  N   UNL     1       1.213   8.038  20.086  0.00  0.00    +0.000 N 
ATOM      5  C   UNL     1       1.421   9.165  19.373  0.00  0.00    +0.000 A 
ATOM      6  C   UNL     1       1.799   9.235  18.008  0.00  0.00    +0.000 A 
ATOM      7  C   UNL     1       2.016  10.563  17.744  0.00  0.00    +0.000 A 
ATOM      8  N   UNL     1       1.750  11.207  18.912  0.00  0.00    +0.000 N 
ATOM      9  C   UNL     1       1.954  12.609  19.171  0.00  0.00    +0.000 C 
ATOM     10  N   UNL     1       1.326  10.393  19.898  0.00  0.00    +0.000 NA
ATOM     11  N   UNL     1       1.748   5.888  20.851  0.00  0.00    +0.000 NA
ATOM     12  C   UNL     1       2.344   4.684  20.645  0.00  0.00    +0.000 A 
ATOM     13  C   UNL     1       2.927   4.333  19.437  0.00  0.00    +0.000 A 
ATOM     14  C   UNL     1       3.596   3.030  19.136  0.00  0.00    +0.000 C 
ATOM     15  S   UNL     1       4.078   2.057  20.584  0.00  0.00    +0.000 S 
ATOM     16  C   UNL     1       2.559   2.302  21.539  0.00  0.00    +0.000 C 
ATOM     17  C   UNL     1       2.370   3.779  21.851  0.00  0.00    +0.000 C 
ATOM     18  H   UNL     1       0.993   8.137  21.067  0.00  0.00    +0.000 HD
ENDROOT
BRANCH   1  19
ATOM     19  O   UNL     1       3.258   4.992  17.178  0.00  0.00    +0.000 OA
BRANCH  19  24
ATOM     20  C   UNL     1       6.552   6.669  16.760  0.00  0.00    +0.000 A 
ATOM     21  C   UNL     1       7.222   5.645  16.086  0.00  0.00    +0.000 A 
ATOM     22  C   UNL     1       6.583   4.429  15.818  0.00  0.00    +0.000 A 
ATOM     23  C   UNL     1       5.264   4.235  16.219  0.00  0.00    +0.000 A 
ATOM     24  C   UNL     1       4.587   5.245  16.901  0.00  0.00    +0.000 A 
ATOM     25  C   UNL     1       5.234   6.461  17.170  0.00  0.00    +0.000 A 
BRANCH  20  28
ATOM     26  C   UNL     1       8.039   8.156  18.072  0.00  0.00    +0.000 C 
ATOM     27  O   UNL     1       8.478   7.320  18.859  0.00  0.00    +0.000 OA
ATOM     28  N   UNL     1       7.156   7.917  17.041  0.00  0.00    +0.000 N 
ATOM     29  H   UNL     1       6.982   8.662  16.377  0.00  0.00    +0.000 HD
BRANCH  26  31
ATOM     30  C   UNL     1       9.245   9.945  19.205  0.00  0.00    +0.000 C 
ATOM     31  C   UNL     1       8.499   9.567  18.154  0.00  0.00    +0.000 C 
ENDBRANCH  26  31
ENDBRANCH  20  28
ENDBRANCH  19  24
ENDBRANCH   1  19
TORSDOF 4
ENDMDL
MODEL 2
REMARK VINA RESULT:      -7.5      4.218      7.725
REMARK  Name = 
REMARK  5 active torsions:
REMARK  status: ('A' for Active; 'I' for Inactive)
REMARK    1  A    between atoms: C_2  and  C_3
REMARK    2  A    between atoms: N_5  and  C_6
REMARK    3  A    between atoms: C_10  and  O_11
REMARK    4  A    between atoms: O_11  and  C_12
REMARK    5  A    between atoms: N_19  and  C_20
REMARK                            x       y       z     vdW  Elec       q    Type
REMARK                         _______ _______ _______ _____ _____    ______ ____
ROOT
ATOM      1  C   UNL     1       0.389  11.480  19.790  0.00  0.00    +0.000 A 
ATOM      2  N   UNL     1      -0.601  11.390  18.897  0.00  0.00    +0.000 NA
ATOM      3  C   UNL     1      -0.969  12.487  18.241  0.00  0.00    +0.000 A 
ATOM      4  N   UNL     1      -1.960  12.404  17.266  0.00  0.00    +0.000 N 
ATOM      5  C   UNL     1      -2.396  11.298  16.627  0.00  0.00    +0.000 A 
ATOM      6  C   UNL     1      -2.314   9.966  17.108  0.00  0.00    +0.000 A 
ATOM      7  C   UNL     1      -2.760   9.168  16.086  0.00  0.00    +0.000 A 
ATOM      8  N   UNL     1      -3.095  10.024  15.084  0.00  0.00    +0.000 N 
ATOM      9  C   UNL     1      -3.502   9.654  13.754  0.00  0.00    +0.000 C 
ATOM     10  N   UNL     1      -2.945  11.324  15.407  0.00  0.00    +0.000 NA
ATOM     11  N   UNL     1      -0.403  13.679  18.467  0.00  0.00    +0.000 NA
ATOM     12  C   UNL     1       0.628  13.744  19.352  0.00  0.00    +0.000 A 
ATOM     13  C   UNL     1       1.103  12.633  20.032  0.00  0.00    +0.000 A 
ATOM     14  C   UNL     1       2.227  12.629  21.019  0.00  0.00    +0.000 C 
ATOM     15  S   UNL     1       3.319  14.070  20.952  0.00  0.00    +0.000 S 
ATOM     16  C   UNL     1       2.027  15.327  20.785  0.00  0.00    +0.000 C 
ATOM     17  C   UNL     1       1.249  15.110  19.496  0.00  0.00    +0.000 C 
ATOM     18  H   UNL     1      -2.040  13.287  16.782  0.00  0.00    +0.000 HD
ENDROOT
BRANCH   1  19
ATOM     19  O   UNL     1       0.736  10.329  20.481  0.00  0.00    +0.000 OA
BRANCH  19  24
ATOM     20  C   UNL     1       2.280   7.065  19.589  0.00  0.00    +0.000 A 
ATOM     21  C   UNL     1       2.637   7.357  18.270  0.00  0.00    +0.000 A 
ATOM     22  C   UNL     1       2.333   8.603  17.709  0.00  0.00    +0.000 A 
ATOM     23  C   UNL     1       1.675   9.565  18.468  0.00  0.00    +0.000 A 
ATOM     24  C   UNL     1       1.304   9.283  19.782  0.00  0.00    +0.000 A 
ATOM     25  C   UNL     1       1.608   8.031  20.340  0.00  0.00    +0.000 A 
BRANCH  20  28
ATOM     26  C   UNL     1       2.151   4.594  19.745  0.00  0.00    +0.000 C 
ATOM     27  O   UNL     1       1.505   4.383  18.720  0.00  0.00    +0.000 OA
ATOM     28  N   UNL     1       2.576   5.824  20.200  0.00  0.00    +0.000 N 
ATOM     29  H   UNL     1       3.220   5.848  20.981  0.00  0.00    +0.000 HD
BRANCH  26  31
ATOM     30  C   UNL     1       1.859   3.144  21.681  0.00  0.00    +0.000 C 
ATOM     31  C   UNL     1       2.585   3.455  20.595  0.00  0.00    +0.000 C 
ENDBRANCH  26  31
ENDBRANCH  20  28
ENDBRANCH  19  24
ENDBRANCH   1  19
TORSDOF 4
ENDMDL
MODEL 3
REMARK VINA RESULT:      -7.4      5.492      9.463
REMARK  Name = 
REMARK  5 active torsions:
REMARK  status: ('A' for Active; 'I' for Inactive)
REMARK    1  A    between atoms: C_2  and  C_3
REMARK    2  A    between atoms: N_5  and  C_6
REMARK    3  A    between atoms: C_10  and  O_11
REMARK    4  A    between atoms: O_11  and  C_12
REMARK    5  A    between atoms: N_19  and  C_20
REMARK                            x       y       z     vdW  Elec       q    Type
REMARK                         _______ _______ _______ _____ _____    ______ ____
ROOT
ATOM      1  C   UNL     1      -0.049  10.647  19.748  0.00  0.00    +0.000 A 
ATOM      2  N   UNL     1       0.772   9.594  19.791  0.00  0.00    +0.000 NA
ATOM      3  C   UNL     1       0.955   8.976  20.954  0.00  0.00    +0.000 A 
ATOM      4  N   UNL     1       1.764   7.842  21.009  0.00  0.00    +0.000 N 
ATOM      5  C   UNL     1       2.145   7.051  19.984  0.00  0.00    +0.000 A 
ATOM      6  C   UNL     1       2.227   7.431  18.620  0.00  0.00    +0.000 A 
ATOM      7  C   UNL     1       2.533   6.287  17.929  0.00  0.00    +0.000 A 
ATOM      8  N   UNL     1       2.637   5.315  18.874  0.00  0.00    +0.000 N 
ATOM      9  C   UNL     1       2.825   3.909  18.626  0.00  0.00    +0.000 C 
ATOM     10  N   UNL     1       2.469   5.762  20.134  0.00  0.00    +0.000 NA
ATOM     11  N   UNL     1       0.369   9.390  22.084  0.00  0.00    +0.000 NA
ATOM     12  C   UNL     1      -0.493  10.440  22.014  0.00  0.00    +0.000 A 
ATOM     13  C   UNL     1      -0.777  11.098  20.827  0.00  0.00    +0.000 A 
ATOM     14  C   UNL     1      -1.708  12.259  20.674  0.00  0.00    +0.000 C 
ATOM     15  S   UNL     1      -2.877  12.495  22.035  0.00  0.00    +0.000 S 
ATOM     16  C   UNL     1      -1.710  12.212  23.390  0.00  0.00    +0.000 C 
ATOM     17  C   UNL     1      -1.159  10.796  23.318  0.00  0.00    +0.000 C 
ATOM     18  H   UNL     1       1.706   7.425  21.927  0.00  0.00    +0.000 HD
ENDROOT
BRANCH   1  19
ATOM     19  O   UNL     1      -0.202  11.292  18.530  0.00  0.00    +0.000 OA
BRANCH  19  24
ATOM     20  C   UNL     1      -3.556  11.357  16.921  0.00  0.00    +0.000 A 
ATOM     21  C   UNL     1      -3.509  10.109  16.294  0.00  0.00    +0.000 A 
ATOM     22  C   UNL     1      -2.370   9.302  16.394  0.00  0.00    +0.000 A 
ATOM     23  C   UNL     1      -1.272   9.739  17.129  0.00  0.00    +0.000 A 
ATOM     24  C   UNL     1      -1.301  10.986  17.752  0.00  0.00    +0.000 A 
ATOM     25  C   UNL     1      -2.445  11.793  17.646  0.00  0.00    +0.000 A 
BRANCH  20  28
ATOM     26  C   UNL     1      -5.894  11.960  17.482  0.00  0.00    +0.000 C 
ATOM     27  O   UNL     1      -6.146  11.019  18.232  0.00  0.00    +0.000 OA
ATOM     28  N   UNL     1      -4.690  12.199  16.855  0.00  0.00    +0.000 N 
ATOM     29  H   UNL     1      -4.567  13.084  16.377  0.00  0.00    +0.000 HD
BRANCH  26  31
ATOM     30  C   UNL     1      -7.792  13.311  18.197  0.00  0.00    +0.000 C 
ATOM     31  C   UNL     1      -6.925  12.998  17.220  0.00  0.00    +0.000 C 
ENDBRANCH  26  31
ENDBRANCH  20  28
ENDBRANCH  19  24
ENDBRANCH   1  19
TORSDOF 4
ENDMDL
MODEL 4
REMARK VINA RESULT:      -7.3      6.068      9.537
REMARK  Name = 
REMARK  5 active torsions:
REMARK  status: ('A' for Active; 'I' for Inactive)
REMARK    1  A    between atoms: C_2  and  C_3
REMARK    2  A    between atoms: N_5  and  C_6
REMARK    3  A    between atoms: C_10  and  O_11
REMARK    4  A    between atoms: O_11  and  C_12
REMARK    5  A    between atoms: N_19  and  C_20
REMARK                            x       y       z     vdW  Elec       q    Type
REMARK                         _______ _______ _______ _____ _____    ______ ____
ROOT
ATOM      1  C   UNL     1      -2.110  13.191  21.272  0.00  0.00    +0.000 A 
ATOM      2  N   UNL     1      -2.605  12.448  20.278  0.00  0.00    +0.000 NA
ATOM      3  C   UNL     1      -3.845  12.686  19.862  0.00  0.00    +0.000 A 
ATOM      4  N   UNL     1      -4.361  11.961  18.790  0.00  0.00    +0.000 N 
ATOM      5  C   UNL     1      -3.674  11.258  17.864  0.00  0.00    +0.000 A 
ATOM      6  C   UNL     1      -2.377  10.705  18.026  0.00  0.00    +0.000 A 
ATOM      7  C   UNL     1      -2.032  10.192  16.802  0.00  0.00    +0.000 A 
ATOM      8  N   UNL     1      -3.102  10.434  15.998  0.00  0.00    +0.000 N 
ATOM      9  C   UNL     1      -3.169  10.188  14.581  0.00  0.00    +0.000 C 
ATOM     10  N   UNL     1      -4.136  11.021  16.631  0.00  0.00    +0.000 NA
ATOM     11  N   UNL     1      -4.620  13.622  20.423  0.00  0.00    +0.000 NA
ATOM     12  C   UNL     1      -4.087  14.394  21.407  0.00  0.00    +0.000 A 
ATOM     13  C   UNL     1      -2.784  14.241  21.856  0.00  0.00    +0.000 A 
ATOM     14  C   UNL     1      -2.132  15.048  22.933  0.00  0.00    +0.000 C 
ATOM     15  S   UNL     1      -2.950  16.613  23.329  0.00  0.00    +0.000 S 
ATOM     16  C   UNL     1      -4.650  15.990  23.318  0.00  0.00    +0.000 C 
ATOM     17  C   UNL     1      -5.006  15.465  21.936  0.00  0.00    +0.000 C 
ATOM     18  H   UNL     1      -5.258  12.338  18.521  0.00  0.00    +0.000 HD
ENDROOT
BRANCH   1  19
ATOM     19  O   UNL     1      -0.824  12.906  21.708  0.00  0.00    +0.000 OA
BRANCH  19  24
ATOM     20  C   UNL     1       0.543   9.538  20.916  0.00  0.00    +0.000 A 
ATOM     21  C   UNL     1       0.096   8.860  22.053  0.00  0.00    +0.000 A 
ATOM     22  C   UNL     1      -0.611   9.535  23.054  0.00  0.00    +0.000 A 
ATOM     23  C   UNL     1      -0.880  10.893  22.919  0.00  0.00    +0.000 A 
ATOM     24  C   UNL     1      -0.433  11.585  21.794  0.00  0.00    +0.000 A 
ATOM     25  C   UNL     1       0.280  10.904  20.794  0.00  0.00    +0.000 A 
BRANCH  20  28
ATOM     26  C   UNL     1       1.505   9.437  18.634  0.00  0.00    +0.000 C 
ATOM     27  O   UNL     1       1.210  10.572  18.264  0.00  0.00    +0.000 OA
ATOM     28  N   UNL     1       1.251   8.894  19.875  0.00  0.00    +0.000 N 
ATOM     29  H   UNL     1       1.670   8.000  20.101  0.00  0.00    +0.000 HD
BRANCH  26  31
ATOM     30  C   UNL     1       2.799   7.413  18.224  0.00  0.00    +0.000 C 
ATOM     31  C   UNL     1       2.248   8.529  17.721  0.00  0.00    +0.000 C 
ENDBRANCH  26  31
ENDBRANCH  20  28
ENDBRANCH  19  24
ENDBRANCH   1  19
TORSDOF 4
ENDMDL
MODEL 5
REMARK VINA RESULT:      -7.2      6.041      9.475
REMARK  Name = 
REMARK  5 active torsions:
REMARK  status: ('A' for Active; 'I' for Inactive)
REMARK    1  A    between atoms: C_2  and  C_3
REMARK    2  A    between atoms: N_5  and  C_6
REMARK    3  A    between atoms: C_10  and  O_11
REMARK    4  A    between atoms: O_11  and  C_12
REMARK    5  A    between atoms: N_19  and  C_20
REMARK                            x       y       z     vdW  Elec       q    Type
REMARK                         _______ _______ _______ _____ _____    ______ ____
ROOT
ATOM      1  C   UNL     1      -2.143  13.132  21.216  0.00  0.00    +0.000 A 
ATOM      2  N   UNL     1      -2.651  12.385  20.233  0.00  0.00    +0.000 NA
ATOM      3  C   UNL     1      -3.922  12.568  19.884  0.00  0.00    +0.000 A 
ATOM      4  N   UNL     1      -4.455  11.839  18.823  0.00  0.00    +0.000 N 
ATOM      5  C   UNL     1      -3.783  11.190  17.850  0.00  0.00    +0.000 A 
ATOM      6  C   UNL     1      -2.454  10.700  17.933  0.00  0.00    +0.000 A 
ATOM      7  C   UNL     1      -2.147  10.229  16.682  0.00  0.00    +0.000 A 
ATOM      8  N   UNL     1      -3.268  10.432  15.939  0.00  0.00    +0.000 N 
ATOM      9  C   UNL     1      -3.396  10.211  14.522  0.00  0.00    +0.000 C 
ATOM     10  N   UNL     1      -4.295  10.954  16.637  0.00  0.00    +0.000 NA
ATOM     11  N   UNL     1      -4.712  13.453  20.504  0.00  0.00    +0.000 NA
ATOM     12  C   UNL     1      -4.167  14.231  21.477  0.00  0.00    +0.000 A 
ATOM     13  C   UNL     1      -2.837  14.136  21.856  0.00  0.00    +0.000 A 
ATOM     14  C   UNL     1      -2.171  14.953  22.917  0.00  0.00    +0.000 C 
ATOM     15  S   UNL     1      -3.044  16.467  23.387  0.00  0.00    +0.000 S 
ATOM     16  C   UNL     1      -4.709  15.760  23.448  0.00  0.00    +0.000 C 
ATOM     17  C   UNL     1      -5.110  15.245  22.074  0.00  0.00    +0.000 C 
ATOM     18  H   UNL     1      -5.383  12.175  18.609  0.00  0.00    +0.000 HD
ENDROOT
BRANCH   1  19
ATOM     19  O   UNL     1      -0.825  12.904  21.581  0.00  0.00    +0.000 OA
BRANCH  19  24
ATOM     20  C   UNL     1       0.649   9.553  20.920  0.00  0.00    +0.000 A 
ATOM     21  C   UNL     1       0.220   8.904  22.081  0.00  0.00    +0.000 A 
ATOM     22  C   UNL     1      -0.512   9.595  23.054  0.00  0.00    +0.000 A 
ATOM     23  C   UNL     1      -0.822  10.938  22.867  0.00  0.00    +0.000 A 
ATOM     24  C   UNL     1      -0.392  11.600  21.718  0.00  0.00    +0.000 A 
ATOM     25  C   UNL     1       0.344  10.904  20.746  0.00  0.00    +0.000 A 
BRANCH  20  28
ATOM     26  C   UNL     1       1.818   7.586  19.966  0.00  0.00    +0.000 C 
ATOM     27  O   UNL     1       1.594   6.787  20.873  0.00  0.00    +0.000 OA
ATOM     28  N   UNL     1       1.380   8.892  19.906  0.00  0.00    +0.000 N 
ATOM     29  H   UNL     1       1.513   9.401  19.041  0.00  0.00    +0.000 HD
BRANCH  26  31
ATOM     30  C   UNL     1       2.827   8.047  17.797  0.00  0.00    +0.000 C 
ATOM     31  C   UNL     1       2.589   7.155  18.771  0.00  0.00    +0.000 C 
ENDBRANCH  26  31
ENDBRANCH  20  28
ENDBRANCH  19  24
ENDBRANCH   1  19
TORSDOF 4
ENDMDL
MODEL 6
REMARK VINA RESULT:      -7.0      5.032      8.512
REMARK  Name = 
REMARK  5 active torsions:
REMARK  status: ('A' for Active; 'I' for Inactive)
REMARK    1  A    between atoms: C_2  and  C_3
REMARK    2  A    between atoms: N_5  and  C_6
REMARK    3  A    between atoms: C_10  and  O_11
REMARK    4  A    between atoms: O_11  and  C_12
REMARK    5  A    between atoms: N_19  and  C_20
REMARK                            x       y       z     vdW  Elec       q    Type
REMARK                         _______ _______ _______ _____ _____    ______ ____
ROOT
ATOM      1  C   UNL     1      -0.712  12.520  20.726  0.00  0.00    +0.000 A 
ATOM      2  N   UNL     1      -1.540  11.941  19.851  0.00  0.00    +0.000 NA
ATOM      3  C   UNL     1      -2.781  12.408  19.745  0.00  0.00    +0.000 A 
ATOM      4  N   UNL     1      -3.643  11.856  18.800  0.00  0.00    +0.000 N 
ATOM      5  C   UNL     1      -3.316  11.120  17.716  0.00  0.00    +0.000 A 
ATOM      6  C   UNL     1      -2.134  10.353  17.551  0.00  0.00    +0.000 A 
ATOM      7  C   UNL     1      -2.167   9.882  16.264  0.00  0.00    +0.000 A 
ATOM      8  N   UNL     1      -3.332  10.352  15.741  0.00  0.00    +0.000 N 
ATOM      9  C   UNL     1      -3.758  10.225  14.372  0.00  0.00    +0.000 C 
ATOM     10  N   UNL     1      -4.077  11.052  16.619  0.00  0.00    +0.000 NA
ATOM     11  N   UNL     1      -3.234  13.414  20.503  0.00  0.00    +0.000 NA
ATOM     12  C   UNL     1      -2.366  14.015  21.360  0.00  0.00    +0.000 A 
ATOM     13  C   UNL     1      -1.043  13.620  21.486  0.00  0.00    +0.000 A 
ATOM     14  C   UNL     1      -0.035  14.230  22.407  0.00  0.00    +0.000 C 
ATOM     15  S   UNL     1      -0.456  15.874  23.035  0.00  0.00    +0.000 S 
ATOM     16  C   UNL     1      -2.197  15.537  23.402  0.00  0.00    +0.000 C 
ATOM     17  C   UNL     1      -2.941  15.180  22.124  0.00  0.00    +0.000 C 
ATOM     18  H   UNL     1      -4.498  12.392  18.762  0.00  0.00    +0.000 HD
ENDROOT
BRANCH   1  19
ATOM     19  O   UNL     1       0.568  11.999  20.839  0.00  0.00    +0.000 OA
BRANCH  19  24
ATOM     20  C   UNL     1       1.367   8.505  19.843  0.00  0.00    +0.000 A 
ATOM     21  C   UNL     1       1.769   8.750  18.527  0.00  0.00    +0.000 A 
ATOM     22  C   UNL     1       1.736  10.047  18.002  0.00  0.00    +0.000 A 
ATOM     23  C   UNL     1       1.306  11.107  18.795  0.00  0.00    +0.000 A 
ATOM     24  C   UNL     1       0.893  10.875  20.106  0.00  0.00    +0.000 A 
ATOM     25  C   UNL     1       0.924   9.571  20.627  0.00  0.00    +0.000 A 
BRANCH  20  28
ATOM     26  C   UNL     1       2.308   6.228  20.113  0.00  0.00    +0.000 C 
ATOM     27  O   UNL     1       3.263   6.337  19.347  0.00  0.00    +0.000 OA
ATOM     28  N   UNL     1       1.393   7.213  20.418  0.00  0.00    +0.000 N 
ATOM     29  H   UNL     1       0.738   7.040  21.170  0.00  0.00    +0.000 HD
BRANCH  26  31
ATOM     30  C   UNL     1       1.065   4.164  20.479  0.00  0.00    +0.000 C 
ATOM     31  C   UNL     1       2.086   4.954  20.846  0.00  0.00    +0.000 C 
ENDBRANCH  26  31
ENDBRANCH  20  28
ENDBRANCH  19  24
ENDBRANCH   1  19
TORSDOF 4
ENDMDL
MODEL 7
REMARK VINA RESULT:      -6.9      5.545      9.988
REMARK  Name = 
REMARK  5 active torsions:
REMARK  status: ('A' for Active; 'I' for Inactive)
REMARK    1  A    between atoms: C_2  and  C_3
REMARK    2  A    between atoms: N_5  and  C_6
REMARK    3  A    between atoms: C_10  and  O_11
REMARK    4  A    between atoms: O_11  and  C_12
REMARK    5  A    between atoms: N_19  and  C_20
REMARK                            x       y       z     vdW  Elec       q    Type
REMARK                         _______ _______ _______ _____ _____    ______ ____
ROOT
ATOM      1  C   UNL     1       0.033  10.523  18.659  0.00  0.00    +0.000 A 
ATOM      2  N   UNL     1       0.881   9.573  18.257  0.00  0.00    +0.000 NA
ATOM      3  C   UNL     1       2.145   9.908  18.013  0.00  0.00    +0.000 A 
ATOM      4  N   UNL     1       3.058   8.922  17.647  0.00  0.00    +0.000 N 
ATOM      5  C   UNL     1       2.944   7.588  17.819  0.00  0.00    +0.000 A 
ATOM      6  C   UNL     1       1.733   6.862  17.952  0.00  0.00    +0.000 A 
ATOM      7  C   UNL     1       2.097   5.569  18.230  0.00  0.00    +0.000 A 
ATOM      8  N   UNL     1       3.457   5.573  18.230  0.00  0.00    +0.000 N 
ATOM      9  C   UNL     1       4.307   4.470  18.594  0.00  0.00    +0.000 C 
ATOM     10  N   UNL     1       3.997   6.769  17.922  0.00  0.00    +0.000 NA
ATOM     11  N   UNL     1       2.585  11.167  18.129  0.00  0.00    +0.000 NA
ATOM     12  C   UNL     1       1.717  12.113  18.576  0.00  0.00    +0.000 A 
ATOM     13  C   UNL     1       0.401  11.828  18.903  0.00  0.00    +0.000 A 
ATOM     14  C   UNL     1      -0.609  12.815  19.396  0.00  0.00    +0.000 C 
ATOM     15  S   UNL     1       0.073  14.360  20.045  0.00  0.00    +0.000 S 
ATOM     16  C   UNL     1       1.307  14.627  18.746  0.00  0.00    +0.000 C 
ATOM     17  C   UNL     1       2.314  13.488  18.740  0.00  0.00    +0.000 C 
ATOM     18  H   UNL     1       3.989   9.312  17.615  0.00  0.00    +0.000 HD
ENDROOT
BRANCH   1  19
ATOM     19  O   UNL     1      -1.286  10.155  18.881  0.00  0.00    +0.000 OA
BRANCH  19  24
ATOM     20  C   UNL     1      -4.305  11.482  17.160  0.00  0.00    +0.000 A 
ATOM     21  C   UNL     1      -4.146  10.834  15.932  0.00  0.00    +0.000 A 
ATOM     22  C   UNL     1      -3.040  10.009  15.700  0.00  0.00    +0.000 A 
ATOM     23  C   UNL     1      -2.090   9.823  16.699  0.00  0.00    +0.000 A 
ATOM     24  C   UNL     1      -2.230  10.471  17.925  0.00  0.00    +0.000 A 
ATOM     25  C   UNL     1      -3.340  11.301  18.152  0.00  0.00    +0.000 A 
BRANCH  20  28
ATOM     26  C   UNL     1      -6.620  11.888  17.948  0.00  0.00    +0.000 C 
ATOM     27  O   UNL     1      -6.899  10.738  18.282  0.00  0.00    +0.000 OA
ATOM     28  N   UNL     1      -5.411  12.317  17.442  0.00  0.00    +0.000 N 
ATOM     29  H   UNL     1      -5.262  13.313  17.340  0.00  0.00    +0.000 HD
BRANCH  26  31
ATOM     30  C   UNL     1      -7.404  13.906  19.066  0.00  0.00    +0.000 C 
ATOM     31  C   UNL     1      -7.618  12.975  18.122  0.00  0.00    +0.000 C 
ENDBRANCH  26  31
ENDBRANCH  20  28
ENDBRANCH  19  24
ENDBRANCH   1  19
TORSDOF 4
ENDMDL
MODEL 8
REMARK VINA RESULT:      -6.8      7.557     10.735
REMARK  Name = 
REMARK  5 active torsions:
REMARK  status: ('A' for Active; 'I' for Inactive)
REMARK    1  A    between atoms: C_2  and  C_3
REMARK    2  A    between atoms: N_5  and  C_6
REMARK    3  A    between atoms: C_10  and  O_11
REMARK    4  A    between atoms: O_11  and  C_12
REMARK    5  A    between atoms: N_19  and  C_20
REMARK                            x       y       z     vdW  Elec       q    Type
REMARK                         _______ _______ _______ _____ _____    ______ ____
ROOT
ATOM      1  C   UNL     1      -0.800  12.089  20.532  0.00  0.00    +0.000 A 
ATOM      2  N   UNL     1      -1.643  12.578  21.446  0.00  0.00    +0.000 NA
ATOM      3  C   UNL     1      -1.330  13.718  22.056  0.00  0.00    +0.000 A 
ATOM      4  N   UNL     1      -2.221  14.274  22.971  0.00  0.00    +0.000 N 
ATOM      5  C   UNL     1      -3.538  14.008  23.104  0.00  0.00    +0.000 A 
ATOM      6  C   UNL     1      -4.195  12.815  22.708  0.00  0.00    +0.000 A 
ATOM      7  C   UNL     1      -5.532  13.035  22.917  0.00  0.00    +0.000 A 
ATOM      8  N   UNL     1      -5.613  14.292  23.428  0.00  0.00    +0.000 N 
ATOM      9  C   UNL     1      -6.824  15.022  23.696  0.00  0.00    +0.000 C 
ATOM     10  N   UNL     1      -4.415  14.882  23.611  0.00  0.00    +0.000 NA
ATOM     11  N   UNL     1      -0.189  14.372  21.807  0.00  0.00    +0.000 NA
ATOM     12  C   UNL     1       0.639  13.879  20.848  0.00  0.00    +0.000 A 
ATOM     13  C   UNL     1       0.353  12.728  20.130  0.00  0.00    +0.000 A 
ATOM     14  C   UNL     1       1.215  12.126  19.066  0.00  0.00    +0.000 C 
ATOM     15  S   UNL     1       2.460  13.234  18.362  0.00  0.00    +0.000 S 
ATOM     16  C   UNL     1       3.015  13.971  19.919  0.00  0.00    +0.000 C 
ATOM     17  C   UNL     1       1.867  14.713  20.586  0.00  0.00    +0.000 C 
ATOM     18  H   UNL     1      -1.896  15.188  23.253  0.00  0.00    +0.000 HD
ENDROOT
BRANCH   1  19
ATOM     19  O   UNL     1      -1.134  10.886  19.929  0.00  0.00    +0.000 OA
BRANCH  19  24
ATOM     20  C   UNL     1      -3.913  11.563  17.551  0.00  0.00    +0.000 A 
ATOM     21  C   UNL     1      -3.541  10.674  16.538  0.00  0.00    +0.000 A 
ATOM     22  C   UNL     1      -2.377   9.906  16.656  0.00  0.00    +0.000 A 
ATOM     23  C   UNL     1      -1.582  10.019  17.792  0.00  0.00    +0.000 A 
ATOM     24  C   UNL     1      -1.935  10.909  18.805  0.00  0.00    +0.000 A 
ATOM     25  C   UNL     1      -3.102  11.680  18.681  0.00  0.00    +0.000 A 
BRANCH  20  28
ATOM     26  C   UNL     1      -6.355  11.912  17.785  0.00  0.00    +0.000 C 
ATOM     27  O   UNL     1      -6.654  10.801  18.219  0.00  0.00    +0.000 OA
ATOM     28  N   UNL     1      -5.085  12.350  17.479  0.00  0.00    +0.000 N 
ATOM     29  H   UNL     1      -4.956  13.332  17.265  0.00  0.00    +0.000 HD
BRANCH  26  31
ATOM     30  C   UNL     1      -7.167  13.971  16.766  0.00  0.00    +0.000 C 
ATOM     31  C   UNL     1      -7.409  12.943  17.595  0.00  0.00    +0.000 C 
ENDBRANCH  26  31
ENDBRANCH  20  28
ENDBRANCH  19  24
ENDBRANCH   1  19
TORSDOF 4
ENDMDL
MODEL 9
REMARK VINA RESULT:      -6.7      5.999      9.806
REMARK  Name = 
REMARK  5 active torsions:
REMARK  status: ('A' for Active; 'I' for Inactive)
REMARK    1  A    between atoms: C_2  and  C_3
REMARK    2  A    between atoms: N_5  and  C_6
REMARK    3  A    between atoms: C_10  and  O_11
REMARK    4  A    between atoms: O_11  and  C_12
REMARK    5  A    between atoms: N_19  and  C_20
REMARK                            x       y       z     vdW  Elec       q    Type
REMARK                         _______ _______ _______ _____ _____    ______ ____
ROOT
ATOM      1  C   UNL     1      -0.487  11.447  19.668  0.00  0.00    +0.000 A 
ATOM      2  N   UNL     1      -0.883  12.152  20.731  0.00  0.00    +0.000 NA
ATOM      3  C   UNL     1      -0.534  11.728  21.942  0.00  0.00    +0.000 A 
ATOM      4  N   UNL     1      -0.888  12.479  23.061  0.00  0.00    +0.000 N 
ATOM      5  C   UNL     1      -1.258  13.776  23.099  0.00  0.00    +0.000 A 
ATOM      6  C   UNL     1      -1.825  14.517  22.030  0.00  0.00    +0.000 A 
ATOM      7  C   UNL     1      -1.923  15.809  22.477  0.00  0.00    +0.000 A 
ATOM      8  N   UNL     1      -1.448  15.784  23.751  0.00  0.00    +0.000 N 
ATOM      9  C   UNL     1      -1.235  16.928  24.599  0.00  0.00    +0.000 C 
ATOM     10  N   UNL     1      -1.098  14.554  24.176  0.00  0.00    +0.000 NA
ATOM     11  N   UNL     1       0.172  10.607  22.131  0.00  0.00    +0.000 NA
ATOM     12  C   UNL     1       0.598   9.922  21.036  0.00  0.00    +0.000 A 
ATOM     13  C   UNL     1       0.321  10.334  19.741  0.00  0.00    +0.000 A 
ATOM     14  C   UNL     1       0.752   9.633  18.492  0.00  0.00    +0.000 C 
ATOM     15  S   UNL     1       2.106   8.451  18.697  0.00  0.00    +0.000 S 
ATOM     16  C   UNL     1       1.507   7.680  20.222  0.00  0.00    +0.000 C 
ATOM     17  C   UNL     1       1.442   8.711  21.339  0.00  0.00    +0.000 C 
ATOM     18  H   UNL     1      -0.452  12.092  23.886  0.00  0.00    +0.000 HD
ENDROOT
BRANCH   1  19
ATOM     19  O   UNL     1      -0.887  11.894  18.417  0.00  0.00    +0.000 OA
BRANCH  19  24
ATOM     20  C   UNL     1      -4.593  11.578  18.457  0.00  0.00    +0.000 A 
ATOM     21  C   UNL     1      -4.775  11.102  17.156  0.00  0.00    +0.000 A 
ATOM     22  C   UNL     1      -3.681  10.930  16.300  0.00  0.00    +0.000 A 
ATOM     23  C   UNL     1      -2.397  11.227  16.745  0.00  0.00    +0.000 A 
ATOM     24  C   UNL     1      -2.202  11.712  18.038  0.00  0.00    +0.000 A 
ATOM     25  C   UNL     1      -3.302  11.887  18.892  0.00  0.00    +0.000 A 
BRANCH  20  28
ATOM     26  C   UNL     1      -6.649  10.825  19.618  0.00  0.00    +0.000 C 
ATOM     27  O   UNL     1      -6.710   9.688  19.156  0.00  0.00    +0.000 OA
ATOM     28  N   UNL     1      -5.667  11.757  19.359  0.00  0.00    +0.000 N 
ATOM     29  H   UNL     1      -5.655  12.606  19.912  0.00  0.00    +0.000 HD
BRANCH  26  31
ATOM     30  C   UNL     1      -7.435  12.397  21.306  0.00  0.00    +0.000 C 
ATOM     31  C   UNL     1      -7.675  11.287  20.591  0.00  0.00    +0.000 C 
ENDBRANCH  26  31
ENDBRANCH  20  28
ENDBRANCH  19  24
ENDBRANCH   1  19
TORSDOF 4
ENDMDL
