MODEL 1
REMARK VINA RESULT:      -8.4      0.000      0.000
REMARK  Name = 
REMARK  5 active torsions:
REMARK  status: ('A' for Active; 'I' for Inactive)
REMARK    1  A    between atoms: C_2  and  C_3
REMARK    2  A    between atoms: C_3  and  C_4
REMARK    3  A    between atoms: C_4  and  C_5
REMARK    4  A    between atoms: C_16  and  C_17
REMARK    5  A    between atoms: C_19  and  C_20
REMARK                            x       y       z     vdW  Elec       q    Type
REMARK                         _______ _______ _______ _____ _____    ______ ____
ROOT
ATOM      1  O   UNL     1       5.212   3.472  16.406  0.00  0.00    +0.000 OA
ATOM      2  C   UNL     1       5.437   4.670  16.270  0.00  0.00    +0.000 C 
ATOM      3  N   UNL     1       5.713   5.511  17.351  0.00  0.00    +0.000 N 
ATOM      4  C   UNL     1       5.904   6.960  17.238  0.00  0.00    +0.000 C 
ATOM      5  C   UNL     1       7.378   7.334  17.110  0.00  0.00    +0.000 C 
ATOM      6  C   UNL     1       8.173   7.192  18.405  0.00  0.00    +0.000 C 
ATOM      7  C   UNL     1       8.084   5.820  19.077  0.00  0.00    +0.000 C 
ATOM      8  C   UNL     1       6.704   5.544  19.678  0.00  0.00    +0.000 C 
ATOM      9  C   UNL     1       5.700   4.913  18.696  0.00  0.00    +0.000 C 
ENDROOT
BRANCH   9  10
ATOM     10  C   UNL     1       4.314   5.003  19.262  0.00  0.00    +0.000 A 
ATOM     11  N   UNL     1       3.503   4.045  19.661  0.00  0.00    +0.000 NA
ATOM     12  C   UNL     1       2.372   4.745  19.983  0.00  0.00    +0.000 A 
ATOM     13  N   UNL     1       2.446   6.066  19.781  0.00  0.00    +0.000 NA
ATOM     14  O   UNL     1       3.746   6.244  19.304  0.00  0.00    +0.000 OA
BRANCH  12  15
ATOM     15  C   UNL     1       1.116   4.070  20.508  0.00  0.00    +0.000 C 
ATOM     16  C   UNL     1       0.669   2.768  19.868  0.00  0.00    +0.000 C 
ATOM     17  C   UNL     1       1.268   2.747  21.232  0.00  0.00    +0.000 C 
ENDBRANCH  12  15
ENDBRANCH   9  10
BRANCH   2  18
ATOM     18  C   UNL     1       5.457   5.330  14.898  0.00  0.00    +0.000 C 
BRANCH  18  19
ATOM     19  C   UNL     1       6.604   4.870  14.003  0.00  0.00    +0.000 C 
BRANCH  19  20
ATOM     20  C   UNL     1       6.253   3.598  13.220  0.00  0.00    +0.000 C 
ATOM     21  C   UNL     1       4.917   3.641  12.478  0.00  0.00    +0.000 C 
ATOM     22  C   UNL     1       5.016   2.493  11.482  0.00  0.00    +0.000 C 
ATOM     23  C   UNL     1       6.499   2.370  11.139  0.00  0.00    +0.000 C 
ATOM     24  C   UNL     1       7.246   3.299  12.095  0.00  0.00    +0.000 C 
ENDBRANCH  19  20
ENDBRANCH  18  19
ENDBRANCH   2  18
TORSDOF 5
ENDMDL
MODEL 2
REMARK VINA RESULT:      -8.3      0.724      1.049
REMARK  Name = 
REMARK  5 active torsions:
REMARK  status: ('A' for Active; 'I' for Inactive)
REMARK    1  A    between atoms: C_2  and  C_3
REMARK    2  A    between atoms: C_3  and  C_4
REMARK    3  A    between atoms: C_4  and  C_5
REMARK    4  A    between atoms: C_16  and  C_17
REMARK    5  A    between atoms: C_19  and  C_20
REMARK                            x       y       z     vdW  Elec       q    Type
REMARK                         _______ _______ _______ _____ _____    ______ ____
ROOT
ATOM      1  O   UNL     1       5.605   3.282  16.021  0.00  0.00    +0.000 OA
ATOM      2  C   UNL     1       5.803   4.488  15.908  0.00  0.00    +0.000 C 
ATOM      3  N   UNL     1       5.868   5.345  17.009  0.00  0.00    +0.000 N 
ATOM      4  C   UNL     1       6.018   6.800  16.910  0.00  0.00    +0.000 C 
ATOM      5  C   UNL     1       7.478   7.233  17.015  0.00  0.00    +0.000 C 
ATOM      6  C   UNL     1       8.060   7.131  18.422  0.00  0.00    +0.000 C 
ATOM      7  C   UNL     1       7.917   5.760  19.089  0.00  0.00    +0.000 C 
ATOM      8  C   UNL     1       6.470   5.433  19.464  0.00  0.00    +0.000 C 
ATOM      9  C   UNL     1       5.662   4.755  18.341  0.00  0.00    +0.000 C 
ENDROOT
BRANCH   9  10
ATOM     10  C   UNL     1       4.201   4.793  18.677  0.00  0.00    +0.000 A 
ATOM     11  N   UNL     1       3.537   4.156  19.619  0.00  0.00    +0.000 NA
ATOM     12  C   UNL     1       2.246   4.530  19.360  0.00  0.00    +0.000 A 
ATOM     13  N   UNL     1       2.091   5.338  18.304  0.00  0.00    +0.000 NA
ATOM     14  O   UNL     1       3.398   5.522  17.848  0.00  0.00    +0.000 OA
BRANCH  12  15
ATOM     15  C   UNL     1       1.072   4.045  20.194  0.00  0.00    +0.000 C 
ATOM     16  C   UNL     1       0.559   2.634  19.974  0.00  0.00    +0.000 C 
ATOM     17  C   UNL     1       1.326   2.951  21.212  0.00  0.00    +0.000 C 
ENDBRANCH  12  15
ENDBRANCH   9  10
BRANCH   2  18
ATOM     18  C   UNL     1       6.017   5.139  14.549  0.00  0.00    +0.000 C 
BRANCH  18  19
ATOM     19  C   UNL     1       7.004   4.398  13.652  0.00  0.00    +0.000 C 
BRANCH  19  20
ATOM     20  C   UNL     1       6.338   3.860  12.379  0.00  0.00    +0.000 C 
ATOM     21  C   UNL     1       6.598   2.382  12.086  0.00  0.00    +0.000 C 
ATOM     22  C   UNL     1       5.523   2.018  11.069  0.00  0.00    +0.000 C 
ATOM     23  C   UNL     1       4.331   2.917  11.388  0.00  0.00    +0.000 C 
ATOM     24  C   UNL     1       4.810   3.921  12.435  0.00  0.00    +0.000 C 
ENDBRANCH  19  20
ENDBRANCH  18  19
ENDBRANCH   2  18
TORSDOF 5
ENDMDL
MODEL 3
REMARK VINA RESULT:      -8.2      1.694      6.581
REMARK  Name = 
REMARK  5 active torsions:
REMARK  status: ('A' for Active; 'I' for Inactive)
REMARK    1  A    between atoms: C_2  and  C_3
REMARK    2  A    between atoms: C_3  and  C_4
REMARK    3  A    between atoms: C_4  and  C_5
REMARK    4  A    between atoms: C_16  and  C_17
REMARK    5  A    between atoms: C_19  and  C_20
REMARK                            x       y       z     vdW  Elec       q    Type
REMARK                         _______ _______ _______ _____ _____    ______ ____
ROOT
ATOM      1  O   UNL     1       3.657   7.117  16.726  0.00  0.00    +0.000 OA
ATOM      2  C   UNL     1       4.043   6.264  17.518  0.00  0.00    +0.000 C 
ATOM      3  N   UNL     1       5.353   5.780  17.524  0.00  0.00    +0.000 N 
ATOM      4  C   UNL     1       5.829   4.703  18.397  0.00  0.00    +0.000 C 
ATOM      5  C   UNL     1       6.467   5.243  19.675  0.00  0.00    +0.000 C 
ATOM      6  C   UNL     1       7.844   5.869  19.468  0.00  0.00    +0.000 C 
ATOM      7  C   UNL     1       7.908   6.964  18.400  0.00  0.00    +0.000 C 
ATOM      8  C   UNL     1       7.740   6.417  16.980  0.00  0.00    +0.000 C 
ATOM      9  C   UNL     1       6.277   6.314  16.510  0.00  0.00    +0.000 C 
ENDROOT
BRANCH   9  10
ATOM     10  C   UNL     1       6.202   5.464  15.277  0.00  0.00    +0.000 A 
ATOM     11  N   UNL     1       5.256   4.638  14.880  0.00  0.00    +0.000 NA
ATOM     12  C   UNL     1       5.803   4.103  13.745  0.00  0.00    +0.000 A 
ATOM     13  N   UNL     1       7.031   4.541  13.447  0.00  0.00    +0.000 NA
ATOM     14  O   UNL     1       7.300   5.457  14.466  0.00  0.00    +0.000 OA
BRANCH  12  15
ATOM     15  C   UNL     1       5.079   3.069  12.900  0.00  0.00    +0.000 C 
ATOM     16  C   UNL     1       4.516   3.493  11.556  0.00  0.00    +0.000 C 
ATOM     17  C   UNL     1       5.729   2.628  11.603  0.00  0.00    +0.000 C 
ENDBRANCH  12  15
ENDBRANCH   9  10
BRANCH   2  18
ATOM     18  C   UNL     1       3.120   5.682  18.580  0.00  0.00    +0.000 C 
BRANCH  18  19
ATOM     19  C   UNL     1       2.260   4.522  18.089  0.00  0.00    +0.000 C 
BRANCH  19  20
ATOM     20  C   UNL     1       2.049   3.458  19.174  0.00  0.00    +0.000 C 
ATOM     21  C   UNL     1       3.251   3.215  20.087  0.00  0.00    +0.000 C 
ATOM     22  C   UNL     1       2.659   2.477  21.281  0.00  0.00    +0.000 C 
ATOM     23  C   UNL     1       1.223   2.981  21.408  0.00  0.00    +0.000 C 
ATOM     24  C   UNL     1       0.949   3.833  20.170  0.00  0.00    +0.000 C 
ENDBRANCH  19  20
ENDBRANCH  18  19
ENDBRANCH   2  18
TORSDOF 5
ENDMDL
MODEL 4
REMARK VINA RESULT:      -7.9      1.278      1.705
REMARK  Name = 
REMARK  5 active torsions:
REMARK  status: ('A' for Active; 'I' for Inactive)
REMARK    1  A    between atoms: C_2  and  C_3
REMARK    2  A    between atoms: C_3  and  C_4
REMARK    3  A    between atoms: C_4  and  C_5
REMARK    4  A    between atoms: C_16  and  C_17
REMARK    5  A    between atoms: C_19  and  C_20
REMARK                            x       y       z     vdW  Elec       q    Type
REMARK                         _______ _______ _______ _____ _____    ______ ____
ROOT
ATOM      1  O   UNL     1       6.376   3.151  15.445  0.00  0.00    +0.000 OA
ATOM      2  C   UNL     1       6.290   4.375  15.474  0.00  0.00    +0.000 C 
ATOM      3  N   UNL     1       6.114   5.087  16.663  0.00  0.00    +0.000 N 
ATOM      4  C   UNL     1       5.923   6.539  16.730  0.00  0.00    +0.000 C 
ATOM      5  C   UNL     1       7.236   7.278  16.972  0.00  0.00    +0.000 C 
ATOM      6  C   UNL     1       7.774   7.145  18.394  0.00  0.00    +0.000 C 
ATOM      7  C   UNL     1       7.931   5.709  18.900  0.00  0.00    +0.000 C 
ATOM      8  C   UNL     1       6.588   5.018  19.146  0.00  0.00    +0.000 C 
ATOM      9  C   UNL     1       6.003   4.312  17.909  0.00  0.00    +0.000 C 
ENDROOT
BRANCH   9  10
ATOM     10  C   UNL     1       4.562   3.975  18.154  0.00  0.00    +0.000 A 
ATOM     11  N   UNL     1       3.686   4.553  18.950  0.00  0.00    +0.000 NA
ATOM     12  C   UNL     1       2.591   3.745  18.803  0.00  0.00    +0.000 A 
ATOM     13  N   UNL     1       2.763   2.702  17.982  0.00  0.00    +0.000 NA
ATOM     14  O   UNL     1       4.079   2.856  17.541  0.00  0.00    +0.000 OA
BRANCH  12  15
ATOM     15  C   UNL     1       1.285   3.999  19.536  0.00  0.00    +0.000 C 
ATOM     16  C   UNL     1       1.111   3.427  20.931  0.00  0.00    +0.000 C 
ATOM     17  C   UNL     1       1.317   4.893  20.760  0.00  0.00    +0.000 C 
ENDBRANCH  12  15
ENDBRANCH   9  10
BRANCH   2  18
ATOM     18  C   UNL     1       6.395   5.214  14.210  0.00  0.00    +0.000 C 
BRANCH  18  19
ATOM     19  C   UNL     1       7.320   4.627  13.147  0.00  0.00    +0.000 C 
BRANCH  19  20
ATOM     20  C   UNL     1       6.543   3.889  12.048  0.00  0.00    +0.000 C 
ATOM     21  C   UNL     1       6.819   2.388  11.955  0.00  0.00    +0.000 C 
ATOM     22  C   UNL     1       5.658   1.854  11.126  0.00  0.00    +0.000 C 
ATOM     23  C   UNL     1       4.476   2.773  11.431  0.00  0.00    +0.000 C 
ATOM     24  C   UNL     1       5.028   3.934  12.257  0.00  0.00    +0.000 C 
ENDBRANCH  19  20
ENDBRANCH  18  19
ENDBRANCH   2  18
TORSDOF 5
ENDMDL
MODEL 5
REMARK VINA RESULT:      -7.9      0.981      1.069
REMARK  Name = 
REMARK  5 active torsions:
REMARK  status: ('A' for Active; 'I' for Inactive)
REMARK    1  A    between atoms: C_2  and  C_3
REMARK    2  A    between atoms: C_3  and  C_4
REMARK    3  A    between atoms: C_4  and  C_5
REMARK    4  A    between atoms: C_16  and  C_17
REMARK    5  A    between atoms: C_19  and  C_20
REMARK                            x       y       z     vdW  Elec       q    Type
REMARK                         _______ _______ _______ _____ _____    ______ ____
ROOT
ATOM      1  O   UNL     1       6.158   3.084  15.993  0.00  0.00    +0.000 OA
ATOM      2  C   UNL     1       6.273   4.298  15.859  0.00  0.00    +0.000 C 
ATOM      3  N   UNL     1       6.145   5.188  16.928  0.00  0.00    +0.000 N 
ATOM      4  C   UNL     1       6.191   6.647  16.794  0.00  0.00    +0.000 C 
ATOM      5  C   UNL     1       7.591   7.200  17.047  0.00  0.00    +0.000 C 
ATOM      6  C   UNL     1       8.013   7.184  18.513  0.00  0.00    +0.000 C 
ATOM      7  C   UNL     1       7.902   5.825  19.209  0.00  0.00    +0.000 C 
ATOM      8  C   UNL     1       6.452   5.391  19.431  0.00  0.00    +0.000 C 
ATOM      9  C   UNL     1       5.834   4.619  18.250  0.00  0.00    +0.000 C 
ENDROOT
BRANCH   9  10
ATOM     10  C   UNL     1       4.345   4.547  18.418  0.00  0.00    +0.000 A 
ATOM     11  N   UNL     1       3.633   4.166  19.458  0.00  0.00    +0.000 NA
ATOM     12  C   UNL     1       2.356   4.235  18.970  0.00  0.00    +0.000 A 
ATOM     13  N   UNL     1       2.258   4.614  17.690  0.00  0.00    +0.000 NA
ATOM     14  O   UNL     1       3.587   4.830  17.319  0.00  0.00    +0.000 OA
BRANCH  12  15
ATOM     15  C   UNL     1       1.140   3.884  19.811  0.00  0.00    +0.000 C 
ATOM     16  C   UNL     1       0.915   2.433  20.192  0.00  0.00    +0.000 C 
ATOM     17  C   UNL     1       1.371   3.401  21.229  0.00  0.00    +0.000 C 
ENDBRANCH  12  15
ENDBRANCH   9  10
BRANCH   2  18
ATOM     18  C   UNL     1       6.590   4.928  14.510  0.00  0.00    +0.000 C 
BRANCH  18  19
ATOM     19  C   UNL     1       5.650   4.501  13.387  0.00  0.00    +0.000 C 
BRANCH  19  20
ATOM     20  C   UNL     1       6.064   3.161  12.764  0.00  0.00    +0.000 C 
ATOM     21  C   UNL     1       5.044   2.548  11.805  0.00  0.00    +0.000 C 
ATOM     22  C   UNL     1       5.846   1.508  11.034  0.00  0.00    +0.000 C 
ATOM     23  C   UNL     1       7.273   2.048  10.975  0.00  0.00    +0.000 C 
ATOM     24  C   UNL     1       7.314   3.272  11.888  0.00  0.00    +0.000 C 
ENDBRANCH  19  20
ENDBRANCH  18  19
ENDBRANCH   2  18
TORSDOF 5
ENDMDL
MODEL 6
REMARK VINA RESULT:      -7.9      1.095      1.246
REMARK  Name = 
REMARK  5 active torsions:
REMARK  status: ('A' for Active; 'I' for Inactive)
REMARK    1  A    between atoms: C_2  and  C_3
REMARK    2  A    between atoms: C_3  and  C_4
REMARK    3  A    between atoms: C_4  and  C_5
REMARK    4  A    between atoms: C_16  and  C_17
REMARK    5  A    between atoms: C_19  and  C_20
REMARK                            x       y       z     vdW  Elec       q    Type
REMARK                         _______ _______ _______ _____ _____    ______ ____
ROOT
ATOM      1  O   UNL     1       6.392   3.342  15.974  0.00  0.00    +0.000 OA
ATOM      2  C   UNL     1       6.159   4.547  15.966  0.00  0.00    +0.000 C 
ATOM      3  N   UNL     1       6.149   5.319  17.130  0.00  0.00    +0.000 N 
ATOM      4  C   UNL     1       5.793   6.740  17.172  0.00  0.00    +0.000 C 
ATOM      5  C   UNL     1       7.022   7.641  17.086  0.00  0.00    +0.000 C 
ATOM      6  C   UNL     1       7.862   7.673  18.361  0.00  0.00    +0.000 C 
ATOM      7  C   UNL     1       8.305   6.304  18.884  0.00  0.00    +0.000 C 
ATOM      8  C   UNL     1       7.143   5.483  19.450  0.00  0.00    +0.000 C 
ATOM      9  C   UNL     1       6.404   4.627  18.404  0.00  0.00    +0.000 C 
ENDROOT
BRANCH   9  10
ATOM     10  C   UNL     1       5.103   4.146  18.974  0.00  0.00    +0.000 A 
ATOM     11  N   UNL     1       3.904   4.689  18.912  0.00  0.00    +0.000 NA
ATOM     12  C   UNL     1       3.166   3.837  19.688  0.00  0.00    +0.000 A 
ATOM     13  N   UNL     1       3.853   2.826  20.232  0.00  0.00    +0.000 NA
ATOM     14  O   UNL     1       5.149   3.025  19.751  0.00  0.00    +0.000 OA
BRANCH  12  15
ATOM     15  C   UNL     1       1.680   4.038  19.934  0.00  0.00    +0.000 C 
ATOM     16  C   UNL     1       0.707   3.005  19.395  0.00  0.00    +0.000 C 
ATOM     17  C   UNL     1       0.974   3.068  20.860  0.00  0.00    +0.000 C 
ENDBRANCH  12  15
ENDBRANCH   9  10
BRANCH   2  18
ATOM     18  C   UNL     1       5.886   5.300  14.672  0.00  0.00    +0.000 C 
BRANCH  18  19
ATOM     19  C   UNL     1       6.642   4.755  13.463  0.00  0.00    +0.000 C 
BRANCH  19  20
ATOM     20  C   UNL     1       5.975   3.502  12.881  0.00  0.00    +0.000 C 
ATOM     21  C   UNL     1       4.729   3.763  12.035  0.00  0.00    +0.000 C 
ATOM     22  C   UNL     1       4.535   2.466  11.260  0.00  0.00    +0.000 C 
ATOM     23  C   UNL     1       5.936   1.887  11.067  0.00  0.00    +0.000 C 
ATOM     24  C   UNL     1       6.881   2.743  11.909  0.00  0.00    +0.000 C 
ENDBRANCH  19  20
ENDBRANCH  18  19
ENDBRANCH   2  18
TORSDOF 5
ENDMDL
MODEL 7
REMARK VINA RESULT:      -7.8      2.939      7.395
REMARK  Name = 
REMARK  5 active torsions:
REMARK  status: ('A' for Active; 'I' for Inactive)
REMARK    1  A    between atoms: C_2  and  C_3
REMARK    2  A    between atoms: C_3  and  C_4
REMARK    3  A    between atoms: C_4  and  C_5
REMARK    4  A    between atoms: C_16  and  C_17
REMARK    5  A    between atoms: C_19  and  C_20
REMARK                            x       y       z     vdW  Elec       q    Type
REMARK                         _______ _______ _______ _____ _____    ______ ____
ROOT
ATOM      1  O   UNL     1       4.948   5.701  19.683  0.00  0.00    +0.000 OA
ATOM      2  C   UNL     1       3.830   5.615  19.184  0.00  0.00    +0.000 C 
ATOM      3  N   UNL     1       3.456   4.554  18.356  0.00  0.00    +0.000 N 
ATOM      4  C   UNL     1       2.162   4.460  17.674  0.00  0.00    +0.000 C 
ATOM      5  C   UNL     1       1.152   3.641  18.475  0.00  0.00    +0.000 C 
ATOM      6  C   UNL     1       1.421   2.139  18.468  0.00  0.00    +0.000 C 
ATOM      7  C   UNL     1       2.828   1.726  18.906  0.00  0.00    +0.000 C 
ATOM      8  C   UNL     1       3.902   2.110  17.885  0.00  0.00    +0.000 C 
ATOM      9  C   UNL     1       4.471   3.529  18.067  0.00  0.00    +0.000 C 
ENDROOT
BRANCH   9  10
ATOM     10  C   UNL     1       5.240   3.926  16.842  0.00  0.00    +0.000 A 
ATOM     11  N   UNL     1       4.869   3.923  15.578  0.00  0.00    +0.000 NA
ATOM     12  C   UNL     1       6.021   4.299  14.943  0.00  0.00    +0.000 A 
ATOM     13  N   UNL     1       7.071   4.507  15.747  0.00  0.00    +0.000 NA
ATOM     14  O   UNL     1       6.550   4.265  17.020  0.00  0.00    +0.000 OA
BRANCH  12  15
ATOM     15  C   UNL     1       6.111   4.446  13.433  0.00  0.00    +0.000 C 
ATOM     16  C   UNL     1       6.445   3.221  12.602  0.00  0.00    +0.000 C 
ATOM     17  C   UNL     1       5.056   3.760  12.587  0.00  0.00    +0.000 C 
ENDBRANCH  12  15
ENDBRANCH   9  10
BRANCH   2  18
ATOM     18  C   UNL     1       2.752   6.655  19.453  0.00  0.00    +0.000 C 
BRANCH  18  19
ATOM     19  C   UNL     1       2.602   7.697  18.348  0.00  0.00    +0.000 C 
BRANCH  19  20
ATOM     20  C   UNL     1       1.894   8.966  18.841  0.00  0.00    +0.000 C 
ATOM     21  C   UNL     1       0.798   9.497  17.917  0.00  0.00    +0.000 C 
ATOM     22  C   UNL     1       0.004  10.449  18.803  0.00  0.00    +0.000 C 
ATOM     23  C   UNL     1       0.120   9.888  20.219  0.00  0.00    +0.000 C 
ATOM     24  C   UNL     1       1.143   8.756  20.157  0.00  0.00    +0.000 C 
ENDBRANCH  19  20
ENDBRANCH  18  19
ENDBRANCH   2  18
TORSDOF 5
ENDMDL
MODEL 8
REMARK VINA RESULT:      -7.8      1.955      6.670
REMARK  Name = 
REMARK  5 active torsions:
REMARK  status: ('A' for Active; 'I' for Inactive)
REMARK    1  A    between atoms: C_2  and  C_3
REMARK    2  A    between atoms: C_3  and  C_4
REMARK    3  A    between atoms: C_4  and  C_5
REMARK    4  A    between atoms: C_16  and  C_17
REMARK    5  A    between atoms: C_19  and  C_20
REMARK                            x       y       z     vdW  Elec       q    Type
REMARK                         _______ _______ _______ _____ _____    ______ ____
ROOT
ATOM      1  O   UNL     1       3.760   4.513  16.743  0.00  0.00    +0.000 OA
ATOM      2  C   UNL     1       4.777   4.175  17.340  0.00  0.00    +0.000 C 
ATOM      3  N   UNL     1       6.010   4.799  17.137  0.00  0.00    +0.000 N 
ATOM      4  C   UNL     1       7.262   4.370  17.768  0.00  0.00    +0.000 C 
ATOM      5  C   UNL     1       7.552   5.147  19.050  0.00  0.00    +0.000 C 
ATOM      6  C   UNL     1       8.002   6.587  18.818  0.00  0.00    +0.000 C 
ATOM      7  C   UNL     1       7.067   7.430  17.947  0.00  0.00    +0.000 C 
ATOM      8  C   UNL     1       7.075   6.997  16.479  0.00  0.00    +0.000 C 
ATOM      9  C   UNL     1       6.067   5.882  16.143  0.00  0.00    +0.000 C 
ENDROOT
BRANCH   9  10
ATOM     10  C   UNL     1       6.388   5.301  14.798  0.00  0.00    +0.000 A 
ATOM     11  N   UNL     1       5.617   4.634  13.963  0.00  0.00    +0.000 NA
ATOM     12  C   UNL     1       6.496   4.301  12.969  0.00  0.00    +0.000 A 
ATOM     13  N   UNL     1       7.756   4.708  13.165  0.00  0.00    +0.000 NA
ATOM     14  O   UNL     1       7.686   5.383  14.385  0.00  0.00    +0.000 OA
BRANCH  12  15
ATOM     15  C   UNL     1       6.079   3.505  11.743  0.00  0.00    +0.000 C 
ATOM     16  C   UNL     1       5.601   2.077  11.932  0.00  0.00    +0.000 C 
ATOM     17  C   UNL     1       4.615   3.142  11.594  0.00  0.00    +0.000 C 
ENDBRANCH  12  15
ENDBRANCH   9  10
BRANCH   2  18
ATOM     18  C   UNL     1       4.763   3.059  18.374  0.00  0.00    +0.000 C 
BRANCH  18  19
ATOM     19  C   UNL     1       3.612   2.071  18.209  0.00  0.00    +0.000 C 
BRANCH  19  20
ATOM     20  C   UNL     1       2.566   2.210  19.323  0.00  0.00    +0.000 C 
ATOM     21  C   UNL     1       3.089   2.792  20.636  0.00  0.00    +0.000 C 
ATOM     22  C   UNL     1       1.827   3.210  21.379  0.00  0.00    +0.000 C 
ATOM     23  C   UNL     1       0.816   3.584  20.297  0.00  0.00    +0.000 C 
ATOM     24  C   UNL     1       1.435   3.175  18.962  0.00  0.00    +0.000 C 
ENDBRANCH  19  20
ENDBRANCH  18  19
ENDBRANCH   2  18
TORSDOF 5
ENDMDL
MODEL 9
REMARK VINA RESULT:      -7.8      1.592      6.377
REMARK  Name = 
REMARK  5 active torsions:
REMARK  status: ('A' for Active; 'I' for Inactive)
REMARK    1  A    between atoms: C_2  and  C_3
REMARK    2  A    between atoms: C_3  and  C_4
REMARK    3  A    between atoms: C_4  and  C_5
REMARK    4  A    between atoms: C_16  and  C_17
REMARK    5  A    between atoms: C_19  and  C_20
REMARK                            x       y       z     vdW  Elec       q    Type
REMARK                         _______ _______ _______ _____ _____    ______ ____
ROOT
ATOM      1  O   UNL     1       3.607   6.303  17.410  0.00  0.00    +0.000 OA
ATOM      2  C   UNL     1       4.455   5.722  18.080  0.00  0.00    +0.000 C 
ATOM      3  N   UNL     1       5.816   5.760  17.768  0.00  0.00    +0.000 N 
ATOM      4  C   UNL     1       6.847   5.012  18.493  0.00  0.00    +0.000 C 
ATOM      5  C   UNL     1       7.503   5.853  19.585  0.00  0.00    +0.000 C 
ATOM      6  C   UNL     1       8.454   6.924  19.061  0.00  0.00    +0.000 C 
ATOM      7  C   UNL     1       7.857   7.873  18.019  0.00  0.00    +0.000 C 
ATOM      8  C   UNL     1       7.595   7.188  16.676  0.00  0.00    +0.000 C 
ATOM      9  C   UNL     1       6.216   6.512  16.568  0.00  0.00    +0.000 C 
ENDROOT
BRANCH   9  10
ATOM     10  C   UNL     1       6.194   5.596  15.381  0.00  0.00    +0.000 A 
ATOM     11  N   UNL     1       5.236   4.803  14.946  0.00  0.00    +0.000 NA
ATOM     12  C   UNL     1       5.843   4.171  13.896  0.00  0.00    +0.000 A 
ATOM     13  N   UNL     1       7.118   4.520  13.684  0.00  0.00    +0.000 NA
ATOM     14  O   UNL     1       7.354   5.478  14.672  0.00  0.00    +0.000 OA
BRANCH  12  15
ATOM     15  C   UNL     1       5.132   3.132  13.046  0.00  0.00    +0.000 C 
ATOM     16  C   UNL     1       4.543   3.560  11.714  0.00  0.00    +0.000 C 
ATOM     17  C   UNL     1       5.775   2.721  11.736  0.00  0.00    +0.000 C 
ENDBRANCH  12  15
ENDBRANCH   9  10
BRANCH   2  18
ATOM     18  C   UNL     1       4.085   4.930  19.326  0.00  0.00    +0.000 C 
BRANCH  18  19
ATOM     19  C   UNL     1       2.777   5.370  19.977  0.00  0.00    +0.000 C 
BRANCH  19  20
ATOM     20  C   UNL     1       1.696   4.284  19.896  0.00  0.00    +0.000 C 
ATOM     21  C   UNL     1       1.334   3.833  18.481  0.00  0.00    +0.000 C 
ATOM     22  C   UNL     1       0.602   2.514  18.694  0.00  0.00    +0.000 C 
ATOM     23  C   UNL     1       1.208   1.905  19.958  0.00  0.00    +0.000 C 
ATOM     24  C   UNL     1       2.118   2.973  20.562  0.00  0.00    +0.000 C 
ENDBRANCH  19  20
ENDBRANCH  18  19
ENDBRANCH   2  18
TORSDOF 5
ENDMDL
