MODEL 1
REMARK VINA RESULT:      -8.0      0.000      0.000
REMARK  Name = 
REMARK  1 active torsions:
REMARK  status: ('A' for Active; 'I' for Inactive)
REMARK    1  A    between atoms: C_7  and  C_8
REMARK                            x       y       z     vdW  Elec       q    Type
REMARK                         _______ _______ _______ _____ _____    ______ ____
ROOT
ATOM      1 BR   UNL     1      -1.901  12.708  22.445  0.00  0.00    +0.000 Br
ATOM      2  C   UNL     1      -0.839  11.188  22.060  0.00  0.00    +0.000 A 
ATOM      3  C   UNL     1      -0.548  10.279  23.075  0.00  0.00    +0.000 A 
ATOM      4  C   UNL     1       0.236   9.149  22.818  0.00  0.00    +0.000 A 
ATOM      5  C   UNL     1       0.712   8.978  21.514  0.00  0.00    +0.000 A 
ATOM      6  N   UNL     1       1.498   7.984  20.976  0.00  0.00    +0.000 N 
ATOM      7  C   UNL     1       1.752   8.225  19.647  0.00  0.00    +0.000 A 
ATOM      8  C   UNL     1       1.084   9.389  19.317  0.00  0.00    +0.000 A 
ATOM      9  C   UNL     1       0.434   9.875  20.485  0.00  0.00    +0.000 A 
ATOM     10  C   UNL     1      -0.359  11.004  20.760  0.00  0.00    +0.000 A 
ATOM     11  H   UNL     1       1.855   7.195  21.496  0.00  0.00    +0.000 HD
ENDROOT
BRANCH   7  12
ATOM     12  C   UNL     1       2.579   7.375  18.850  0.00  0.00    +0.000 A 
ATOM     13  C   UNL     1       3.451   7.681  17.825  0.00  0.00    +0.000 A 
ATOM     14  C   UNL     1       3.998   6.466  17.326  0.00  0.00    +0.000 A 
ATOM     15  C   UNL     1       4.907   6.154  16.297  0.00  0.00    +0.000 A 
ATOM     16  C   UNL     1       5.223   4.813  16.063  0.00  0.00    +0.000 A 
ATOM     17 BR   UNL     1       6.437   4.379  14.678  0.00  0.00    +0.000 Br
ATOM     18  C   UNL     1       4.659   3.792  16.827  0.00  0.00    +0.000 A 
ATOM     19  C   UNL     1       3.759   4.083  17.856  0.00  0.00    +0.000 A 
ATOM     20  C   UNL     1       3.448   5.431  18.078  0.00  0.00    +0.000 A 
ATOM     21  N   UNL     1       2.604   6.009  18.999  0.00  0.00    +0.000 N 
ATOM     22  H   UNL     1       2.064   5.495  19.680  0.00  0.00    +0.000 HD
ENDBRANCH   7  12
TORSDOF 1
ENDMDL
MODEL 2
REMARK VINA RESULT:      -7.9      0.324      8.009
REMARK  Name = 
REMARK  1 active torsions:
REMARK  status: ('A' for Active; 'I' for Inactive)
REMARK    1  A    between atoms: C_7  and  C_8
REMARK                            x       y       z     vdW  Elec       q    Type
REMARK                         _______ _______ _______ _____ _____    ______ ____
ROOT
ATOM      1 BR   UNL     1       6.321   4.233  14.885  0.00  0.00    +0.000 Br
ATOM      2  C   UNL     1       5.249   4.748  16.359  0.00  0.00    +0.000 A 
ATOM      3  C   UNL     1       4.998   3.833  17.379  0.00  0.00    +0.000 A 
ATOM      4  C   UNL     1       4.208   4.187  18.477  0.00  0.00    +0.000 A 
ATOM      5  C   UNL     1       3.683   5.483  18.503  0.00  0.00    +0.000 A 
ATOM      6  N   UNL     1       2.879   6.101  19.435  0.00  0.00    +0.000 N 
ATOM      7  C   UNL     1       2.575   7.384  19.046  0.00  0.00    +0.000 A 
ATOM      8  C   UNL     1       3.227   7.605  17.848  0.00  0.00    +0.000 A 
ATOM      9  C   UNL     1       3.920   6.414  17.493  0.00  0.00    +0.000 A 
ATOM     10  C   UNL     1       4.720   6.042  16.397  0.00  0.00    +0.000 A 
ATOM     11  H   UNL     1       2.544   5.662  20.279  0.00  0.00    +0.000 HD
ENDROOT
BRANCH   7  12
ATOM     12  C   UNL     1       1.721   8.241  19.806  0.00  0.00    +0.000 A 
ATOM     13  C   UNL     1       1.064   9.400  19.442  0.00  0.00    +0.000 A 
ATOM     14  C   UNL     1       0.376   9.899  20.583  0.00  0.00    +0.000 A 
ATOM     15  C   UNL     1      -0.429  11.030  20.821  0.00  0.00    +0.000 A 
ATOM     16  C   UNL     1      -0.951  11.226  22.102  0.00  0.00    +0.000 A 
ATOM     17 BR   UNL     1      -2.027  12.746  22.437  0.00  0.00    +0.000 Br
ATOM     18  C   UNL     1      -0.691  10.327  23.135  0.00  0.00    +0.000 A 
ATOM     19  C   UNL     1       0.101   9.196  22.917  0.00  0.00    +0.000 A 
ATOM     20  C   UNL     1       0.621   9.013  21.629  0.00  0.00    +0.000 A 
ATOM     21  N   UNL     1       1.425   8.014  21.128  0.00  0.00    +0.000 N 
ATOM     22  H   UNL     1       1.766   7.232  21.668  0.00  0.00    +0.000 HD
ENDBRANCH   7  12
TORSDOF 1
ENDMDL
MODEL 3
REMARK VINA RESULT:      -7.5      6.935      8.217
REMARK  Name = 
REMARK  1 active torsions:
REMARK  status: ('A' for Active; 'I' for Inactive)
REMARK    1  A    between atoms: C_7  and  C_8
REMARK                            x       y       z     vdW  Elec       q    Type
REMARK                         _______ _______ _______ _____ _____    ______ ____
ROOT
ATOM      1 BR   UNL     1      11.502  16.094  18.693  0.00  0.00    +0.000 Br
ATOM      2  C   UNL     1      11.014  14.293  19.014  0.00  0.00    +0.000 A 
ATOM      3  C   UNL     1      11.594  13.605  20.078  0.00  0.00    +0.000 A 
ATOM      4  C   UNL     1      11.253  12.272  20.336  0.00  0.00    +0.000 A 
ATOM      5  C   UNL     1      10.320  11.669  19.486  0.00  0.00    +0.000 A 
ATOM      6  N   UNL     1       9.806  10.392  19.490  0.00  0.00    +0.000 N 
ATOM      7  C   UNL     1       8.926  10.214  18.449  0.00  0.00    +0.000 A 
ATOM      8  C   UNL     1       8.851  11.420  17.778  0.00  0.00    +0.000 A 
ATOM      9  C   UNL     1       9.729  12.339  18.416  0.00  0.00    +0.000 A 
ATOM     10  C   UNL     1      10.081  13.680  18.174  0.00  0.00    +0.000 A 
ATOM     11  H   UNL     1      10.058   9.678  20.158  0.00  0.00    +0.000 HD
ENDROOT
BRANCH   7  12
ATOM     12  C   UNL     1       8.277   8.969  18.188  0.00  0.00    +0.000 A 
ATOM     13  C   UNL     1       7.247   8.661  17.321  0.00  0.00    +0.000 A 
ATOM     14  C   UNL     1       6.934   7.281  17.473  0.00  0.00    +0.000 A 
ATOM     15  C   UNL     1       5.985   6.425  16.883  0.00  0.00    +0.000 A 
ATOM     16  C   UNL     1       5.943   5.088  17.286  0.00  0.00    +0.000 A 
ATOM     17 BR   UNL     1       4.667   3.928  16.507  0.00  0.00    +0.000 Br
ATOM     18  C   UNL     1       6.820   4.595  18.251  0.00  0.00    +0.000 A 
ATOM     19  C   UNL     1       7.772   5.429  18.844  0.00  0.00    +0.000 A 
ATOM     20  C   UNL     1       7.802   6.768  18.434  0.00  0.00    +0.000 A 
ATOM     21  N   UNL     1       8.610   7.806  18.839  0.00  0.00    +0.000 N 
ATOM     22  H   UNL     1       9.337   7.724  19.535  0.00  0.00    +0.000 HD
ENDBRANCH   7  12
TORSDOF 1
ENDMDL
MODEL 4
REMARK VINA RESULT:      -7.4      6.900      9.458
REMARK  Name = 
REMARK  1 active torsions:
REMARK  status: ('A' for Active; 'I' for Inactive)
REMARK    1  A    between atoms: C_7  and  C_8
REMARK                            x       y       z     vdW  Elec       q    Type
REMARK                         _______ _______ _______ _____ _____    ______ ____
ROOT
ATOM      1 BR   UNL     1       4.654   3.838  16.629  0.00  0.00    +0.000 Br
ATOM      2  C   UNL     1       5.937   5.008  17.384  0.00  0.00    +0.000 A 
ATOM      3  C   UNL     1       6.836   4.523  18.331  0.00  0.00    +0.000 A 
ATOM      4  C   UNL     1       7.792   5.367  18.906  0.00  0.00    +0.000 A 
ATOM      5  C   UNL     1       7.802   6.704  18.496  0.00  0.00    +0.000 A 
ATOM      6  N   UNL     1       8.609   7.749  18.885  0.00  0.00    +0.000 N 
ATOM      7  C   UNL     1       8.253   8.910  18.240  0.00  0.00    +0.000 A 
ATOM      8  C   UNL     1       7.209   8.592  17.392  0.00  0.00    +0.000 A 
ATOM      9  C   UNL     1       6.912   7.210  17.550  0.00  0.00    +0.000 A 
ATOM     10  C   UNL     1       5.960   6.346  16.979  0.00  0.00    +0.000 A 
ATOM     11  H   UNL     1       9.350   7.675  19.566  0.00  0.00    +0.000 HD
ENDROOT
BRANCH   7  12
ATOM     12  C   UNL     1       8.896  10.162  18.487  0.00  0.00    +0.000 A 
ATOM     13  C   UNL     1       8.868  11.339  17.767  0.00  0.00    +0.000 A 
ATOM     14  C   UNL     1       9.718  12.279  18.414  0.00  0.00    +0.000 A 
ATOM     15  C   UNL     1      10.093  13.607  18.140  0.00  0.00    +0.000 A 
ATOM     16  C   UNL     1      10.985  14.247  19.005  0.00  0.00    +0.000 A 
ATOM     17 BR   UNL     1      11.502  16.031  18.643  0.00  0.00    +0.000 Br
ATOM     18  C   UNL     1      11.501  13.596  20.124  0.00  0.00    +0.000 A 
ATOM     19  C   UNL     1      11.136  12.278  20.415  0.00  0.00    +0.000 A 
ATOM     20  C   UNL     1      10.244  11.647  19.539  0.00  0.00    +0.000 A 
ATOM     21  N   UNL     1       9.721  10.374  19.565  0.00  0.00    +0.000 N 
ATOM     22  H   UNL     1       9.932   9.686  20.272  0.00  0.00    +0.000 HD
ENDBRANCH   7  12
TORSDOF 1
ENDMDL
MODEL 5
REMARK VINA RESULT:      -7.3      0.951      8.132
REMARK  Name = 
REMARK  1 active torsions:
REMARK  status: ('A' for Active; 'I' for Inactive)
REMARK    1  A    between atoms: C_7  and  C_8
REMARK                            x       y       z     vdW  Elec       q    Type
REMARK                         _______ _______ _______ _____ _____    ______ ____
ROOT
ATOM      1 BR   UNL     1       6.668   4.337  14.584  0.00  0.00    +0.000 Br
ATOM      2  C   UNL     1       5.377   4.828  15.879  0.00  0.00    +0.000 A 
ATOM      3  C   UNL     1       4.723   3.836  16.607  0.00  0.00    +0.000 A 
ATOM      4  C   UNL     1       3.764   4.171  17.568  0.00  0.00    +0.000 A 
ATOM      5  C   UNL     1       3.490   5.530  17.760  0.00  0.00    +0.000 A 
ATOM      6  N   UNL     1       2.607   6.148  18.616  0.00  0.00    +0.000 N 
ATOM      7  C   UNL     1       2.644   7.513  18.455  0.00  0.00    +0.000 A 
ATOM      8  C   UNL     1       3.599   7.777  17.493  0.00  0.00    +0.000 A 
ATOM      9  C   UNL     1       4.132   6.537  17.043  0.00  0.00    +0.000 A 
ATOM     10  C   UNL     1       5.097   6.183  16.083  0.00  0.00    +0.000 A 
ATOM     11  H   UNL     1       2.001   5.662  19.260  0.00  0.00    +0.000 HD
ENDROOT
BRANCH   7  12
ATOM     12  C   UNL     1       1.797   8.402  19.187  0.00  0.00    +0.000 A 
ATOM     13  C   UNL     1       1.414   8.383  20.513  0.00  0.00    +0.000 A 
ATOM     14  C   UNL     1       0.521   9.468  20.735  0.00  0.00    +0.000 A 
ATOM     15  C   UNL     1      -0.192   9.933  21.856  0.00  0.00    +0.000 A 
ATOM     16  C   UNL     1      -1.013  11.055  21.714  0.00  0.00    +0.000 A 
ATOM     17 BR   UNL     1      -1.982  11.685  23.212  0.00  0.00    +0.000 Br
ATOM     18  C   UNL     1      -1.132  11.714  20.492  0.00  0.00    +0.000 A 
ATOM     19  C   UNL     1      -0.428  11.270  19.368  0.00  0.00    +0.000 A 
ATOM     20  C   UNL     1       0.388  10.143  19.523  0.00  0.00    +0.000 A 
ATOM     21  N   UNL     1       1.180   9.485  18.609  0.00  0.00    +0.000 N 
ATOM     22  H   UNL     1       1.277   9.754  17.641  0.00  0.00    +0.000 HD
ENDBRANCH   7  12
TORSDOF 1
ENDMDL
MODEL 6
REMARK VINA RESULT:      -7.3      1.098      8.099
REMARK  Name = 
REMARK  1 active torsions:
REMARK  status: ('A' for Active; 'I' for Inactive)
REMARK    1  A    between atoms: C_7  and  C_8
REMARK                            x       y       z     vdW  Elec       q    Type
REMARK                         _______ _______ _______ _____ _____    ______ ____
ROOT
ATOM      1 BR   UNL     1       6.072   3.962  15.643  0.00  0.00    +0.000 Br
ATOM      2  C   UNL     1       4.997   4.689  17.021  0.00  0.00    +0.000 A 
ATOM      3  C   UNL     1       4.771   3.948  18.179  0.00  0.00    +0.000 A 
ATOM      4  C   UNL     1       3.978   4.460  19.211  0.00  0.00    +0.000 A 
ATOM      5  C   UNL     1       3.426   5.733  19.030  0.00  0.00    +0.000 A 
ATOM      6  N   UNL     1       2.615   6.478  19.855  0.00  0.00    +0.000 N 
ATOM      7  C   UNL     1       2.282   7.674  19.265  0.00  0.00    +0.000 A 
ATOM      8  C   UNL     1       2.923   7.709  18.042  0.00  0.00    +0.000 A 
ATOM      9  C   UNL     1       3.639   6.491  17.880  0.00  0.00    +0.000 A 
ATOM     10  C   UNL     1       4.442   5.961  16.853  0.00  0.00    +0.000 A 
ATOM     11  H   UNL     1       2.293   6.176  20.763  0.00  0.00    +0.000 HD
ENDROOT
BRANCH   7  12
ATOM     12  C   UNL     1       1.413   8.626  19.882  0.00  0.00    +0.000 A 
ATOM     13  C   UNL     1       0.975   8.723  21.188  0.00  0.00    +0.000 A 
ATOM     14  C   UNL     1       0.083   9.828  21.278  0.00  0.00    +0.000 A 
ATOM     15  C   UNL     1      -0.671  10.391  22.325  0.00  0.00    +0.000 A 
ATOM     16  C   UNL     1      -1.477  11.500  22.053  0.00  0.00    +0.000 A 
ATOM     17 BR   UNL     1      -2.501  12.261  23.449  0.00  0.00    +0.000 Br
ATOM     18  C   UNL     1      -1.541  12.052  20.775  0.00  0.00    +0.000 A 
ATOM     19  C   UNL     1      -0.796  11.509  19.724  0.00  0.00    +0.000 A 
ATOM     20  C   UNL     1       0.005  10.396  20.009  0.00  0.00    +0.000 A 
ATOM     21  N   UNL     1       0.828   9.658  19.188  0.00  0.00    +0.000 N 
ATOM     22  H   UNL     1       0.967   9.842  18.205  0.00  0.00    +0.000 HD
ENDBRANCH   7  12
TORSDOF 1
ENDMDL
MODEL 7
REMARK VINA RESULT:      -7.3      7.260      9.766
REMARK  Name = 
REMARK  1 active torsions:
REMARK  status: ('A' for Active; 'I' for Inactive)
REMARK    1  A    between atoms: C_7  and  C_8
REMARK                            x       y       z     vdW  Elec       q    Type
REMARK                         _______ _______ _______ _____ _____    ______ ____
ROOT
ATOM      1 BR   UNL     1       4.937   4.229  16.498  0.00  0.00    +0.000 Br
ATOM      2  C   UNL     1       6.184   5.365  17.359  0.00  0.00    +0.000 A 
ATOM      3  C   UNL     1       6.966   4.864  18.397  0.00  0.00    +0.000 A 
ATOM      4  C   UNL     1       7.893   5.682  19.052  0.00  0.00    +0.000 A 
ATOM      5  C   UNL     1       7.994   7.011  18.625  0.00  0.00    +0.000 A 
ATOM      6  N   UNL     1       8.798   8.033  19.077  0.00  0.00    +0.000 N 
ATOM      7  C   UNL     1       8.551   9.194  18.384  0.00  0.00    +0.000 A 
ATOM      8  C   UNL     1       7.585   8.900  17.442  0.00  0.00    +0.000 A 
ATOM      9  C   UNL     1       7.221   7.532  17.589  0.00  0.00    +0.000 A 
ATOM     10  C   UNL     1       6.297   6.694  16.940  0.00  0.00    +0.000 A 
ATOM     11  H   UNL     1       9.465   7.943  19.829  0.00  0.00    +0.000 HD
ENDROOT
BRANCH   7  12
ATOM     12  C   UNL     1       9.214  10.426  18.675  0.00  0.00    +0.000 A 
ATOM     13  C   UNL     1       9.254  11.167  19.839  0.00  0.00    +0.000 A 
ATOM     14  C   UNL     1      10.018  12.342  19.595  0.00  0.00    +0.000 A 
ATOM     15  C   UNL     1      10.379  13.453  20.380  0.00  0.00    +0.000 A 
ATOM     16  C   UNL     1      11.151  14.463  19.801  0.00  0.00    +0.000 A 
ATOM     17 BR   UNL     1      11.637  15.966  20.843  0.00  0.00    +0.000 Br
ATOM     18  C   UNL     1      11.567  14.386  18.472  0.00  0.00    +0.000 A 
ATOM     19  C   UNL     1      11.222  13.287  17.679  0.00  0.00    +0.000 A 
ATOM     20  C   UNL     1      10.445  12.283  18.270  0.00  0.00    +0.000 A 
ATOM     21  N   UNL     1       9.956  11.110  17.743  0.00  0.00    +0.000 N 
ATOM     22  H   UNL     1      10.108  10.805  16.792  0.00  0.00    +0.000 HD
ENDBRANCH   7  12
TORSDOF 1
ENDMDL
MODEL 8
REMARK VINA RESULT:      -7.2      1.279      1.917
REMARK  Name = 
REMARK  1 active torsions:
REMARK  status: ('A' for Active; 'I' for Inactive)
REMARK    1  A    between atoms: C_7  and  C_8
REMARK                            x       y       z     vdW  Elec       q    Type
REMARK                         _______ _______ _______ _____ _____    ______ ____
ROOT
ATOM      1 BR   UNL     1      -2.615  12.836  23.457  0.00  0.00    +0.000 Br
ATOM      2  C   UNL     1      -1.684  11.946  22.070  0.00  0.00    +0.000 A 
ATOM      3  C   UNL     1      -1.917  12.308  20.745  0.00  0.00    +0.000 A 
ATOM      4  C   UNL     1      -1.244  11.665  19.700  0.00  0.00    +0.000 A 
ATOM      5  C   UNL     1      -0.342  10.652  20.041  0.00  0.00    +0.000 A 
ATOM      6  N   UNL     1       0.445   9.853  19.242  0.00  0.00    +0.000 N 
ATOM      7  C   UNL     1       1.168   8.963  20.000  0.00  0.00    +0.000 A 
ATOM      8  C   UNL     1       0.860   9.219  21.322  0.00  0.00    +0.000 A 
ATOM      9  C   UNL     1      -0.095  10.273  21.360  0.00  0.00    +0.000 A 
ATOM     10  C   UNL     1      -0.777  10.933  22.398  0.00  0.00    +0.000 A 
ATOM     11  H   UNL     1       0.471   9.904  18.234  0.00  0.00    +0.000 HD
ENDROOT
BRANCH   7  12
ATOM     12  C   UNL     1       2.037   7.984  19.426  0.00  0.00    +0.000 A 
ATOM     13  C   UNL     1       2.653   7.950  18.191  0.00  0.00    +0.000 A 
ATOM     14  C   UNL     1       3.380   6.731  18.088  0.00  0.00    +0.000 A 
ATOM     15  C   UNL     1       4.170   6.147  17.080  0.00  0.00    +0.000 A 
ATOM     16  C   UNL     1       4.742   4.894  17.315  0.00  0.00    +0.000 A 
ATOM     17 BR   UNL     1       5.800   4.095  15.966  0.00  0.00    +0.000 Br
ATOM     18  C   UNL     1       4.546   4.223  18.521  0.00  0.00    +0.000 A 
ATOM     19  C   UNL     1       3.768   4.790  19.536  0.00  0.00    +0.000 A 
ATOM     20  C   UNL     1       3.198   6.044  19.286  0.00  0.00    +0.000 A 
ATOM     21  N   UNL     1       2.393   6.830  20.080  0.00  0.00    +0.000 N 
ATOM     22  H   UNL     1       2.092   6.580  21.011  0.00  0.00    +0.000 HD
ENDBRANCH   7  12
TORSDOF 1
ENDMDL
MODEL 9
REMARK VINA RESULT:      -7.1      7.095      8.193
REMARK  Name = 
REMARK  1 active torsions:
REMARK  status: ('A' for Active; 'I' for Inactive)
REMARK    1  A    between atoms: C_7  and  C_8
REMARK                            x       y       z     vdW  Elec       q    Type
REMARK                         _______ _______ _______ _____ _____    ______ ____
ROOT
ATOM      1 BR   UNL     1      10.950  15.787  21.870  0.00  0.00    +0.000 Br
ATOM      2  C   UNL     1      10.661  14.367  20.652  0.00  0.00    +0.000 A 
ATOM      3  C   UNL     1      11.181  14.453  19.362  0.00  0.00    +0.000 A 
ATOM      4  C   UNL     1      10.980  13.419  18.442  0.00  0.00    +0.000 A 
ATOM      5  C   UNL     1      10.240  12.311  18.867  0.00  0.00    +0.000 A 
ATOM      6  N   UNL     1       9.882  11.166  18.192  0.00  0.00    +0.000 N 
ATOM      7  C   UNL     1       9.123  10.343  18.991  0.00  0.00    +0.000 A 
ATOM      8  C   UNL     1       9.019  10.964  20.221  0.00  0.00    +0.000 A 
ATOM      9  C   UNL     1       9.710  12.206  20.152  0.00  0.00    +0.000 A 
ATOM     10  C   UNL     1       9.925  13.253  21.066  0.00  0.00    +0.000 A 
ATOM     11  H   UNL     1      10.128  10.968  17.234  0.00  0.00    +0.000 HD
ENDROOT
BRANCH   7  12
ATOM     12  C   UNL     1       8.578   9.105  18.531  0.00  0.00    +0.000 A 
ATOM     13  C   UNL     1       7.801   8.826  17.424  0.00  0.00    +0.000 A 
ATOM     14  C   UNL     1       7.482   7.439  17.442  0.00  0.00    +0.000 A 
ATOM     15  C   UNL     1       6.722   6.602  16.603  0.00  0.00    +0.000 A 
ATOM     16  C   UNL     1       6.603   5.249  16.933  0.00  0.00    +0.000 A 
ATOM     17 BR   UNL     1       5.579   4.114  15.819  0.00  0.00    +0.000 Br
ATOM     18  C   UNL     1       7.221   4.723  18.067  0.00  0.00    +0.000 A 
ATOM     19  C   UNL     1       7.982   5.539  18.909  0.00  0.00    +0.000 A 
ATOM     20  C   UNL     1       8.092   6.893  18.569  0.00  0.00    +0.000 A 
ATOM     21  N   UNL     1       8.758   7.919  19.201  0.00  0.00    +0.000 N 
ATOM     22  H   UNL     1       9.290   7.814  20.052  0.00  0.00    +0.000 HD
ENDBRANCH   7  12
TORSDOF 1
ENDMDL
