MODEL 1
REMARK VINA RESULT:      -7.1      0.000      0.000
REMARK  Name = 
REMARK  6 active torsions:
REMARK  status: ('A' for Active; 'I' for Inactive)
REMARK    1  A    between atoms: C_2  and  C_3
REMARK    2  A    between atoms: C_3  and  C_4
REMARK    3  A    between atoms: C_4  and  C_5
REMARK    4  A    between atoms: N_11  and  C_12
REMARK    5  A    between atoms: C_12  and  C_13
REMARK    6  A    between atoms: C_13  and  N_14
REMARK                            x       y       z     vdW  Elec       q    Type
REMARK                         _______ _______ _______ _____ _____    ______ ____
ROOT
ATOM      1  O   UNL     1       8.296   7.082  18.736  0.00  0.00    +0.000 OA
ATOM      2  C   UNL     1       7.858   7.813  17.853  0.00  0.00    +0.000 C 
ATOM      3  N   UNL     1       7.055   7.350  16.833  0.00  0.00    +0.000 N 
ATOM      4  H   UNL     1       6.776   7.991  16.098  0.00  0.00    +0.000 HD
ENDROOT
BRANCH   2   5
ATOM      5  C   UNL     1       8.101   9.310  17.814  0.00  0.00    +0.000 C 
BRANCH   5   6
ATOM      6  C   UNL     1       9.020   9.746  18.957  0.00  0.00    +0.000 C 
BRANCH   6   7
ATOM      7  C   UNL     1       9.706  11.060  18.670  0.00  0.00    +0.000 A 
ATOM      8  C   UNL     1       9.079  12.028  17.872  0.00  0.00    +0.000 A 
ATOM      9  C   UNL     1       9.729  13.226  17.569  0.00  0.00    +0.000 A 
ATOM     10  C   UNL     1      11.009  13.471  18.060  0.00  0.00    +0.000 A 
ATOM     11  C   UNL     1      11.635  12.525  18.869  0.00  0.00    +0.000 A 
ATOM     12  C   UNL     1      10.988  11.324  19.172  0.00  0.00    +0.000 A 
ENDBRANCH   6   7
ENDBRANCH   5   6
ENDBRANCH   2   5
BRANCH   3  13
ATOM     13  C   UNL     1       6.735   5.935  16.694  0.00  0.00    +0.000 C 
BRANCH  13  14
ATOM     14  C   UNL     1       5.303   5.708  16.199  0.00  0.00    +0.000 C 
BRANCH  14  15
ATOM     15  N   UNL     1       4.311   6.140  17.189  0.00  0.00    +0.000 N 
ATOM     16  C   UNL     1       3.463   5.087  17.598  0.00  0.00    +0.000 A 
ATOM     17  C   UNL     1       2.467   5.314  18.553  0.00  0.00    +0.000 A 
ATOM     18  N   UNL     1       1.614   4.352  19.000  0.00  0.00    +0.000 NA
ATOM     19  C   UNL     1       1.801   3.132  18.457  0.00  0.00    +0.000 A 
ATOM     20  C   UNL     1       2.784   2.891  17.516  0.00  0.00    +0.000 A 
ATOM     21  N   UNL     1       3.629   3.853  17.080  0.00  0.00    +0.000 NA
ATOM     22  H   UNL     1       3.730   6.902  16.847  0.00  0.00    +0.000 HD
ENDBRANCH  14  15
ENDBRANCH  13  14
ENDBRANCH   3  13
TORSDOF 6
ENDMDL
MODEL 2
REMARK VINA RESULT:      -7.0      2.351      9.245
REMARK  Name = 
REMARK  6 active torsions:
REMARK  status: ('A' for Active; 'I' for Inactive)
REMARK    1  A    between atoms: C_2  and  C_3
REMARK    2  A    between atoms: C_3  and  C_4
REMARK    3  A    between atoms: C_4  and  C_5
REMARK    4  A    between atoms: N_11  and  C_12
REMARK    5  A    between atoms: C_12  and  C_13
REMARK    6  A    between atoms: C_13  and  N_14
REMARK                            x       y       z     vdW  Elec       q    Type
REMARK                         _______ _______ _______ _____ _____    ______ ____
ROOT
ATOM      1  O   UNL     1       5.770   5.226  18.711  0.00  0.00    +0.000 OA
ATOM      2  C   UNL     1       5.451   6.026  17.836  0.00  0.00    +0.000 C 
ATOM      3  N   UNL     1       6.325   6.964  17.330  0.00  0.00    +0.000 N 
ATOM      4  H   UNL     1       5.983   7.639  16.654  0.00  0.00    +0.000 HD
ENDROOT
BRANCH   2   5
ATOM      5  C   UNL     1       4.085   6.038  17.177  0.00  0.00    +0.000 C 
BRANCH   5   6
ATOM      6  C   UNL     1       3.000   6.456  18.172  0.00  0.00    +0.000 C 
BRANCH   6   7
ATOM      7  C   UNL     1       2.249   5.271  18.731  0.00  0.00    +0.000 A 
ATOM      8  C   UNL     1       1.944   5.206  20.097  0.00  0.00    +0.000 A 
ATOM      9  C   UNL     1       1.288   4.092  20.626  0.00  0.00    +0.000 A 
ATOM     10  C   UNL     1       0.929   3.034  19.794  0.00  0.00    +0.000 A 
ATOM     11  C   UNL     1       1.211   3.095  18.431  0.00  0.00    +0.000 A 
ATOM     12  C   UNL     1       1.869   4.207  17.901  0.00  0.00    +0.000 A 
ENDBRANCH   6   7
ENDBRANCH   5   6
ENDBRANCH   2   5
BRANCH   3  13
ATOM     13  C   UNL     1       7.674   7.118  17.861  0.00  0.00    +0.000 C 
BRANCH  13  14
ATOM     14  C   UNL     1       8.167   8.567  17.787  0.00  0.00    +0.000 C 
BRANCH  14  15
ATOM     15  N   UNL     1       8.845   8.974  19.022  0.00  0.00    +0.000 N 
ATOM     16  C   UNL     1       9.141  10.354  19.045  0.00  0.00    +0.000 A 
ATOM     17  C   UNL     1       9.772  10.922  20.157  0.00  0.00    +0.000 A 
ATOM     18  N   UNL     1      10.088  12.242  20.256  0.00  0.00    +0.000 NA
ATOM     19  C   UNL     1       9.736  12.990  19.190  0.00  0.00    +0.000 A 
ATOM     20  C   UNL     1       9.106  12.445  18.087  0.00  0.00    +0.000 A 
ATOM     21  N   UNL     1       8.795  11.132  17.999  0.00  0.00    +0.000 NA
ATOM     22  H   UNL     1       9.709   8.459  19.176  0.00  0.00    +0.000 HD
ENDBRANCH  14  15
ENDBRANCH  13  14
ENDBRANCH   3  13
TORSDOF 6
ENDMDL
MODEL 3
REMARK VINA RESULT:      -6.9      1.695      1.990
REMARK  Name = 
REMARK  6 active torsions:
REMARK  status: ('A' for Active; 'I' for Inactive)
REMARK    1  A    between atoms: C_2  and  C_3
REMARK    2  A    between atoms: C_3  and  C_4
REMARK    3  A    between atoms: C_4  and  C_5
REMARK    4  A    between atoms: N_11  and  C_12
REMARK    5  A    between atoms: C_12  and  C_13
REMARK    6  A    between atoms: C_13  and  N_14
REMARK                            x       y       z     vdW  Elec       q    Type
REMARK                         _______ _______ _______ _____ _____    ______ ____
ROOT
ATOM      1  O   UNL     1       7.821   7.419  16.454  0.00  0.00    +0.000 OA
ATOM      2  C   UNL     1       7.635   7.409  17.667  0.00  0.00    +0.000 C 
ATOM      3  N   UNL     1       6.765   6.533  18.280  0.00  0.00    +0.000 N 
ATOM      4  H   UNL     1       6.608   6.616  19.279  0.00  0.00    +0.000 HD
ENDROOT
BRANCH   2   5
ATOM      5  C   UNL     1       8.377   8.316  18.630  0.00  0.00    +0.000 C 
BRANCH   5   6
ATOM      6  C   UNL     1       8.353   9.767  18.146  0.00  0.00    +0.000 C 
BRANCH   6   7
ATOM      7  C   UNL     1       9.448  10.597  18.772  0.00  0.00    +0.000 A 
ATOM      8  C   UNL     1      10.556  10.997  18.012  0.00  0.00    +0.000 A 
ATOM      9  C   UNL     1      11.592  11.728  18.598  0.00  0.00    +0.000 A 
ATOM     10  C   UNL     1      11.531  12.068  19.947  0.00  0.00    +0.000 A 
ATOM     11  C   UNL     1      10.426  11.691  20.709  0.00  0.00    +0.000 A 
ATOM     12  C   UNL     1       9.389  10.959  20.125  0.00  0.00    +0.000 A 
ENDBRANCH   6   7
ENDBRANCH   5   6
ENDBRANCH   2   5
BRANCH   3  13
ATOM     13  C   UNL     1       5.946   5.605  17.511  0.00  0.00    +0.000 C 
BRANCH  13  14
ATOM     14  C   UNL     1       6.153   4.150  17.944  0.00  0.00    +0.000 C 
BRANCH  14  15
ATOM     15  N   UNL     1       5.505   3.867  19.229  0.00  0.00    +0.000 N 
ATOM     16  C   UNL     1       4.235   3.270  19.073  0.00  0.00    +0.000 A 
ATOM     17  C   UNL     1       3.481   2.914  20.196  0.00  0.00    +0.000 A 
ATOM     18  N   UNL     1       2.251   2.333  20.129  0.00  0.00    +0.000 NA
ATOM     19  C   UNL     1       1.800   2.106  18.878  0.00  0.00    +0.000 A 
ATOM     20  C   UNL     1       2.536   2.447  17.759  0.00  0.00    +0.000 A 
ATOM     21  N   UNL     1       3.758   3.022  17.837  0.00  0.00    +0.000 NA
ATOM     22  H   UNL     1       5.396   4.703  19.799  0.00  0.00    +0.000 HD
ENDBRANCH  14  15
ENDBRANCH  13  14
ENDBRANCH   3  13
TORSDOF 6
ENDMDL
MODEL 4
REMARK VINA RESULT:      -6.9      0.951      1.349
REMARK  Name = 
REMARK  6 active torsions:
REMARK  status: ('A' for Active; 'I' for Inactive)
REMARK    1  A    between atoms: C_2  and  C_3
REMARK    2  A    between atoms: C_3  and  C_4
REMARK    3  A    between atoms: C_4  and  C_5
REMARK    4  A    between atoms: N_11  and  C_12
REMARK    5  A    between atoms: C_12  and  C_13
REMARK    6  A    between atoms: C_13  and  N_14
REMARK                            x       y       z     vdW  Elec       q    Type
REMARK                         _______ _______ _______ _____ _____    ______ ____
ROOT
ATOM      1  O   UNL     1       8.203   6.916  18.794  0.00  0.00    +0.000 OA
ATOM      2  C   UNL     1       7.881   7.690  17.897  0.00  0.00    +0.000 C 
ATOM      3  N   UNL     1       7.162   7.291  16.791  0.00  0.00    +0.000 N 
ATOM      4  H   UNL     1       6.981   7.964  16.055  0.00  0.00    +0.000 HD
ENDROOT
BRANCH   2   5
ATOM      5  C   UNL     1       8.185   9.175  17.930  0.00  0.00    +0.000 C 
BRANCH   5   6
ATOM      6  C   UNL     1       8.999   9.541  19.174  0.00  0.00    +0.000 C 
BRANCH   6   7
ATOM      7  C   UNL     1       9.673  10.885  19.042  0.00  0.00    +0.000 A 
ATOM      8  C   UNL     1      10.250  11.273  17.825  0.00  0.00    +0.000 A 
ATOM      9  C   UNL     1      10.912  12.497  17.711  0.00  0.00    +0.000 A 
ATOM     10  C   UNL     1      11.004  13.347  18.811  0.00  0.00    +0.000 A 
ATOM     11  C   UNL     1      10.420  12.980  20.022  0.00  0.00    +0.000 A 
ATOM     12  C   UNL     1       9.758  11.755  20.138  0.00  0.00    +0.000 A 
ENDBRANCH   6   7
ENDBRANCH   5   6
ENDBRANCH   2   5
BRANCH   3  13
ATOM     13  C   UNL     1       6.802   5.895  16.576  0.00  0.00    +0.000 C 
BRANCH  13  14
ATOM     14  C   UNL     1       5.341   5.731  16.143  0.00  0.00    +0.000 C 
BRANCH  14  15
ATOM     15  N   UNL     1       4.870   4.354  16.330  0.00  0.00    +0.000 N 
ATOM     16  C   UNL     1       3.770   4.275  17.211  0.00  0.00    +0.000 A 
ATOM     17  C   UNL     1       3.178   3.040  17.491  0.00  0.00    +0.000 A 
ATOM     18  N   UNL     1       2.115   2.881  18.326  0.00  0.00    +0.000 NA
ATOM     19  C   UNL     1       1.650   4.023  18.873  0.00  0.00    +0.000 A 
ATOM     20  C   UNL     1       2.220   5.253  18.601  0.00  0.00    +0.000 A 
ATOM     21  N   UNL     1       3.275   5.399  17.768  0.00  0.00    +0.000 NA
ATOM     22  H   UNL     1       5.602   3.739  16.677  0.00  0.00    +0.000 HD
ENDBRANCH  14  15
ENDBRANCH  13  14
ENDBRANCH   3  13
TORSDOF 6
ENDMDL
MODEL 5
REMARK VINA RESULT:      -6.9      1.743      2.033
REMARK  Name = 
REMARK  6 active torsions:
REMARK  status: ('A' for Active; 'I' for Inactive)
REMARK    1  A    between atoms: C_2  and  C_3
REMARK    2  A    between atoms: C_3  and  C_4
REMARK    3  A    between atoms: C_4  and  C_5
REMARK    4  A    between atoms: N_11  and  C_12
REMARK    5  A    between atoms: C_12  and  C_13
REMARK    6  A    between atoms: C_13  and  N_14
REMARK                            x       y       z     vdW  Elec       q    Type
REMARK                         _______ _______ _______ _____ _____    ______ ____
ROOT
ATOM      1  O   UNL     1       7.651   7.680  16.747  0.00  0.00    +0.000 OA
ATOM      2  C   UNL     1       7.880   7.496  17.938  0.00  0.00    +0.000 C 
ATOM      3  N   UNL     1       7.593   6.310  18.578  0.00  0.00    +0.000 N 
ATOM      4  H   UNL     1       7.748   6.241  19.578  0.00  0.00    +0.000 HD
ENDROOT
BRANCH   2   5
ATOM      5  C   UNL     1       8.552   8.527  18.825  0.00  0.00    +0.000 C 
BRANCH   5   6
ATOM      6  C   UNL     1       8.753   9.847  18.078  0.00  0.00    +0.000 C 
BRANCH   6   7
ATOM      7  C   UNL     1       9.655  10.798  18.827  0.00  0.00    +0.000 A 
ATOM      8  C   UNL     1       9.511  10.969  20.211  0.00  0.00    +0.000 A 
ATOM      9  C   UNL     1      10.315  11.880  20.900  0.00  0.00    +0.000 A 
ATOM     10  C   UNL     1      11.270  12.628  20.214  0.00  0.00    +0.000 A 
ATOM     11  C   UNL     1      11.434  12.453  18.842  0.00  0.00    +0.000 A 
ATOM     12  C   UNL     1      10.630  11.544  18.150  0.00  0.00    +0.000 A 
ENDBRANCH   6   7
ENDBRANCH   5   6
ENDBRANCH   2   5
BRANCH   3  13
ATOM     13  C   UNL     1       6.922   5.213  17.891  0.00  0.00    +0.000 C 
BRANCH  13  14
ATOM     14  C   UNL     1       5.861   4.539  18.767  0.00  0.00    +0.000 C 
BRANCH  14  15
ATOM     15  N   UNL     1       4.781   5.466  19.123  0.00  0.00    +0.000 N 
ATOM     16  C   UNL     1       3.645   4.799  19.633  0.00  0.00    +0.000 A 
ATOM     17  C   UNL     1       2.524   5.529  20.041  0.00  0.00    +0.000 A 
ATOM     18  N   UNL     1       1.394   4.961  20.544  0.00  0.00    +0.000 NA
ATOM     19  C   UNL     1       1.428   3.616  20.635  0.00  0.00    +0.000 A 
ATOM     20  C   UNL     1       2.531   2.881  20.241  0.00  0.00    +0.000 A 
ATOM     21  N   UNL     1       3.650   3.455  19.745  0.00  0.00    +0.000 NA
ATOM     22  H   UNL     1       4.488   6.039  18.336  0.00  0.00    +0.000 HD
ENDBRANCH  14  15
ENDBRANCH  13  14
ENDBRANCH   3  13
TORSDOF 6
ENDMDL
MODEL 6
REMARK VINA RESULT:      -6.8      4.483      8.113
REMARK  Name = 
REMARK  6 active torsions:
REMARK  status: ('A' for Active; 'I' for Inactive)
REMARK    1  A    between atoms: C_2  and  C_3
REMARK    2  A    between atoms: C_3  and  C_4
REMARK    3  A    between atoms: C_4  and  C_5
REMARK    4  A    between atoms: N_11  and  C_12
REMARK    5  A    between atoms: C_12  and  C_13
REMARK    6  A    between atoms: C_13  and  N_14
REMARK                            x       y       z     vdW  Elec       q    Type
REMARK                         _______ _______ _______ _____ _____    ______ ____
ROOT
ATOM      1  O   UNL     1       4.829   6.917  15.914  0.00  0.00    +0.000 OA
ATOM      2  C   UNL     1       4.590   6.608  17.077  0.00  0.00    +0.000 C 
ATOM      3  N   UNL     1       5.579   6.290  17.983  0.00  0.00    +0.000 N 
ATOM      4  H   UNL     1       5.313   5.982  18.912  0.00  0.00    +0.000 HD
ENDROOT
BRANCH   2   5
ATOM      5  C   UNL     1       3.191   6.592  17.664  0.00  0.00    +0.000 C 
BRANCH   5   6
ATOM      6  C   UNL     1       3.223   6.225  19.149  0.00  0.00    +0.000 C 
BRANCH   6   7
ATOM      7  C   UNL     1       2.396   4.999  19.454  0.00  0.00    +0.000 A 
ATOM      8  C   UNL     1       2.200   4.588  20.779  0.00  0.00    +0.000 A 
ATOM      9  C   UNL     1       1.473   3.430  21.063  0.00  0.00    +0.000 A 
ATOM     10  C   UNL     1       0.932   2.673  20.026  0.00  0.00    +0.000 A 
ATOM     11  C   UNL     1       1.105   3.081  18.705  0.00  0.00    +0.000 A 
ATOM     12  C   UNL     1       1.834   4.238  18.419  0.00  0.00    +0.000 A 
ENDBRANCH   6   7
ENDBRANCH   5   6
ENDBRANCH   2   5
BRANCH   3  13
ATOM     13  C   UNL     1       6.982   6.227  17.592  0.00  0.00    +0.000 C 
BRANCH  13  14
ATOM     14  C   UNL     1       7.449   4.791  17.330  0.00  0.00    +0.000 C 
BRANCH  14  15
ATOM     15  N   UNL     1       6.500   4.056  16.488  0.00  0.00    +0.000 N 
ATOM     16  C   UNL     1       6.729   4.264  15.110  0.00  0.00    +0.000 A 
ATOM     17  C   UNL     1       5.928   3.624  14.158  0.00  0.00    +0.000 A 
ATOM     18  N   UNL     1       6.087   3.771  12.814  0.00  0.00    +0.000 NA
ATOM     19  C   UNL     1       7.097   4.586  12.449  0.00  0.00    +0.000 A 
ATOM     20  C   UNL     1       7.900   5.221  13.377  0.00  0.00    +0.000 A 
ATOM     21  N   UNL     1       7.736   5.066  14.711  0.00  0.00    +0.000 NA
ATOM     22  H   UNL     1       5.534   4.299  16.691  0.00  0.00    +0.000 HD
ENDBRANCH  14  15
ENDBRANCH  13  14
ENDBRANCH   3  13
TORSDOF 6
ENDMDL
MODEL 7
REMARK VINA RESULT:      -6.8      2.267      9.302
REMARK  Name = 
REMARK  6 active torsions:
REMARK  status: ('A' for Active; 'I' for Inactive)
REMARK    1  A    between atoms: C_2  and  C_3
REMARK    2  A    between atoms: C_3  and  C_4
REMARK    3  A    between atoms: C_4  and  C_5
REMARK    4  A    between atoms: N_11  and  C_12
REMARK    5  A    between atoms: C_12  and  C_13
REMARK    6  A    between atoms: C_13  and  N_14
REMARK                            x       y       z     vdW  Elec       q    Type
REMARK                         _______ _______ _______ _____ _____    ______ ____
ROOT
ATOM      1  O   UNL     1       7.469   5.084  16.669  0.00  0.00    +0.000 OA
ATOM      2  C   UNL     1       6.553   5.899  16.708  0.00  0.00    +0.000 C 
ATOM      3  N   UNL     1       6.722   7.190  17.160  0.00  0.00    +0.000 N 
ATOM      4  H   UNL     1       5.913   7.797  17.227  0.00  0.00    +0.000 HD
ENDROOT
BRANCH   2   5
ATOM      5  C   UNL     1       5.150   5.599  16.216  0.00  0.00    +0.000 C 
BRANCH   5   6
ATOM      6  C   UNL     1       4.103   6.036  17.243  0.00  0.00    +0.000 C 
BRANCH   6   7
ATOM      7  C   UNL     1       3.241   4.887  17.707  0.00  0.00    +0.000 A 
ATOM      8  C   UNL     1       3.511   3.580  17.279  0.00  0.00    +0.000 A 
ATOM      9  C   UNL     1       2.691   2.520  17.671  0.00  0.00    +0.000 A 
ATOM     10  C   UNL     1       1.593   2.756  18.496  0.00  0.00    +0.000 A 
ATOM     11  C   UNL     1       1.324   4.048  18.943  0.00  0.00    +0.000 A 
ATOM     12  C   UNL     1       2.143   5.110  18.550  0.00  0.00    +0.000 A 
ENDBRANCH   6   7
ENDBRANCH   5   6
ENDBRANCH   2   5
BRANCH   3  13
ATOM     13  C   UNL     1       7.997   7.651  17.697  0.00  0.00    +0.000 C 
BRANCH  13  14
ATOM     14  C   UNL     1       7.991   9.152  18.002  0.00  0.00    +0.000 C 
BRANCH  14  15
ATOM     15  N   UNL     1       8.961   9.499  19.046  0.00  0.00    +0.000 N 
ATOM     16  C   UNL     1       9.447  10.818  18.915  0.00  0.00    +0.000 A 
ATOM     17  C   UNL     1      10.368  11.326  19.836  0.00  0.00    +0.000 A 
ATOM     18  N   UNL     1      10.880  12.586  19.779  0.00  0.00    +0.000 NA
ATOM     19  C   UNL     1      10.424  13.337  18.756  0.00  0.00    +0.000 A 
ATOM     20  C   UNL     1       9.509  12.852  17.841  0.00  0.00    +0.000 A 
ATOM     21  N   UNL     1       9.004  11.599  17.908  0.00  0.00    +0.000 NA
ATOM     22  H   UNL     1       9.757   8.866  19.060  0.00  0.00    +0.000 HD
ENDBRANCH  14  15
ENDBRANCH  13  14
ENDBRANCH   3  13
TORSDOF 6
ENDMDL
MODEL 8
REMARK VINA RESULT:      -6.8      2.348      9.185
REMARK  Name = 
REMARK  6 active torsions:
REMARK  status: ('A' for Active; 'I' for Inactive)
REMARK    1  A    between atoms: C_2  and  C_3
REMARK    2  A    between atoms: C_3  and  C_4
REMARK    3  A    between atoms: C_4  and  C_5
REMARK    4  A    between atoms: N_11  and  C_12
REMARK    5  A    between atoms: C_12  and  C_13
REMARK    6  A    between atoms: C_13  and  N_14
REMARK                            x       y       z     vdW  Elec       q    Type
REMARK                         _______ _______ _______ _____ _____    ______ ____
ROOT
ATOM      1  O   UNL     1       7.528   5.161  16.866  0.00  0.00    +0.000 OA
ATOM      2  C   UNL     1       6.689   6.044  16.719  0.00  0.00    +0.000 C 
ATOM      3  N   UNL     1       6.874   7.331  17.175  0.00  0.00    +0.000 N 
ATOM      4  H   UNL     1       6.118   8.000  17.078  0.00  0.00    +0.000 HD
ENDROOT
BRANCH   2   5
ATOM      5  C   UNL     1       5.383   5.836  15.976  0.00  0.00    +0.000 C 
BRANCH   5   6
ATOM      6  C   UNL     1       4.928   4.378  16.064  0.00  0.00    +0.000 C 
BRANCH   6   7
ATOM      7  C   UNL     1       3.899   4.164  17.149  0.00  0.00    +0.000 A 
ATOM      8  C   UNL     1       3.187   5.252  17.674  0.00  0.00    +0.000 A 
ATOM      9  C   UNL     1       2.266   5.064  18.707  0.00  0.00    +0.000 A 
ATOM     10  C   UNL     1       2.048   3.790  19.226  0.00  0.00    +0.000 A 
ATOM     11  C   UNL     1       2.737   2.699  18.701  0.00  0.00    +0.000 A 
ATOM     12  C   UNL     1       3.660   2.884  17.668  0.00  0.00    +0.000 A 
ENDBRANCH   6   7
ENDBRANCH   5   6
ENDBRANCH   2   5
BRANCH   3  13
ATOM     13  C   UNL     1       8.059   7.710  17.935  0.00  0.00    +0.000 C 
BRANCH  13  14
ATOM     14  C   UNL     1       8.212   9.230  18.055  0.00  0.00    +0.000 C 
BRANCH  14  15
ATOM     15  N   UNL     1       9.052   9.604  19.197  0.00  0.00    +0.000 N 
ATOM     16  C   UNL     1       9.595  10.901  19.067  0.00  0.00    +0.000 A 
ATOM     17  C   UNL     1      10.408  11.429  20.074  0.00  0.00    +0.000 A 
ATOM     18  N   UNL     1      10.966  12.670  20.023  0.00  0.00    +0.000 NA
ATOM     19  C   UNL     1      10.669  13.380  18.915  0.00  0.00    +0.000 A 
ATOM     20  C   UNL     1       9.863  12.873  17.914  0.00  0.00    +0.000 A 
ATOM     21  N   UNL     1       9.311  11.639  17.975  0.00  0.00    +0.000 NA
ATOM     22  H   UNL     1       9.818   8.950  19.344  0.00  0.00    +0.000 HD
ENDBRANCH  14  15
ENDBRANCH  13  14
ENDBRANCH   3  13
TORSDOF 6
ENDMDL
MODEL 9
REMARK VINA RESULT:      -6.8      1.514      2.150
REMARK  Name = 
REMARK  6 active torsions:
REMARK  status: ('A' for Active; 'I' for Inactive)
REMARK    1  A    between atoms: C_2  and  C_3
REMARK    2  A    between atoms: C_3  and  C_4
REMARK    3  A    between atoms: C_4  and  C_5
REMARK    4  A    between atoms: N_11  and  C_12
REMARK    5  A    between atoms: C_12  and  C_13
REMARK    6  A    between atoms: C_13  and  N_14
REMARK                            x       y       z     vdW  Elec       q    Type
REMARK                         _______ _______ _______ _____ _____    ______ ____
ROOT
ATOM      1  O   UNL     1       7.565   6.415  16.448  0.00  0.00    +0.000 OA
ATOM      2  C   UNL     1       7.287   7.028  17.473  0.00  0.00    +0.000 C 
ATOM      3  N   UNL     1       6.053   6.941  18.082  0.00  0.00    +0.000 N 
ATOM      4  H   UNL     1       5.864   7.521  18.892  0.00  0.00    +0.000 HD
ENDROOT
BRANCH   2   5
ATOM      5  C   UNL     1       8.278   7.905  18.215  0.00  0.00    +0.000 C 
BRANCH   5   6
ATOM      6  C   UNL     1       8.061   9.382  17.880  0.00  0.00    +0.000 C 
BRANCH   6   7
ATOM      7  C   UNL     1       9.076  10.276  18.551  0.00  0.00    +0.000 A 
ATOM      8  C   UNL     1       9.116  10.380  19.948  0.00  0.00    +0.000 A 
ATOM      9  C   UNL     1      10.024  11.239  20.571  0.00  0.00    +0.000 A 
ATOM     10  C   UNL     1      10.902  12.001  19.804  0.00  0.00    +0.000 A 
ATOM     11  C   UNL     1      10.885  11.894  18.415  0.00  0.00    +0.000 A 
ATOM     12  C   UNL     1       9.976  11.036  17.790  0.00  0.00    +0.000 A 
ENDBRANCH   6   7
ENDBRANCH   5   6
ENDBRANCH   2   5
BRANCH   3  13
ATOM     13  C   UNL     1       4.966   6.165  17.499  0.00  0.00    +0.000 C 
BRANCH  13  14
ATOM     14  C   UNL     1       3.599   6.556  18.071  0.00  0.00    +0.000 C 
BRANCH  14  15
ATOM     15  N   UNL     1       3.472   6.176  19.482  0.00  0.00    +0.000 N 
ATOM     16  C   UNL     1       2.600   5.082  19.670  0.00  0.00    +0.000 A 
ATOM     17  C   UNL     1       2.374   4.572  20.952  0.00  0.00    +0.000 A 
ATOM     18  N   UNL     1       1.550   3.520  21.214  0.00  0.00    +0.000 NA
ATOM     19  C   UNL     1       0.959   2.980  20.128  0.00  0.00    +0.000 A 
ATOM     20  C   UNL     1       1.177   3.469  18.854  0.00  0.00    +0.000 A 
ATOM     21  N   UNL     1       1.999   4.514  18.604  0.00  0.00    +0.000 NA
ATOM     22  H   UNL     1       3.147   6.946  20.063  0.00  0.00    +0.000 HD
ENDBRANCH  14  15
ENDBRANCH  13  14
ENDBRANCH   3  13
TORSDOF 6
ENDMDL
