MODEL 1
REMARK VINA RESULT:      -7.6      0.000      0.000
REMARK  Name = 
REMARK  8 active torsions:
REMARK  status: ('A' for Active; 'I' for Inactive)
REMARK    1  A    between atoms: C_1  and  C_2
REMARK    2  A    between atoms: C_4  and  C_5
REMARK    3  A    between atoms: N_6  and  C_7
REMARK    4  A    between atoms: C_7  and  C_8
REMARK    5  A    between atoms: N_10  and  C_11
REMARK    6  A    between atoms: C_16  and  S_17
REMARK    7  A    between atoms: S_17  and  N_18
REMARK    8  A    between atoms: C_24  and  C_25
REMARK                            x       y       z     vdW  Elec       q    Type
REMARK                         _______ _______ _______ _____ _____    ______ ____
ROOT
ATOM      1  C   UNL     1       1.188   9.445  18.749  0.00  0.00    +0.000 A 
ATOM      2  C   UNL     1       1.033   8.995  20.060  0.00  0.00    +0.000 A 
ATOM      3  C   UNL     1       1.653   7.813  20.485  0.00  0.00    +0.000 A 
ATOM      4  C   UNL     1       2.486   7.098  19.606  0.00  0.00    +0.000 A 
ATOM      5  N   UNL     1       3.135   5.917  19.901  0.00  0.00    +0.000 NA
ATOM      6  C   UNL     1       3.824   5.543  18.842  0.00  0.00    +0.000 A 
ATOM      7  S   UNL     1       3.767   6.548  17.473  0.00  0.00    +0.000 S 
ATOM      8  C   UNL     1       2.687   7.597  18.316  0.00  0.00    +0.000 A 
ATOM      9  C   UNL     1       2.049   8.771  17.869  0.00  0.00    +0.000 A 
ENDROOT
BRANCH   1  12
ATOM     10  C   UNL     1      -0.901  10.469  17.940  0.00  0.00    +0.000 C 
ATOM     11  O   UNL     1      -1.521   9.413  17.860  0.00  0.00    +0.000 OA
ATOM     12  N   UNL     1       0.423  10.573  18.352  0.00  0.00    +0.000 N 
ATOM     13  H   UNL     1       0.754  11.460  18.716  0.00  0.00    +0.000 HD
BRANCH  10  14
ATOM     14  C   UNL     1      -1.597  11.780  17.619  0.00  0.00    +0.000 C 
BRANCH  14  20
ATOM     15  C   UNL     1      -7.263  12.146  18.796  0.00  0.00    +0.000 C 
ATOM     16  C   UNL     1      -5.799  12.009  18.490  0.00  0.00    +0.000 A 
ATOM     17  C   UNL     1      -5.346  11.564  17.259  0.00  0.00    +0.000 A 
ATOM     18  C   UNL     1      -3.971  11.442  16.992  0.00  0.00    +0.000 A 
ATOM     19  C   UNL     1      -3.559  10.953  15.627  0.00  0.00    +0.000 C 
ATOM     20  N   UNL     1      -3.050  11.767  17.958  0.00  0.00    +0.000 N 
ATOM     21  C   UNL     1      -3.476  12.148  19.206  0.00  0.00    +0.000 A 
ATOM     22  C   UNL     1      -2.548  12.466  20.352  0.00  0.00    +0.000 C 
ATOM     23  C   UNL     1      -4.852  12.304  19.456  0.00  0.00    +0.000 A 
ENDBRANCH  14  20
ENDBRANCH  10  14
ENDBRANCH   1  12
BRANCH   6  24
ATOM     24  S   UNL     1       4.812   4.049  18.763  0.00  0.00    +0.000 S 
ATOM     25  O   UNL     1       6.078   4.396  19.347  0.00  0.00    +0.000 OA
ATOM     26  O   UNL     1       3.960   2.999  19.255  0.00  0.00    +0.000 OA
BRANCH  24  27
ATOM     27  N   UNL     1       5.070   3.747  17.122  0.00  0.00    +0.000 NA
ATOM     28  H   UNL     1       4.225   3.398  16.667  0.00  0.00    +0.000 HD
ATOM     29  H   UNL     1       5.872   3.136  16.989  0.00  0.00    +0.000 HD
ENDBRANCH  24  27
ENDBRANCH   6  24
TORSDOF 5
ENDMDL
MODEL 2
REMARK VINA RESULT:      -7.6      0.314      1.712
REMARK  Name = 
REMARK  8 active torsions:
REMARK  status: ('A' for Active; 'I' for Inactive)
REMARK    1  A    between atoms: C_1  and  C_2
REMARK    2  A    between atoms: C_4  and  C_5
REMARK    3  A    between atoms: N_6  and  C_7
REMARK    4  A    between atoms: C_7  and  C_8
REMARK    5  A    between atoms: N_10  and  C_11
REMARK    6  A    between atoms: C_16  and  S_17
REMARK    7  A    between atoms: S_17  and  N_18
REMARK    8  A    between atoms: C_24  and  C_25
REMARK                            x       y       z     vdW  Elec       q    Type
REMARK                         _______ _______ _______ _____ _____    ______ ____
ROOT
ATOM      1  C   UNL     1       1.308   9.329  18.775  0.00  0.00    +0.000 A 
ATOM      2  C   UNL     1       1.117   8.888  20.085  0.00  0.00    +0.000 A 
ATOM      3  C   UNL     1       1.693   7.688  20.523  0.00  0.00    +0.000 A 
ATOM      4  C   UNL     1       2.516   6.944  19.659  0.00  0.00    +0.000 A 
ATOM      5  N   UNL     1       3.122   5.744  19.968  0.00  0.00    +0.000 NA
ATOM      6  C   UNL     1       3.815   5.345  18.921  0.00  0.00    +0.000 A 
ATOM      7  S   UNL     1       3.813   6.347  17.548  0.00  0.00    +0.000 S 
ATOM      8  C   UNL     1       2.754   7.432  18.371  0.00  0.00    +0.000 A 
ATOM      9  C   UNL     1       2.161   8.624  17.911  0.00  0.00    +0.000 A 
ENDROOT
BRANCH   1  12
ATOM     10  C   UNL     1      -0.789  10.464  18.158  0.00  0.00    +0.000 C 
ATOM     11  O   UNL     1      -1.498   9.471  18.291  0.00  0.00    +0.000 OA
ATOM     12  N   UNL     1       0.586  10.480  18.363  0.00  0.00    +0.000 N 
ATOM     13  H   UNL     1       1.040  11.363  18.572  0.00  0.00    +0.000 HD
BRANCH  10  14
ATOM     14  C   UNL     1      -1.417  11.797  17.790  0.00  0.00    +0.000 C 
BRANCH  14  20
ATOM     15  C   UNL     1      -7.123  11.493  18.773  0.00  0.00    +0.000 C 
ATOM     16  C   UNL     1      -5.648  11.614  18.520  0.00  0.00    +0.000 A 
ATOM     17  C   UNL     1      -4.775  12.099  19.480  0.00  0.00    +0.000 A 
ATOM     18  C   UNL     1      -3.398  12.205  19.223  0.00  0.00    +0.000 A 
ATOM     19  C   UNL     1      -2.515  12.739  20.321  0.00  0.00    +0.000 C 
ATOM     20  N   UNL     1      -2.893  11.824  18.003  0.00  0.00    +0.000 N 
ATOM     21  C   UNL     1      -3.747  11.402  17.013  0.00  0.00    +0.000 A 
ATOM     22  C   UNL     1      -3.301  11.021  15.624  0.00  0.00    +0.000 C 
ATOM     23  C   UNL     1      -5.119  11.263  17.288  0.00  0.00    +0.000 A 
ENDBRANCH  14  20
ENDBRANCH  10  14
ENDBRANCH   1  12
BRANCH   6  24
ATOM     24  S   UNL     1       4.756   3.819  18.861  0.00  0.00    +0.000 S 
ATOM     25  O   UNL     1       6.123   4.204  19.076  0.00  0.00    +0.000 OA
ATOM     26  O   UNL     1       4.041   2.894  19.699  0.00  0.00    +0.000 OA
BRANCH  24  27
ATOM     27  N   UNL     1       4.625   3.252  17.276  0.00  0.00    +0.000 NA
ATOM     28  H   UNL     1       5.541   3.148  16.838  0.00  0.00    +0.000 HD
ATOM     29  H   UNL     1       3.991   3.834  16.735  0.00  0.00    +0.000 HD
ENDBRANCH  24  27
ENDBRANCH   6  24
TORSDOF 5
ENDMDL
MODEL 3
REMARK VINA RESULT:      -7.6      3.703      9.666
REMARK  Name = 
REMARK  8 active torsions:
REMARK  status: ('A' for Active; 'I' for Inactive)
REMARK    1  A    between atoms: C_1  and  C_2
REMARK    2  A    between atoms: C_4  and  C_5
REMARK    3  A    between atoms: N_6  and  C_7
REMARK    4  A    between atoms: C_7  and  C_8
REMARK    5  A    between atoms: N_10  and  C_11
REMARK    6  A    between atoms: C_16  and  S_17
REMARK    7  A    between atoms: S_17  and  N_18
REMARK    8  A    between atoms: C_24  and  C_25
REMARK                            x       y       z     vdW  Elec       q    Type
REMARK                         _______ _______ _______ _____ _____    ______ ____
ROOT
ATOM      1  C   UNL     1       2.281   7.830  19.343  0.00  0.00    +0.000 A 
ATOM      2  C   UNL     1       2.091   8.325  18.052  0.00  0.00    +0.000 A 
ATOM      3  C   UNL     1       1.156   9.340  17.810  0.00  0.00    +0.000 A 
ATOM      4  C   UNL     1       0.439   9.908  18.878  0.00  0.00    +0.000 A 
ATOM      5  N   UNL     1      -0.516  10.897  18.764  0.00  0.00    +0.000 NA
ATOM      6  C   UNL     1      -0.968  11.181  19.969  0.00  0.00    +0.000 A 
ATOM      7  S   UNL     1      -0.294  10.336  21.280  0.00  0.00    +0.000 S 
ATOM      8  C   UNL     1       0.690   9.450  20.174  0.00  0.00    +0.000 A 
ATOM      9  C   UNL     1       1.609   8.413  20.428  0.00  0.00    +0.000 A 
ENDROOT
BRANCH   1  12
ATOM     10  C   UNL     1       2.665   5.416  19.648  0.00  0.00    +0.000 C 
ATOM     11  O   UNL     1       1.475   5.118  19.693  0.00  0.00    +0.000 OA
ATOM     12  N   UNL     1       3.144   6.712  19.491  0.00  0.00    +0.000 N 
ATOM     13  H   UNL     1       4.080   6.847  19.126  0.00  0.00    +0.000 HD
BRANCH  10  14
ATOM     14  C   UNL     1       3.720   4.327  19.720  0.00  0.00    +0.000 C 
BRANCH  14  20
ATOM     15  C   UNL     1       6.414   3.996  14.597  0.00  0.00    +0.000 C 
ATOM     16  C   UNL     1       5.746   4.055  15.940  0.00  0.00    +0.000 A 
ATOM     17  C   UNL     1       6.342   4.666  17.031  0.00  0.00    +0.000 A 
ATOM     18  C   UNL     1       5.700   4.710  18.280  0.00  0.00    +0.000 A 
ATOM     19  C   UNL     1       6.415   5.396  19.416  0.00  0.00    +0.000 C 
ATOM     20  N   UNL     1       4.459   4.144  18.438  0.00  0.00    +0.000 N 
ATOM     21  C   UNL     1       3.876   3.476  17.389  0.00  0.00    +0.000 A 
ATOM     22  C   UNL     1       2.546   2.769  17.476  0.00  0.00    +0.000 C 
ATOM     23  C   UNL     1       4.506   3.467  16.131  0.00  0.00    +0.000 A 
ENDBRANCH  14  20
ENDBRANCH  10  14
ENDBRANCH   1  12
BRANCH   6  24
ATOM     24  S   UNL     1      -2.239  12.401  20.303  0.00  0.00    +0.000 S 
ATOM     25  O   UNL     1      -3.318  12.085  19.409  0.00  0.00    +0.000 OA
ATOM     26  O   UNL     1      -2.367  12.440  21.736  0.00  0.00    +0.000 OA
BRANCH  24  27
ATOM     27  N   UNL     1      -1.596  13.888  19.825  0.00  0.00    +0.000 NA
ATOM     28  H   UNL     1      -2.207  14.365  19.162  0.00  0.00    +0.000 HD
ATOM     29  H   UNL     1      -0.646  13.776  19.479  0.00  0.00    +0.000 HD
ENDBRANCH  24  27
ENDBRANCH   6  24
TORSDOF 5
ENDMDL
MODEL 4
REMARK VINA RESULT:      -7.5      3.588      9.507
REMARK  Name = 
REMARK  8 active torsions:
REMARK  status: ('A' for Active; 'I' for Inactive)
REMARK    1  A    between atoms: C_1  and  C_2
REMARK    2  A    between atoms: C_4  and  C_5
REMARK    3  A    between atoms: N_6  and  C_7
REMARK    4  A    between atoms: C_7  and  C_8
REMARK    5  A    between atoms: N_10  and  C_11
REMARK    6  A    between atoms: C_16  and  S_17
REMARK    7  A    between atoms: S_17  and  N_18
REMARK    8  A    between atoms: C_24  and  C_25
REMARK                            x       y       z     vdW  Elec       q    Type
REMARK                         _______ _______ _______ _____ _____    ______ ____
ROOT
ATOM      1  C   UNL     1       2.332   7.263  19.883  0.00  0.00    +0.000 A 
ATOM      2  C   UNL     1       1.736   7.358  21.142  0.00  0.00    +0.000 A 
ATOM      3  C   UNL     1       0.833   8.391  21.425  0.00  0.00    +0.000 A 
ATOM      4  C   UNL     1       0.475   9.310  20.421  0.00  0.00    +0.000 A 
ATOM      5  N   UNL     1      -0.387  10.374  20.583  0.00  0.00    +0.000 NA
ATOM      6  C   UNL     1      -0.485  11.010  19.433  0.00  0.00    +0.000 A 
ATOM      7  S   UNL     1       0.395  10.393  18.117  0.00  0.00    +0.000 S 
ATOM      8  C   UNL     1       1.027   9.161  19.146  0.00  0.00    +0.000 A 
ATOM      9  C   UNL     1       1.956   8.143  18.856  0.00  0.00    +0.000 A 
ENDROOT
BRANCH   1  12
ATOM     10  C   UNL     1       3.061   4.913  19.760  0.00  0.00    +0.000 C 
ATOM     11  O   UNL     1       1.949   4.439  19.974  0.00  0.00    +0.000 OA
ATOM     12  N   UNL     1       3.337   6.275  19.711  0.00  0.00    +0.000 N 
ATOM     13  H   UNL     1       4.159   6.590  19.208  0.00  0.00    +0.000 HD
BRANCH  10  14
ATOM     14  C   UNL     1       4.235   3.991  19.484  0.00  0.00    +0.000 C 
BRANCH  14  20
ATOM     15  C   UNL     1       7.062   4.728  14.475  0.00  0.00    +0.000 C 
ATOM     16  C   UNL     1       6.301   4.566  15.760  0.00  0.00    +0.000 A 
ATOM     17  C   UNL     1       5.033   4.012  15.797  0.00  0.00    +0.000 A 
ATOM     18  C   UNL     1       4.337   3.870  17.010  0.00  0.00    +0.000 A 
ATOM     19  C   UNL     1       2.962   3.254  16.966  0.00  0.00    +0.000 C 
ATOM     20  N   UNL     1       4.913   4.282  18.188  0.00  0.00    +0.000 N 
ATOM     21  C   UNL     1       6.142   4.895  18.168  0.00  0.00    +0.000 A 
ATOM     22  C   UNL     1       6.832   5.437  19.394  0.00  0.00    +0.000 C 
ATOM     23  C   UNL     1       6.850   5.000  16.956  0.00  0.00    +0.000 A 
ENDBRANCH  14  20
ENDBRANCH  10  14
ENDBRANCH   1  12
BRANCH   6  24
ATOM     24  S   UNL     1      -1.488  12.475  19.177  0.00  0.00    +0.000 S 
ATOM     25  O   UNL     1      -2.826  11.992  18.978  0.00  0.00    +0.000 OA
ATOM     26  O   UNL     1      -1.109  13.387  20.224  0.00  0.00    +0.000 OA
BRANCH  24  27
ATOM     27  N   UNL     1      -0.963  13.150  17.721  0.00  0.00    +0.000 NA
ATOM     28  H   UNL     1      -1.160  12.537  16.930  0.00  0.00    +0.000 HD
ATOM     29  H   UNL     1       0.016  13.420  17.780  0.00  0.00    +0.000 HD
ENDBRANCH  24  27
ENDBRANCH   6  24
TORSDOF 5
ENDMDL
MODEL 5
REMARK VINA RESULT:      -7.4      0.945      1.132
REMARK  Name = 
REMARK  8 active torsions:
REMARK  status: ('A' for Active; 'I' for Inactive)
REMARK    1  A    between atoms: C_1  and  C_2
REMARK    2  A    between atoms: C_4  and  C_5
REMARK    3  A    between atoms: N_6  and  C_7
REMARK    4  A    between atoms: C_7  and  C_8
REMARK    5  A    between atoms: N_10  and  C_11
REMARK    6  A    between atoms: C_16  and  S_17
REMARK    7  A    between atoms: S_17  and  N_18
REMARK    8  A    between atoms: C_24  and  C_25
REMARK                            x       y       z     vdW  Elec       q    Type
REMARK                         _______ _______ _______ _____ _____    ______ ____
ROOT
ATOM      1  C   UNL     1       1.481   9.307  18.542  0.00  0.00    +0.000 A 
ATOM      2  C   UNL     1       1.283   8.746  19.805  0.00  0.00    +0.000 A 
ATOM      3  C   UNL     1       1.936   7.561  20.167  0.00  0.00    +0.000 A 
ATOM      4  C   UNL     1       2.841   6.954  19.277  0.00  0.00    +0.000 A 
ATOM      5  N   UNL     1       3.529   5.781  19.512  0.00  0.00    +0.000 NA
ATOM      6  C   UNL     1       4.283   5.523  18.464  0.00  0.00    +0.000 A 
ATOM      7  S   UNL     1       4.247   6.632  17.177  0.00  0.00    +0.000 S 
ATOM      8  C   UNL     1       3.081   7.564  18.043  0.00  0.00    +0.000 A 
ATOM      9  C   UNL     1       2.412   8.742  17.657  0.00  0.00    +0.000 A 
ENDROOT
BRANCH   1  12
ATOM     10  C   UNL     1      -0.605  10.609  18.683  0.00  0.00    +0.000 C 
ATOM     11  O   UNL     1      -1.181   9.821  19.428  0.00  0.00    +0.000 OA
ATOM     12  N   UNL     1       0.685  10.431  18.197  0.00  0.00    +0.000 N 
ATOM     13  H   UNL     1       1.208  11.243  17.888  0.00  0.00    +0.000 HD
BRANCH  10  14
ATOM     14  C   UNL     1      -1.293  11.900  18.275  0.00  0.00    +0.000 C 
BRANCH  14  20
ATOM     15  C   UNL     1      -7.086  11.879  18.049  0.00  0.00    +0.000 C 
ATOM     16  C   UNL     1      -5.586  11.842  18.109  0.00  0.00    +0.000 A 
ATOM     17  C   UNL     1      -4.822  11.349  17.064  0.00  0.00    +0.000 A 
ATOM     18  C   UNL     1      -3.419  11.323  17.140  0.00  0.00    +0.000 A 
ATOM     19  C   UNL     1      -2.660  10.774  15.960  0.00  0.00    +0.000 C 
ATOM     20  N   UNL     1      -2.780  11.791  18.263  0.00  0.00    +0.000 N 
ATOM     21  C   UNL     1      -3.518  12.223  19.337  0.00  0.00    +0.000 A 
ATOM     22  C   UNL     1      -2.916  12.698  20.635  0.00  0.00    +0.000 C 
ATOM     23  C   UNL     1      -4.921  12.282  19.241  0.00  0.00    +0.000 A 
ENDBRANCH  14  20
ENDBRANCH  10  14
ENDBRANCH   1  12
BRANCH   6  24
ATOM     24  S   UNL     1       5.342   4.083  18.318  0.00  0.00    +0.000 S 
ATOM     25  O   UNL     1       5.024   3.501  17.044  0.00  0.00    +0.000 OA
ATOM     26  O   UNL     1       6.657   4.534  18.691  0.00  0.00    +0.000 OA
BRANCH  24  27
ATOM     27  N   UNL     1       4.832   3.007  19.515  0.00  0.00    +0.000 NA
ATOM     28  H   UNL     1       4.303   2.228  19.120  0.00  0.00    +0.000 HD
ATOM     29  H   UNL     1       4.327   3.496  20.250  0.00  0.00    +0.000 HD
ENDBRANCH  24  27
ENDBRANCH   6  24
TORSDOF 5
ENDMDL
MODEL 6
REMARK VINA RESULT:      -7.4      3.591      9.592
REMARK  Name = 
REMARK  8 active torsions:
REMARK  status: ('A' for Active; 'I' for Inactive)
REMARK    1  A    between atoms: C_1  and  C_2
REMARK    2  A    between atoms: C_4  and  C_5
REMARK    3  A    between atoms: N_6  and  C_7
REMARK    4  A    between atoms: C_7  and  C_8
REMARK    5  A    between atoms: N_10  and  C_11
REMARK    6  A    between atoms: C_16  and  S_17
REMARK    7  A    between atoms: S_17  and  N_18
REMARK    8  A    between atoms: C_24  and  C_25
REMARK                            x       y       z     vdW  Elec       q    Type
REMARK                         _______ _______ _______ _____ _____    ______ ____
ROOT
ATOM      1  C   UNL     1       2.243   7.303  20.004  0.00  0.00    +0.000 A 
ATOM      2  C   UNL     1       1.507   7.415  21.185  0.00  0.00    +0.000 A 
ATOM      3  C   UNL     1       0.602   8.469  21.362  0.00  0.00    +0.000 A 
ATOM      4  C   UNL     1       0.385   9.395  20.325  0.00  0.00    +0.000 A 
ATOM      5  N   UNL     1      -0.464  10.480  20.386  0.00  0.00    +0.000 NA
ATOM      6  C   UNL     1      -0.412  11.116  19.234  0.00  0.00    +0.000 A 
ATOM      7  S   UNL     1       0.600  10.476  18.028  0.00  0.00    +0.000 S 
ATOM      8  C   UNL     1       1.078   9.231  19.123  0.00  0.00    +0.000 A 
ATOM      9  C   UNL     1       2.010   8.190  18.941  0.00  0.00    +0.000 A 
ENDROOT
BRANCH   1  12
ATOM     10  C   UNL     1       2.942   4.972  19.623  0.00  0.00    +0.000 C 
ATOM     11  O   UNL     1       1.814   4.555  19.376  0.00  0.00    +0.000 OA
ATOM     12  N   UNL     1       3.237   6.292  19.949  0.00  0.00    +0.000 N 
ATOM     13  H   UNL     1       4.181   6.632  19.803  0.00  0.00    +0.000 HD
BRANCH  10  14
ATOM     14  C   UNL     1       4.131   4.032  19.537  0.00  0.00    +0.000 C 
BRANCH  14  20
ATOM     15  C   UNL     1       6.770   4.820  14.435  0.00  0.00    +0.000 C 
ATOM     16  C   UNL     1       6.119   4.591  15.768  0.00  0.00    +0.000 A 
ATOM     17  C   UNL     1       6.659   5.085  16.944  0.00  0.00    +0.000 A 
ATOM     18  C   UNL     1       6.034   4.859  18.182  0.00  0.00    +0.000 A 
ATOM     19  C   UNL     1       6.685   5.432  19.414  0.00  0.00    +0.000 C 
ATOM     20  N   UNL     1       4.866   4.138  18.243  0.00  0.00    +0.000 N 
ATOM     21  C   UNL     1       4.347   3.583  17.100  0.00  0.00    +0.000 A 
ATOM     22  C   UNL     1       3.106   2.727  17.069  0.00  0.00    +0.000 C 
ATOM     23  C   UNL     1       4.955   3.844  15.859  0.00  0.00    +0.000 A 
ENDBRANCH  14  20
ENDBRANCH  10  14
ENDBRANCH   1  12
BRANCH   6  24
ATOM     24  S   UNL     1      -1.343  12.604  18.865  0.00  0.00    +0.000 S 
ATOM     25  O   UNL     1      -2.003  12.957  20.091  0.00  0.00    +0.000 OA
ATOM     26  O   UNL     1      -0.427  13.467  18.167  0.00  0.00    +0.000 OA
BRANCH  24  27
ATOM     27  N   UNL     1      -2.532  12.147  17.755  0.00  0.00    +0.000 NA
ATOM     28  H   UNL     1      -2.259  11.312  17.236  0.00  0.00    +0.000 HD
ATOM     29  H   UNL     1      -2.780  12.926  17.151  0.00  0.00    +0.000 HD
ENDBRANCH  24  27
ENDBRANCH   6  24
TORSDOF 5
ENDMDL
MODEL 7
REMARK VINA RESULT:      -7.3      1.022      1.326
REMARK  Name = 
REMARK  8 active torsions:
REMARK  status: ('A' for Active; 'I' for Inactive)
REMARK    1  A    between atoms: C_1  and  C_2
REMARK    2  A    between atoms: C_4  and  C_5
REMARK    3  A    between atoms: N_6  and  C_7
REMARK    4  A    between atoms: C_7  and  C_8
REMARK    5  A    between atoms: N_10  and  C_11
REMARK    6  A    between atoms: C_16  and  S_17
REMARK    7  A    between atoms: S_17  and  N_18
REMARK    8  A    between atoms: C_24  and  C_25
REMARK                            x       y       z     vdW  Elec       q    Type
REMARK                         _______ _______ _______ _____ _____    ______ ____
ROOT
ATOM      1  C   UNL     1       1.085   9.490  19.116  0.00  0.00    +0.000 A 
ATOM      2  C   UNL     1       0.918   8.915  20.376  0.00  0.00    +0.000 A 
ATOM      3  C   UNL     1       1.534   7.696  20.690  0.00  0.00    +0.000 A 
ATOM      4  C   UNL     1       2.373   7.068  19.752  0.00  0.00    +0.000 A 
ATOM      5  N   UNL     1       3.019   5.863  19.937  0.00  0.00    +0.000 NA
ATOM      6  C   UNL     1       3.716   5.593  18.852  0.00  0.00    +0.000 A 
ATOM      7  S   UNL     1       3.672   6.726  17.587  0.00  0.00    +0.000 S 
ATOM      8  C   UNL     1       2.586   7.690  18.519  0.00  0.00    +0.000 A 
ATOM      9  C   UNL     1       1.953   8.902  18.182  0.00  0.00    +0.000 A 
ENDROOT
BRANCH   1  12
ATOM     10  C   UNL     1      -0.907  10.596  18.181  0.00  0.00    +0.000 C 
ATOM     11  O   UNL     1      -1.439   9.560  17.791  0.00  0.00    +0.000 OA
ATOM     12  N   UNL     1       0.324  10.652  18.824  0.00  0.00    +0.000 N 
ATOM     13  H   UNL     1       0.536  11.455  19.406  0.00  0.00    +0.000 HD
BRANCH  10  14
ATOM     14  C   UNL     1      -1.624  11.923  18.010  0.00  0.00    +0.000 C 
BRANCH  14  20
ATOM     15  C   UNL     1      -6.501  12.729  21.040  0.00  0.00    +0.000 C 
ATOM     16  C   UNL     1      -5.244  12.478  20.257  0.00  0.00    +0.000 A 
ATOM     17  C   UNL     1      -5.270  11.959  18.974  0.00  0.00    +0.000 A 
ATOM     18  C   UNL     1      -4.082  11.731  18.258  0.00  0.00    +0.000 A 
ATOM     19  C   UNL     1      -4.196  11.165  16.866  0.00  0.00    +0.000 C 
ATOM     20  N   UNL     1      -2.867  12.024  18.828  0.00  0.00    +0.000 N 
ATOM     21  C   UNL     1      -2.813  12.479  20.123  0.00  0.00    +0.000 A 
ATOM     22  C   UNL     1      -1.530  12.772  20.858  0.00  0.00    +0.000 C 
ATOM     23  C   UNL     1      -4.006  12.741  20.821  0.00  0.00    +0.000 A 
ENDBRANCH  14  20
ENDBRANCH  10  14
ENDBRANCH   1  12
BRANCH   6  24
ATOM     24  S   UNL     1       4.705   4.112  18.637  0.00  0.00    +0.000 S 
ATOM     25  O   UNL     1       4.472   3.690  17.284  0.00  0.00    +0.000 OA
ATOM     26  O   UNL     1       6.003   4.437  19.166  0.00  0.00    +0.000 OA
BRANCH  24  27
ATOM     27  N   UNL     1       4.032   2.949  19.660  0.00  0.00    +0.000 NA
ATOM     28  H   UNL     1       4.727   2.568  20.303  0.00  0.00    +0.000 HD
ATOM     29  H   UNL     1       3.552   2.231  19.124  0.00  0.00    +0.000 HD
ENDBRANCH  24  27
ENDBRANCH   6  24
TORSDOF 5
ENDMDL
MODEL 8
REMARK VINA RESULT:      -7.3      1.025      2.089
REMARK  Name = 
REMARK  8 active torsions:
REMARK  status: ('A' for Active; 'I' for Inactive)
REMARK    1  A    between atoms: C_1  and  C_2
REMARK    2  A    between atoms: C_4  and  C_5
REMARK    3  A    between atoms: N_6  and  C_7
REMARK    4  A    between atoms: C_7  and  C_8
REMARK    5  A    between atoms: N_10  and  C_11
REMARK    6  A    between atoms: C_16  and  S_17
REMARK    7  A    between atoms: S_17  and  N_18
REMARK    8  A    between atoms: C_24  and  C_25
REMARK                            x       y       z     vdW  Elec       q    Type
REMARK                         _______ _______ _______ _____ _____    ______ ____
ROOT
ATOM      1  C   UNL     1       1.138   9.359  19.186  0.00  0.00    +0.000 A 
ATOM      2  C   UNL     1       0.959   8.857  20.475  0.00  0.00    +0.000 A 
ATOM      3  C   UNL     1       1.481   7.606  20.830  0.00  0.00    +0.000 A 
ATOM      4  C   UNL     1       2.239   6.870  19.903  0.00  0.00    +0.000 A 
ATOM      5  N   UNL     1       2.788   5.624  20.128  0.00  0.00    +0.000 NA
ATOM      6  C   UNL     1       3.430   5.248  19.041  0.00  0.00    +0.000 A 
ATOM      7  S   UNL     1       3.445   6.323  17.726  0.00  0.00    +0.000 S 
ATOM      8  C   UNL     1       2.468   7.415  18.637  0.00  0.00    +0.000 A 
ATOM      9  C   UNL     1       1.928   8.661  18.259  0.00  0.00    +0.000 A 
ENDROOT
BRANCH   1  12
ATOM     10  C   UNL     1      -0.829  10.589  18.358  0.00  0.00    +0.000 C 
ATOM     11  O   UNL     1      -1.503   9.587  18.136  0.00  0.00    +0.000 OA
ATOM     12  N   UNL     1       0.468  10.567  18.858  0.00  0.00    +0.000 N 
ATOM     13  H   UNL     1       0.825  11.392  19.328  0.00  0.00    +0.000 HD
BRANCH  10  14
ATOM     14  C   UNL     1      -1.425  11.967  18.129  0.00  0.00    +0.000 C 
BRANCH  14  20
ATOM     15  C   UNL     1      -6.312  12.411  21.217  0.00  0.00    +0.000 C 
ATOM     16  C   UNL     1      -5.044  12.339  20.417  0.00  0.00    +0.000 A 
ATOM     17  C   UNL     1      -3.819  12.713  20.946  0.00  0.00    +0.000 A 
ATOM     18  C   UNL     1      -2.643  12.638  20.180  0.00  0.00    +0.000 A 
ATOM     19  C   UNL     1      -1.351  13.062  20.830  0.00  0.00    +0.000 C 
ATOM     20  N   UNL     1      -2.693  12.187  18.883  0.00  0.00    +0.000 N 
ATOM     21  C   UNL     1      -3.904  11.872  18.317  0.00  0.00    +0.000 A 
ATOM     22  C   UNL     1      -4.072  11.426  16.886  0.00  0.00    +0.000 C 
ATOM     23  C   UNL     1      -5.072  11.913  19.099  0.00  0.00    +0.000 A 
ENDBRANCH  14  20
ENDBRANCH  10  14
ENDBRANCH   1  12
BRANCH   6  24
ATOM     24  S   UNL     1       4.286   3.681  18.872  0.00  0.00    +0.000 S 
ATOM     25  O   UNL     1       3.972   2.942  20.062  0.00  0.00    +0.000 OA
ATOM     26  O   UNL     1       3.990   3.225  17.539  0.00  0.00    +0.000 OA
BRANCH  24  27
ATOM     27  N   UNL     1       5.935   4.044  18.913  0.00  0.00    +0.000 NA
ATOM     28  H   UNL     1       6.120   4.892  19.450  0.00  0.00    +0.000 HD
ATOM     29  H   UNL     1       6.321   4.078  17.973  0.00  0.00    +0.000 HD
ENDBRANCH  24  27
ENDBRANCH   6  24
TORSDOF 5
ENDMDL
MODEL 9
REMARK VINA RESULT:      -7.3      3.849      9.487
REMARK  Name = 
REMARK  8 active torsions:
REMARK  status: ('A' for Active; 'I' for Inactive)
REMARK    1  A    between atoms: C_1  and  C_2
REMARK    2  A    between atoms: C_4  and  C_5
REMARK    3  A    between atoms: N_6  and  C_7
REMARK    4  A    between atoms: C_7  and  C_8
REMARK    5  A    between atoms: N_10  and  C_11
REMARK    6  A    between atoms: C_16  and  S_17
REMARK    7  A    between atoms: S_17  and  N_18
REMARK    8  A    between atoms: C_24  and  C_25
REMARK                            x       y       z     vdW  Elec       q    Type
REMARK                         _______ _______ _______ _____ _____    ______ ____
ROOT
ATOM      1  C   UNL     1       2.125   7.979  19.260  0.00  0.00    +0.000 A 
ATOM      2  C   UNL     1       1.814   8.512  18.008  0.00  0.00    +0.000 A 
ATOM      3  C   UNL     1       0.886   9.554  17.890  0.00  0.00    +0.000 A 
ATOM      4  C   UNL     1       0.300  10.112  19.041  0.00  0.00    +0.000 A 
ATOM      5  N   UNL     1      -0.635  11.126  19.051  0.00  0.00    +0.000 NA
ATOM      6  C   UNL     1      -0.951  11.389  20.303  0.00  0.00    +0.000 A 
ATOM      7  S   UNL     1      -0.167  10.494  21.516  0.00  0.00    +0.000 S 
ATOM      8  C   UNL     1       0.673   9.615  20.292  0.00  0.00    +0.000 A 
ATOM      9  C   UNL     1       1.586   8.550  20.424  0.00  0.00    +0.000 A 
ENDROOT
BRANCH   1  12
ATOM     10  C   UNL     1       2.587   5.644  19.895  0.00  0.00    +0.000 C 
ATOM     11  O   UNL     1       1.515   5.469  20.466  0.00  0.00    +0.000 OA
ATOM     12  N   UNL     1       2.969   6.838  19.291  0.00  0.00    +0.000 N 
ATOM     13  H   UNL     1       3.679   6.815  18.568  0.00  0.00    +0.000 HD
BRANCH  10  14
ATOM     14  C   UNL     1       3.576   4.498  19.776  0.00  0.00    +0.000 C 
BRANCH  14  20
ATOM     15  C   UNL     1       6.309   3.870  14.701  0.00  0.00    +0.000 C 
ATOM     16  C   UNL     1       5.578   4.064  15.998  0.00  0.00    +0.000 A 
ATOM     17  C   UNL     1       4.237   3.745  16.140  0.00  0.00    +0.000 A 
ATOM     18  C   UNL     1       3.571   3.935  17.362  0.00  0.00    +0.000 A 
ATOM     19  C   UNL     1       2.113   3.561  17.435  0.00  0.00    +0.000 C 
ATOM     20  N   UNL     1       4.247   4.443  18.445  0.00  0.00    +0.000 N 
ATOM     21  C   UNL     1       5.559   4.827  18.310  0.00  0.00    +0.000 A 
ATOM     22  C   UNL     1       6.371   5.450  19.418  0.00  0.00    +0.000 C 
ATOM     23  C   UNL     1       6.231   4.600  17.095  0.00  0.00    +0.000 A 
ENDBRANCH  14  20
ENDBRANCH  10  14
ENDBRANCH   1  12
BRANCH   6  24
ATOM     24  S   UNL     1      -2.148  12.630  20.797  0.00  0.00    +0.000 S 
ATOM     25  O   UNL     1      -2.698  12.159  22.037  0.00  0.00    +0.000 OA
ATOM     26  O   UNL     1      -1.477  13.894  20.643  0.00  0.00    +0.000 OA
BRANCH  24  27
ATOM     27  N   UNL     1      -3.376  12.580  19.639  0.00  0.00    +0.000 NA
ATOM     28  H   UNL     1      -4.282  12.822  20.042  0.00  0.00    +0.000 HD
ATOM     29  H   UNL     1      -3.384  11.684  19.158  0.00  0.00    +0.000 HD
ENDBRANCH  24  27
ENDBRANCH   6  24
TORSDOF 5
ENDMDL
