MODEL 1
REMARK VINA RESULT:      -7.8      0.000      0.000
REMARK  Name = 
REMARK  7 active torsions:
REMARK  status: ('A' for Active; 'I' for Inactive)
REMARK    1  A    between atoms: C_1  and  C_2
REMARK    2  A    between atoms: C_11  and  O_12
REMARK    3  A    between atoms: O_12  and  C_13
REMARK    4  A    between atoms: C_13  and  C_14
REMARK    5  A    between atoms: N_16  and  C_17
REMARK    6  A    between atoms: C_22  and  C_23
REMARK    7  A    between atoms: C_22  and  C_24
REMARK                            x       y       z     vdW  Elec       q    Type
REMARK                         _______ _______ _______ _____ _____    ______ ____
ROOT
ATOM      1  C   UNL     1       1.082   6.676  20.629  0.00  0.00    +0.000 C 
ATOM      2  C   UNL     1       2.141   5.690  20.235  0.00  0.00    +0.000 A 
ATOM      3  C   UNL     1       2.276   4.558  20.947  0.00  0.00    +0.000 A 
ATOM      4  C   UNL     1       3.278   3.532  20.665  0.00  0.00    +0.000 A 
ATOM      5  O   UNL     1       3.345   2.509  21.337  0.00  0.00    +0.000 OA
ATOM      6  O   UNL     1       4.132   3.786  19.613  0.00  0.00    +0.000 OA
ATOM      7  C   UNL     1       4.026   4.955  18.822  0.00  0.00    +0.000 A 
ATOM      8  C   UNL     1       4.934   5.043  17.754  0.00  0.00    +0.000 A 
ATOM      9  C   UNL     1       4.836   6.133  16.895  0.00  0.00    +0.000 A 
ATOM     10  C   UNL     1       3.905   7.145  17.145  0.00  0.00    +0.000 A 
ATOM     11  C   UNL     1       3.013   7.049  18.226  0.00  0.00    +0.000 A 
ATOM     12  C   UNL     1       3.049   5.928  19.085  0.00  0.00    +0.000 A 
ATOM     13  O   UNL     1       5.595   6.279  15.763  0.00  0.00    +0.000 OA
ATOM     14  C   UNL     1       6.281   5.095  15.302  0.00  0.00    +0.000 C 
ATOM     15  C   UNL     1       7.360   5.565  14.316  0.00  0.00    +0.000 C 
ATOM     16  C   UNL     1       5.297   4.191  14.539  0.00  0.00    +0.000 C 
ATOM     17  C   UNL     1       6.965   4.384  16.477  0.00  0.00    +0.000 C 
ATOM     18  C   UNL     1       5.940   3.953  17.512  0.00  0.00    +0.000 C 
ENDROOT
BRANCH  11  19
ATOM     19  O   UNL     1       2.001   7.954  18.396  0.00  0.00    +0.000 OA
BRANCH  19  20
ATOM     20  C   UNL     1       2.205   9.284  17.917  0.00  0.00    +0.000 C 
BRANCH  20  21
ATOM     21  C   UNL     1       1.036  10.144  18.407  0.00  0.00    +0.000 C 
ATOM     22  O   UNL     1       1.165  11.001  19.278  0.00  0.00    +0.000 OA
ATOM     23  N   UNL     1      -0.148   9.901  17.730  0.00  0.00    +0.000 N 
ATOM     24  H   UNL     1      -0.133   9.152  17.044  0.00  0.00    +0.000 HD
BRANCH  23  25
ATOM     25  C   UNL     1      -1.380  10.552  18.026  0.00  0.00    +0.000 C 
ATOM     26  C   UNL     1      -2.245  11.076  16.910  0.00  0.00    +0.000 C 
ATOM     27  C   UNL     1      -2.697   9.894  17.716  0.00  0.00    +0.000 C 
ENDBRANCH  23  25
ENDBRANCH  20  21
ENDBRANCH  19  20
ENDBRANCH  11  19
TORSDOF 4
ENDMDL
MODEL 2
REMARK VINA RESULT:      -7.4      2.457      4.586
REMARK  Name = 
REMARK  7 active torsions:
REMARK  status: ('A' for Active; 'I' for Inactive)
REMARK    1  A    between atoms: C_1  and  C_2
REMARK    2  A    between atoms: C_11  and  O_12
REMARK    3  A    between atoms: O_12  and  C_13
REMARK    4  A    between atoms: C_13  and  C_14
REMARK    5  A    between atoms: N_16  and  C_17
REMARK    6  A    between atoms: C_22  and  C_23
REMARK    7  A    between atoms: C_22  and  C_24
REMARK                            x       y       z     vdW  Elec       q    Type
REMARK                         _______ _______ _______ _____ _____    ______ ____
ROOT
ATOM      1  C   UNL     1       6.313   8.296  17.339  0.00  0.00    +0.000 C 
ATOM      2  C   UNL     1       6.266   6.818  17.593  0.00  0.00    +0.000 A 
ATOM      3  C   UNL     1       7.416   6.124  17.620  0.00  0.00    +0.000 A 
ATOM      4  C   UNL     1       7.494   4.682  17.846  0.00  0.00    +0.000 A 
ATOM      5  O   UNL     1       8.572   4.101  17.878  0.00  0.00    +0.000 OA
ATOM      6  O   UNL     1       6.292   4.025  18.014  0.00  0.00    +0.000 OA
ATOM      7  C   UNL     1       5.053   4.709  18.007  0.00  0.00    +0.000 A 
ATOM      8  C   UNL     1       3.924   3.910  18.246  0.00  0.00    +0.000 A 
ATOM      9  C   UNL     1       2.681   4.531  18.323  0.00  0.00    +0.000 A 
ATOM     10  C   UNL     1       2.565   5.905  18.091  0.00  0.00    +0.000 A 
ATOM     11  C   UNL     1       3.703   6.689  17.841  0.00  0.00    +0.000 A 
ATOM     12  C   UNL     1       4.986   6.098  17.810  0.00  0.00    +0.000 A 
ATOM     13  O   UNL     1       1.522   3.876  18.650  0.00  0.00    +0.000 OA
ATOM     14  C   UNL     1       1.678   2.567  19.240  0.00  0.00    +0.000 C 
ATOM     15  C   UNL     1       0.314   1.870  19.138  0.00  0.00    +0.000 C 
ATOM     16  C   UNL     1       2.031   2.710  20.731  0.00  0.00    +0.000 C 
ATOM     17  C   UNL     1       2.709   1.747  18.453  0.00  0.00    +0.000 C 
ATOM     18  C   UNL     1       4.066   2.431  18.475  0.00  0.00    +0.000 C 
ENDROOT
BRANCH  11  19
ATOM     19  O   UNL     1       3.625   8.053  17.760  0.00  0.00    +0.000 OA
BRANCH  19  20
ATOM     20  C   UNL     1       2.382   8.628  17.353  0.00  0.00    +0.000 C 
BRANCH  20  21
ATOM     21  C   UNL     1       1.901   9.550  18.478  0.00  0.00    +0.000 C 
ATOM     22  O   UNL     1       1.943  10.774  18.393  0.00  0.00    +0.000 OA
ATOM     23  N   UNL     1       1.365   8.867  19.558  0.00  0.00    +0.000 N 
ATOM     24  H   UNL     1       1.407   7.852  19.520  0.00  0.00    +0.000 HD
BRANCH  23  25
ATOM     25  C   UNL     1       0.881   9.501  20.738  0.00  0.00    +0.000 C 
ATOM     26  C   UNL     1      -0.163   8.823  21.587  0.00  0.00    +0.000 C 
ATOM     27  C   UNL     1       1.238   8.976  22.101  0.00  0.00    +0.000 C 
ENDBRANCH  23  25
ENDBRANCH  20  21
ENDBRANCH  19  20
ENDBRANCH  11  19
TORSDOF 4
ENDMDL
MODEL 3
REMARK VINA RESULT:      -7.4      1.473      2.073
REMARK  Name = 
REMARK  7 active torsions:
REMARK  status: ('A' for Active; 'I' for Inactive)
REMARK    1  A    between atoms: C_1  and  C_2
REMARK    2  A    between atoms: C_11  and  O_12
REMARK    3  A    between atoms: O_12  and  C_13
REMARK    4  A    between atoms: C_13  and  C_14
REMARK    5  A    between atoms: N_16  and  C_17
REMARK    6  A    between atoms: C_22  and  C_23
REMARK    7  A    between atoms: C_22  and  C_24
REMARK                            x       y       z     vdW  Elec       q    Type
REMARK                         _______ _______ _______ _____ _____    ______ ____
ROOT
ATOM      1  C   UNL     1       1.200   6.861  20.737  0.00  0.00    +0.000 C 
ATOM      2  C   UNL     1       2.164   5.805  20.282  0.00  0.00    +0.000 A 
ATOM      3  C   UNL     1       2.200   4.631  20.934  0.00  0.00    +0.000 A 
ATOM      4  C   UNL     1       3.104   3.534  20.590  0.00  0.00    +0.000 A 
ATOM      5  O   UNL     1       3.083   2.476  21.209  0.00  0.00    +0.000 OA
ATOM      6  O   UNL     1       3.971   3.765  19.542  0.00  0.00    +0.000 OA
ATOM      7  C   UNL     1       3.965   4.977  18.812  0.00  0.00    +0.000 A 
ATOM      8  C   UNL     1       4.869   5.038  17.740  0.00  0.00    +0.000 A 
ATOM      9  C   UNL     1       4.865   6.175  16.938  0.00  0.00    +0.000 A 
ATOM     10  C   UNL     1       4.031   7.253  17.250  0.00  0.00    +0.000 A 
ATOM     11  C   UNL     1       3.141   7.182  18.334  0.00  0.00    +0.000 A 
ATOM     12  C   UNL     1       3.082   6.020  19.135  0.00  0.00    +0.000 A 
ATOM     13  O   UNL     1       5.627   6.311  15.806  0.00  0.00    +0.000 OA
ATOM     14  C   UNL     1       6.200   5.095  15.278  0.00  0.00    +0.000 C 
ATOM     15  C   UNL     1       7.310   5.516  14.305  0.00  0.00    +0.000 C 
ATOM     16  C   UNL     1       5.133   4.324  14.482  0.00  0.00    +0.000 C 
ATOM     17  C   UNL     1       6.825   4.266  16.408  0.00  0.00    +0.000 C 
ATOM     18  C   UNL     1       5.772   3.876  17.432  0.00  0.00    +0.000 C 
ENDROOT
BRANCH  11  19
ATOM     19  O   UNL     1       2.216   8.165  18.562  0.00  0.00    +0.000 OA
BRANCH  19  20
ATOM     20  C   UNL     1       2.146   9.246  17.631  0.00  0.00    +0.000 C 
BRANCH  20  21
ATOM     21  C   UNL     1       1.624  10.476  18.379  0.00  0.00    +0.000 C 
ATOM     22  O   UNL     1       0.815  10.396  19.300  0.00  0.00    +0.000 OA
ATOM     23  N   UNL     1       2.199  11.663  17.956  0.00  0.00    +0.000 N 
ATOM     24  H   UNL     1       2.840  11.603  17.170  0.00  0.00    +0.000 HD
BRANCH  23  25
ATOM     25  C   UNL     1       1.853  12.943  18.478  0.00  0.00    +0.000 C 
ATOM     26  C   UNL     1       2.710  13.584  19.538  0.00  0.00    +0.000 C 
ATOM     27  C   UNL     1       2.677  14.159  18.153  0.00  0.00    +0.000 C 
ENDBRANCH  23  25
ENDBRANCH  20  21
ENDBRANCH  19  20
ENDBRANCH  11  19
TORSDOF 4
ENDMDL
MODEL 4
REMARK VINA RESULT:      -7.3      1.406      1.570
REMARK  Name = 
REMARK  7 active torsions:
REMARK  status: ('A' for Active; 'I' for Inactive)
REMARK    1  A    between atoms: C_1  and  C_2
REMARK    2  A    between atoms: C_11  and  O_12
REMARK    3  A    between atoms: O_12  and  C_13
REMARK    4  A    between atoms: C_13  and  C_14
REMARK    5  A    between atoms: N_16  and  C_17
REMARK    6  A    between atoms: C_22  and  C_23
REMARK    7  A    between atoms: C_22  and  C_24
REMARK                            x       y       z     vdW  Elec       q    Type
REMARK                         _______ _______ _______ _____ _____    ______ ____
ROOT
ATOM      1  C   UNL     1       1.370   6.418  20.623  0.00  0.00    +0.000 C 
ATOM      2  C   UNL     1       2.399   5.441  20.136  0.00  0.00    +0.000 A 
ATOM      3  C   UNL     1       2.540   4.269  20.777  0.00  0.00    +0.000 A 
ATOM      4  C   UNL     1       3.514   3.246  20.402  0.00  0.00    +0.000 A 
ATOM      5  O   UNL     1       3.589   2.185  21.012  0.00  0.00    +0.000 OA
ATOM      6  O   UNL     1       4.334   3.547  19.334  0.00  0.00    +0.000 OA
ATOM      7  C   UNL     1       4.219   4.761  18.616  0.00  0.00    +0.000 A 
ATOM      8  C   UNL     1       5.090   4.897  17.522  0.00  0.00    +0.000 A 
ATOM      9  C   UNL     1       4.980   6.036  16.730  0.00  0.00    +0.000 A 
ATOM     10  C   UNL     1       4.074   7.046  17.071  0.00  0.00    +0.000 A 
ATOM     11  C   UNL     1       3.220   6.900  18.176  0.00  0.00    +0.000 A 
ATOM     12  C   UNL     1       3.268   5.732  18.969  0.00  0.00    +0.000 A 
ATOM     13  O   UNL     1       5.700   6.236  15.581  0.00  0.00    +0.000 OA
ATOM     14  C   UNL     1       6.350   5.070  15.029  0.00  0.00    +0.000 C 
ATOM     15  C   UNL     1       7.400   5.580  14.032  0.00  0.00    +0.000 C 
ATOM     16  C   UNL     1       5.324   4.226  14.253  0.00  0.00    +0.000 C 
ATOM     17  C   UNL     1       7.063   4.283  16.136  0.00  0.00    +0.000 C 
ATOM     18  C   UNL     1       6.068   3.808  17.182  0.00  0.00    +0.000 C 
ENDROOT
BRANCH  11  19
ATOM     19  O   UNL     1       2.230   7.809  18.435  0.00  0.00    +0.000 OA
BRANCH  19  20
ATOM     20  C   UNL     1       2.126   8.947  17.577  0.00  0.00    +0.000 C 
BRANCH  20  21
ATOM     21  C   UNL     1       1.799  10.163  18.449  0.00  0.00    +0.000 C 
ATOM     22  O   UNL     1       2.107  11.308  18.130  0.00  0.00    +0.000 OA
ATOM     23  N   UNL     1       1.075   9.846  19.587  0.00  0.00    +0.000 N 
ATOM     24  H   UNL     1       0.900   8.859  19.753  0.00  0.00    +0.000 HD
BRANCH  23  25
ATOM     25  C   UNL     1       0.681  10.799  20.569  0.00  0.00    +0.000 C 
ATOM     26  C   UNL     1      -0.781  11.030  20.854  0.00  0.00    +0.000 C 
ATOM     27  C   UNL     1       0.085  10.360  21.879  0.00  0.00    +0.000 C 
ENDBRANCH  23  25
ENDBRANCH  20  21
ENDBRANCH  19  20
ENDBRANCH  11  19
TORSDOF 4
ENDMDL
MODEL 5
REMARK VINA RESULT:      -7.3      2.462      6.744
REMARK  Name = 
REMARK  7 active torsions:
REMARK  status: ('A' for Active; 'I' for Inactive)
REMARK    1  A    between atoms: C_1  and  C_2
REMARK    2  A    between atoms: C_11  and  O_12
REMARK    3  A    between atoms: O_12  and  C_13
REMARK    4  A    between atoms: C_13  and  C_14
REMARK    5  A    between atoms: N_16  and  C_17
REMARK    6  A    between atoms: C_22  and  C_23
REMARK    7  A    between atoms: C_22  and  C_24
REMARK                            x       y       z     vdW  Elec       q    Type
REMARK                         _______ _______ _______ _____ _____    ______ ____
ROOT
ATOM      1  C   UNL     1       4.349   3.467  18.096  0.00  0.00    +0.000 C 
ATOM      2  C   UNL     1       3.441   3.971  19.179  0.00  0.00    +0.000 A 
ATOM      3  C   UNL     1       3.115   3.151  20.192  0.00  0.00    +0.000 A 
ATOM      4  C   UNL     1       2.231   3.527  21.294  0.00  0.00    +0.000 A 
ATOM      5  O   UNL     1       1.981   2.743  22.203  0.00  0.00    +0.000 OA
ATOM      6  O   UNL     1       1.702   4.800  21.244  0.00  0.00    +0.000 OA
ATOM      7  C   UNL     1       2.023   5.709  20.208  0.00  0.00    +0.000 A 
ATOM      8  C   UNL     1       1.447   6.983  20.327  0.00  0.00    +0.000 A 
ATOM      9  C   UNL     1       1.778   7.947  19.380  0.00  0.00    +0.000 A 
ATOM     10  C   UNL     1       2.603   7.618  18.299  0.00  0.00    +0.000 A 
ATOM     11  C   UNL     1       3.160   6.334  18.187  0.00  0.00    +0.000 A 
ATOM     12  C   UNL     1       2.888   5.349  19.162  0.00  0.00    +0.000 A 
ATOM     13  O   UNL     1       1.363   9.252  19.444  0.00  0.00    +0.000 OA
ATOM     14  C   UNL     1       0.833   9.686  20.715  0.00  0.00    +0.000 C 
ATOM     15  C   UNL     1       0.069  10.993  20.454  0.00  0.00    +0.000 C 
ATOM     16  C   UNL     1       1.991   9.995  21.681  0.00  0.00    +0.000 C 
ATOM     17  C   UNL     1      -0.150   8.645  21.267  0.00  0.00    +0.000 C 
ATOM     18  C   UNL     1       0.549   7.313  21.486  0.00  0.00    +0.000 C 
ENDROOT
BRANCH  11  19
ATOM     19  O   UNL     1       4.084   6.041  17.221  0.00  0.00    +0.000 OA
BRANCH  19  20
ATOM     20  C   UNL     1       5.218   6.902  17.097  0.00  0.00    +0.000 C 
BRANCH  20  21
ATOM     21  C   UNL     1       6.310   6.134  16.346  0.00  0.00    +0.000 C 
ATOM     22  O   UNL     1       7.507   6.343  16.525  0.00  0.00    +0.000 OA
ATOM     23  N   UNL     1       5.813   5.151  15.506  0.00  0.00    +0.000 N 
ATOM     24  H   UNL     1       4.802   5.090  15.426  0.00  0.00    +0.000 HD
BRANCH  23  25
ATOM     25  C   UNL     1       6.629   4.327  14.679  0.00  0.00    +0.000 C 
ATOM     26  C   UNL     1       6.083   3.776  13.387  0.00  0.00    +0.000 C 
ATOM     27  C   UNL     1       7.151   4.829  13.360  0.00  0.00    +0.000 C 
ENDBRANCH  23  25
ENDBRANCH  20  21
ENDBRANCH  19  20
ENDBRANCH  11  19
TORSDOF 4
ENDMDL
MODEL 6
REMARK VINA RESULT:      -7.1      2.113      4.306
REMARK  Name = 
REMARK  7 active torsions:
REMARK  status: ('A' for Active; 'I' for Inactive)
REMARK    1  A    between atoms: C_1  and  C_2
REMARK    2  A    between atoms: C_11  and  O_12
REMARK    3  A    between atoms: O_12  and  C_13
REMARK    4  A    between atoms: C_13  and  C_14
REMARK    5  A    between atoms: N_16  and  C_17
REMARK    6  A    between atoms: C_22  and  C_23
REMARK    7  A    between atoms: C_22  and  C_24
REMARK                            x       y       z     vdW  Elec       q    Type
REMARK                         _______ _______ _______ _____ _____    ______ ____
ROOT
ATOM      1  C   UNL     1       6.308   8.317  17.403  0.00  0.00    +0.000 C 
ATOM      2  C   UNL     1       6.258   6.834  17.624  0.00  0.00    +0.000 A 
ATOM      3  C   UNL     1       7.407   6.136  17.626  0.00  0.00    +0.000 A 
ATOM      4  C   UNL     1       7.481   4.689  17.818  0.00  0.00    +0.000 A 
ATOM      5  O   UNL     1       8.559   4.104  17.828  0.00  0.00    +0.000 OA
ATOM      6  O   UNL     1       6.279   4.033  17.983  0.00  0.00    +0.000 OA
ATOM      7  C   UNL     1       5.042   4.721  18.002  0.00  0.00    +0.000 A 
ATOM      8  C   UNL     1       3.913   3.919  18.233  0.00  0.00    +0.000 A 
ATOM      9  C   UNL     1       2.673   4.543  18.335  0.00  0.00    +0.000 A 
ATOM     10  C   UNL     1       2.560   5.922  18.135  0.00  0.00    +0.000 A 
ATOM     11  C   UNL     1       3.698   6.708  17.892  0.00  0.00    +0.000 A 
ATOM     12  C   UNL     1       4.978   6.113  17.836  0.00  0.00    +0.000 A 
ATOM     13  O   UNL     1       1.514   3.884  18.658  0.00  0.00    +0.000 OA
ATOM     14  C   UNL     1       1.671   2.562  19.217  0.00  0.00    +0.000 C 
ATOM     15  C   UNL     1       0.304   1.872  19.112  0.00  0.00    +0.000 C 
ATOM     16  C   UNL     1       2.038   2.671  20.707  0.00  0.00    +0.000 C 
ATOM     17  C   UNL     1       2.693   1.756  18.403  0.00  0.00    +0.000 C 
ATOM     18  C   UNL     1       4.052   2.436  18.428  0.00  0.00    +0.000 C 
ENDROOT
BRANCH  11  19
ATOM     19  O   UNL     1       3.623   8.073  17.842  0.00  0.00    +0.000 OA
BRANCH  19  20
ATOM     20  C   UNL     1       2.428   8.659  17.323  0.00  0.00    +0.000 C 
BRANCH  20  21
ATOM     21  C   UNL     1       1.695   9.337  18.484  0.00  0.00    +0.000 C 
ATOM     22  O   UNL     1       1.673   8.864  19.618  0.00  0.00    +0.000 OA
ATOM     23  N   UNL     1       1.121  10.550  18.141  0.00  0.00    +0.000 N 
ATOM     24  H   UNL     1       1.188  10.823  17.164  0.00  0.00    +0.000 HD
BRANCH  23  25
ATOM     25  C   UNL     1       0.360  11.351  19.040  0.00  0.00    +0.000 C 
ATOM     26  C   UNL     1      -0.671  12.312  18.507  0.00  0.00    +0.000 C 
ATOM     27  C   UNL     1      -1.105  11.089  19.259  0.00  0.00    +0.000 C 
ENDBRANCH  23  25
ENDBRANCH  20  21
ENDBRANCH  19  20
ENDBRANCH  11  19
TORSDOF 4
ENDMDL
MODEL 7
REMARK VINA RESULT:      -7.1      1.342      1.613
REMARK  Name = 
REMARK  7 active torsions:
REMARK  status: ('A' for Active; 'I' for Inactive)
REMARK    1  A    between atoms: C_1  and  C_2
REMARK    2  A    between atoms: C_11  and  O_12
REMARK    3  A    between atoms: O_12  and  C_13
REMARK    4  A    between atoms: C_13  and  C_14
REMARK    5  A    between atoms: N_16  and  C_17
REMARK    6  A    between atoms: C_22  and  C_23
REMARK    7  A    between atoms: C_22  and  C_24
REMARK                            x       y       z     vdW  Elec       q    Type
REMARK                         _______ _______ _______ _____ _____    ______ ____
ROOT
ATOM      1  C   UNL     1       1.315   6.465  20.602  0.00  0.00    +0.000 C 
ATOM      2  C   UNL     1       2.353   5.489  20.132  0.00  0.00    +0.000 A 
ATOM      3  C   UNL     1       2.495   4.324  20.786  0.00  0.00    +0.000 A 
ATOM      4  C   UNL     1       3.479   3.303  20.429  0.00  0.00    +0.000 A 
ATOM      5  O   UNL     1       3.554   2.248  21.050  0.00  0.00    +0.000 OA
ATOM      6  O   UNL     1       4.306   3.599  19.366  0.00  0.00    +0.000 OA
ATOM      7  C   UNL     1       4.191   4.805  18.634  0.00  0.00    +0.000 A 
ATOM      8  C   UNL     1       5.070   4.935  17.547  0.00  0.00    +0.000 A 
ATOM      9  C   UNL     1       4.960   6.065  16.743  0.00  0.00    +0.000 A 
ATOM     10  C   UNL     1       4.046   7.073  17.067  0.00  0.00    +0.000 A 
ATOM     11  C   UNL     1       3.184   6.934  18.166  0.00  0.00    +0.000 A 
ATOM     12  C   UNL     1       3.231   5.773  18.970  0.00  0.00    +0.000 A 
ATOM     13  O   UNL     1       5.689   6.258  15.598  0.00  0.00    +0.000 OA
ATOM     14  C   UNL     1       6.350   5.091  15.063  0.00  0.00    +0.000 C 
ATOM     15  C   UNL     1       7.406   5.597  14.070  0.00  0.00    +0.000 C 
ATOM     16  C   UNL     1       5.336   4.233  14.286  0.00  0.00    +0.000 C 
ATOM     17  C   UNL     1       7.058   4.318  16.183  0.00  0.00    +0.000 C 
ATOM     18  C   UNL     1       6.057   3.848  17.226  0.00  0.00    +0.000 C 
ENDROOT
BRANCH  11  19
ATOM     19  O   UNL     1       2.186   7.839  18.407  0.00  0.00    +0.000 OA
BRANCH  19  20
ATOM     20  C   UNL     1       2.275   9.117  17.773  0.00  0.00    +0.000 C 
BRANCH  20  21
ATOM     21  C   UNL     1       1.048   9.934  18.191  0.00  0.00    +0.000 C 
ATOM     22  O   UNL     1      -0.078   9.703  17.759  0.00  0.00    +0.000 OA
ATOM     23  N   UNL     1       1.329  10.902  19.141  0.00  0.00    +0.000 N 
ATOM     24  H   UNL     1       2.305  11.011  19.403  0.00  0.00    +0.000 HD
BRANCH  23  25
ATOM     25  C   UNL     1       0.361  11.808  19.661  0.00  0.00    +0.000 C 
ATOM     26  C   UNL     1       0.793  12.953  20.540  0.00  0.00    +0.000 C 
ATOM     27  C   UNL     1       0.275  13.223  19.158  0.00  0.00    +0.000 C 
ENDBRANCH  23  25
ENDBRANCH  20  21
ENDBRANCH  19  20
ENDBRANCH  11  19
TORSDOF 4
ENDMDL
MODEL 8
REMARK VINA RESULT:      -7.0      4.170     10.070
REMARK  Name = 
REMARK  7 active torsions:
REMARK  status: ('A' for Active; 'I' for Inactive)
REMARK    1  A    between atoms: C_1  and  C_2
REMARK    2  A    between atoms: C_11  and  O_12
REMARK    3  A    between atoms: O_12  and  C_13
REMARK    4  A    between atoms: C_13  and  C_14
REMARK    5  A    between atoms: N_16  and  C_17
REMARK    6  A    between atoms: C_22  and  C_23
REMARK    7  A    between atoms: C_22  and  C_24
REMARK                            x       y       z     vdW  Elec       q    Type
REMARK                         _______ _______ _______ _____ _____    ______ ____
ROOT
ATOM      1  C   UNL     1       0.271   9.802  18.220  0.00  0.00    +0.000 C 
ATOM      2  C   UNL     1      -0.949  10.612  18.549  0.00  0.00    +0.000 A 
ATOM      3  C   UNL     1      -1.941  10.692  17.646  0.00  0.00    +0.000 A 
ATOM      4  C   UNL     1      -3.169  11.459  17.850  0.00  0.00    +0.000 A 
ATOM      5  O   UNL     1      -4.050  11.485  16.999  0.00  0.00    +0.000 OA
ATOM      6  O   UNL     1      -3.268  12.145  19.043  0.00  0.00    +0.000 OA
ATOM      7  C   UNL     1      -2.260  12.083  20.034  0.00  0.00    +0.000 A 
ATOM      8  C   UNL     1      -2.533  12.793  21.214  0.00  0.00    +0.000 A 
ATOM      9  C   UNL     1      -1.614  12.716  22.257  0.00  0.00    +0.000 A 
ATOM     10  C   UNL     1      -0.418  12.010  22.090  0.00  0.00    +0.000 A 
ATOM     11  C   UNL     1      -0.154  11.317  20.898  0.00  0.00    +0.000 A 
ATOM     12  C   UNL     1      -1.091  11.330  19.841  0.00  0.00    +0.000 A 
ATOM     13  O   UNL     1      -1.814  13.278  23.491  0.00  0.00    +0.000 OA
ATOM     14  C   UNL     1      -3.168  13.682  23.791  0.00  0.00    +0.000 C 
ATOM     15  C   UNL     1      -3.090  14.631  24.996  0.00  0.00    +0.000 C 
ATOM     16  C   UNL     1      -3.995  12.452  24.205  0.00  0.00    +0.000 C 
ATOM     17  C   UNL     1      -3.773  14.443  22.604  0.00  0.00    +0.000 C 
ATOM     18  C   UNL     1      -3.816  13.561  21.368  0.00  0.00    +0.000 C 
ENDROOT
BRANCH  11  19
ATOM     19  O   UNL     1       0.939  10.502  20.775  0.00  0.00    +0.000 OA
BRANCH  19  20
ATOM     20  C   UNL     1       1.230   9.608  21.850  0.00  0.00    +0.000 C 
BRANCH  20  21
ATOM     21  C   UNL     1       0.681   8.228  21.475  0.00  0.00    +0.000 C 
ATOM     22  O   UNL     1      -0.510   7.943  21.571  0.00  0.00    +0.000 OA
ATOM     23  N   UNL     1       1.643   7.372  20.965  0.00  0.00    +0.000 N 
ATOM     24  H   UNL     1       2.599   7.717  20.956  0.00  0.00    +0.000 HD
BRANCH  23  25
ATOM     25  C   UNL     1       1.383   6.027  20.576  0.00  0.00    +0.000 C 
ATOM     26  C   UNL     1       2.229   5.370  19.516  0.00  0.00    +0.000 C 
ATOM     27  C   UNL     1       2.331   4.918  20.943  0.00  0.00    +0.000 C 
ENDBRANCH  23  25
ENDBRANCH  20  21
ENDBRANCH  19  20
ENDBRANCH  11  19
TORSDOF 4
ENDMDL
MODEL 9
REMARK VINA RESULT:      -7.0      3.955      9.650
REMARK  Name = 
REMARK  7 active torsions:
REMARK  status: ('A' for Active; 'I' for Inactive)
REMARK    1  A    between atoms: C_1  and  C_2
REMARK    2  A    between atoms: C_11  and  O_12
REMARK    3  A    between atoms: O_12  and  C_13
REMARK    4  A    between atoms: C_13  and  C_14
REMARK    5  A    between atoms: N_16  and  C_17
REMARK    6  A    between atoms: C_22  and  C_23
REMARK    7  A    between atoms: C_22  and  C_24
REMARK                            x       y       z     vdW  Elec       q    Type
REMARK                         _______ _______ _______ _____ _____    ______ ____
ROOT
ATOM      1  C   UNL     1      -0.045   9.092  17.382  0.00  0.00    +0.000 C 
ATOM      2  C   UNL     1      -1.086  10.080  17.819  0.00  0.00    +0.000 A 
ATOM      3  C   UNL     1      -2.143  10.310  17.021  0.00  0.00    +0.000 A 
ATOM      4  C   UNL     1      -3.211  11.256  17.336  0.00  0.00    +0.000 A 
ATOM      5  O   UNL     1      -4.162  11.415  16.579  0.00  0.00    +0.000 OA
ATOM      6  O   UNL     1      -3.081  11.952  18.520  0.00  0.00    +0.000 OA
ATOM      7  C   UNL     1      -1.996  11.738  19.404  0.00  0.00    +0.000 A 
ATOM      8  C   UNL     1      -2.034  12.483  20.593  0.00  0.00    +0.000 A 
ATOM      9  C   UNL     1      -1.035  12.268  21.537  0.00  0.00    +0.000 A 
ATOM     10  C   UNL     1       0.016  11.387  21.262  0.00  0.00    +0.000 A 
ATOM     11  C   UNL     1       0.046  10.659  20.061  0.00  0.00    +0.000 A 
ATOM     12  C   UNL     1      -0.983  10.813  19.105  0.00  0.00    +0.000 A 
ATOM     13  O   UNL     1      -1.018  12.857  22.775  0.00  0.00    +0.000 OA
ATOM     14  C   UNL     1      -2.256  13.464  23.205  0.00  0.00    +0.000 C 
ATOM     15  C   UNL     1      -1.909  14.392  24.378  0.00  0.00    +0.000 C 
ATOM     16  C   UNL     1      -3.213  12.376  23.723  0.00  0.00    +0.000 C 
ATOM     17  C   UNL     1      -2.858  14.307  22.073  0.00  0.00    +0.000 C 
ATOM     18  C   UNL     1      -3.162  13.439  20.863  0.00  0.00    +0.000 C 
ENDROOT
BRANCH  11  19
ATOM     19  O   UNL     1       0.983   9.686  19.842  0.00  0.00    +0.000 OA
BRANCH  19  20
ATOM     20  C   UNL     1       1.192   8.715  20.869  0.00  0.00    +0.000 C 
BRANCH  20  21
ATOM     21  C   UNL     1       1.837   7.484  20.226  0.00  0.00    +0.000 C 
ATOM     22  O   UNL     1       2.545   7.555  19.225  0.00  0.00    +0.000 OA
ATOM     23  N   UNL     1       1.592   6.309  20.918  0.00  0.00    +0.000 N 
ATOM     24  H   UNL     1       0.972   6.376  21.720  0.00  0.00    +0.000 HD
BRANCH  23  25
ATOM     25  C   UNL     1       2.058   5.029  20.500  0.00  0.00    +0.000 C 
ATOM     26  C   UNL     1       2.100   3.884  21.478  0.00  0.00    +0.000 C 
ATOM     27  C   UNL     1       1.109   3.871  20.351  0.00  0.00    +0.000 C 
ENDBRANCH  23  25
ENDBRANCH  20  21
ENDBRANCH  19  20
ENDBRANCH  11  19
TORSDOF 4
ENDMDL
