MODEL 1
REMARK VINA RESULT:      -7.7      0.000      0.000
REMARK  Name = 
REMARK  2 active torsions:
REMARK  status: ('A' for Active; 'I' for Inactive)
REMARK    1  A    between atoms: C_4  and  C_5
REMARK    2  A    between atoms: C_13  and  C_14
REMARK                            x       y       z     vdW  Elec       q    Type
REMARK                         _______ _______ _______ _____ _____    ______ ____
ROOT
ATOM      1  N   UNL     1       1.954   3.571  21.354  0.00  0.00    +0.000 N 
ATOM      2  C   UNL     1       2.246   4.640  20.533  0.00  0.00    +0.000 A 
ATOM      3  N   UNL     1       1.724   5.811  20.851  0.00  0.00    +0.000 NA
ATOM      4  C   UNL     1       2.042   6.817  20.034  0.00  0.00    +0.000 A 
ATOM      5  N   UNL     1       2.812   6.696  18.954  0.00  0.00    +0.000 NA
ATOM      6  C   UNL     1       3.272   5.469  18.720  0.00  0.00    +0.000 A 
ATOM      7  N   UNL     1       3.005   4.405  19.476  0.00  0.00    +0.000 NA
ATOM      8  H   UNL     1       1.101   3.733  21.869  0.00  0.00    +0.000 HD
ATOM      9  H   UNL     1       2.039   2.697  20.855  0.00  0.00    +0.000 HD
ENDROOT
BRANCH   4  10
ATOM     10  C   UNL     1       1.508   8.160  20.347  0.00  0.00    +0.000 A 
ATOM     11  C   UNL     1       1.168   8.531  21.663  0.00  0.00    +0.000 A 
ATOM     12  C   UNL     1       0.666   9.804  21.960  0.00  0.00    +0.000 A 
ATOM     13  C   UNL     1       0.495  10.735  20.940  0.00  0.00    +0.000 A 
ATOM     14 CL   UNL     1      -0.121  12.299  21.302  0.00  0.00    +0.000 Cl
ATOM     15  C   UNL     1       0.822  10.404  19.631  0.00  0.00    +0.000 A 
ATOM     16  C   UNL     1       1.323   9.130  19.340  0.00  0.00    +0.000 A 
ENDBRANCH   4  10
BRANCH   6  17
ATOM     17  C   UNL     1       4.154   5.282  17.546  0.00  0.00    +0.000 A 
ATOM     18  C   UNL     1       4.587   4.001  17.148  0.00  0.00    +0.000 A 
ATOM     19  C   UNL     1       5.408   3.819  16.029  0.00  0.00    +0.000 A 
ATOM     20  C   UNL     1       5.815   4.920  15.285  0.00  0.00    +0.000 A 
ATOM     21 CL   UNL     1       6.820   4.700  13.907  0.00  0.00    +0.000 Cl
ATOM     22  C   UNL     1       5.411   6.199  15.651  0.00  0.00    +0.000 A 
ATOM     23  C   UNL     1       4.589   6.376  16.771  0.00  0.00    +0.000 A 
ENDBRANCH   6  17
TORSDOF 2
ENDMDL
MODEL 2
REMARK VINA RESULT:      -7.7      0.069      1.053
REMARK  Name = 
REMARK  2 active torsions:
REMARK  status: ('A' for Active; 'I' for Inactive)
REMARK    1  A    between atoms: C_4  and  C_5
REMARK    2  A    between atoms: C_13  and  C_14
REMARK                            x       y       z     vdW  Elec       q    Type
REMARK                         _______ _______ _______ _____ _____    ______ ____
ROOT
ATOM      1  N   UNL     1       1.996   3.628  21.443  0.00  0.00    +0.000 N 
ATOM      2  C   UNL     1       2.262   4.689  20.603  0.00  0.00    +0.000 A 
ATOM      3  N   UNL     1       1.730   5.858  20.912  0.00  0.00    +0.000 NA
ATOM      4  C   UNL     1       2.022   6.856  20.077  0.00  0.00    +0.000 A 
ATOM      5  N   UNL     1       2.778   6.731  18.988  0.00  0.00    +0.000 NA
ATOM      6  C   UNL     1       3.251   5.506  18.764  0.00  0.00    +0.000 A 
ATOM      7  N   UNL     1       3.008   4.449  19.538  0.00  0.00    +0.000 NA
ATOM      8  H   UNL     1       1.148   3.786  21.968  0.00  0.00    +0.000 HD
ATOM      9  H   UNL     1       2.085   2.749  20.954  0.00  0.00    +0.000 HD
ENDROOT
BRANCH   4  10
ATOM     10  C   UNL     1       1.476   8.197  20.380  0.00  0.00    +0.000 A 
ATOM     11  C   UNL     1       1.105   8.564  21.689  0.00  0.00    +0.000 A 
ATOM     12  C   UNL     1       0.591   9.835  21.976  0.00  0.00    +0.000 A 
ATOM     13  C   UNL     1       0.438  10.766  20.954  0.00  0.00    +0.000 A 
ATOM     14 CL   UNL     1      -0.193  12.327  21.304  0.00  0.00    +0.000 Cl
ATOM     15  C   UNL     1       0.795  10.439  19.651  0.00  0.00    +0.000 A 
ATOM     16  C   UNL     1       1.308   9.167  19.370  0.00  0.00    +0.000 A 
ENDBRANCH   4  10
BRANCH   6  17
ATOM     17  C   UNL     1       4.117   5.315  17.580  0.00  0.00    +0.000 A 
ATOM     18  C   UNL     1       4.562   6.409  16.809  0.00  0.00    +0.000 A 
ATOM     19  C   UNL     1       5.395   6.232  15.697  0.00  0.00    +0.000 A 
ATOM     20  C   UNL     1       5.799   4.952  15.334  0.00  0.00    +0.000 A 
ATOM     21 CL   UNL     1       6.826   4.733  13.972  0.00  0.00    +0.000 Cl
ATOM     22  C   UNL     1       5.376   3.851  16.068  0.00  0.00    +0.000 A 
ATOM     23  C   UNL     1       4.544   4.032  17.180  0.00  0.00    +0.000 A 
ENDBRANCH   6  17
TORSDOF 2
ENDMDL
MODEL 3
REMARK VINA RESULT:      -7.7      0.053      1.052
REMARK  Name = 
REMARK  2 active torsions:
REMARK  status: ('A' for Active; 'I' for Inactive)
REMARK    1  A    between atoms: C_4  and  C_5
REMARK    2  A    between atoms: C_13  and  C_14
REMARK                            x       y       z     vdW  Elec       q    Type
REMARK                         _______ _______ _______ _____ _____    ______ ____
ROOT
ATOM      1  N   UNL     1       1.940   3.600  21.399  0.00  0.00    +0.000 N 
ATOM      2  C   UNL     1       2.232   4.667  20.576  0.00  0.00    +0.000 A 
ATOM      3  N   UNL     1       1.707   5.838  20.890  0.00  0.00    +0.000 NA
ATOM      4  C   UNL     1       2.025   6.842  20.070  0.00  0.00    +0.000 A 
ATOM      5  N   UNL     1       2.797   6.720  18.992  0.00  0.00    +0.000 NA
ATOM      6  C   UNL     1       3.259   5.493  18.762  0.00  0.00    +0.000 A 
ATOM      7  N   UNL     1       2.992   4.430  19.521  0.00  0.00    +0.000 NA
ATOM      8  H   UNL     1       1.086   3.762  21.913  0.00  0.00    +0.000 HD
ATOM      9  H   UNL     1       2.027   2.725  20.903  0.00  0.00    +0.000 HD
ENDROOT
BRANCH   4  10
ATOM     10  C   UNL     1       1.489   8.186  20.379  0.00  0.00    +0.000 A 
ATOM     11  C   UNL     1       1.304   9.156  19.374  0.00  0.00    +0.000 A 
ATOM     12  C   UNL     1       0.792  10.426  19.667  0.00  0.00    +0.000 A 
ATOM     13  C   UNL     1       0.455  10.751  20.977  0.00  0.00    +0.000 A 
ATOM     14 CL   UNL     1      -0.174  12.310  21.339  0.00  0.00    +0.000 Cl
ATOM     15  C   UNL     1       0.622   9.818  21.993  0.00  0.00    +0.000 A 
ATOM     16  C   UNL     1       1.134   8.550  21.695  0.00  0.00    +0.000 A 
ENDBRANCH   4  10
BRANCH   6  17
ATOM     17  C   UNL     1       4.143   5.304  17.590  0.00  0.00    +0.000 A 
ATOM     18  C   UNL     1       4.592   4.024  17.206  0.00  0.00    +0.000 A 
ATOM     19  C   UNL     1       5.416   3.840  16.089  0.00  0.00    +0.000 A 
ATOM     20  C   UNL     1       5.808   4.938  15.332  0.00  0.00    +0.000 A 
ATOM     21 CL   UNL     1       6.815   4.715  13.957  0.00  0.00    +0.000 Cl
ATOM     22  C   UNL     1       5.388   6.216  15.684  0.00  0.00    +0.000 A 
ATOM     23  C   UNL     1       4.563   6.395  16.802  0.00  0.00    +0.000 A 
ENDBRANCH   6  17
TORSDOF 2
ENDMDL
MODEL 4
REMARK VINA RESULT:      -7.7      0.088      7.029
REMARK  Name = 
REMARK  2 active torsions:
REMARK  status: ('A' for Active; 'I' for Inactive)
REMARK    1  A    between atoms: C_4  and  C_5
REMARK    2  A    between atoms: C_13  and  C_14
REMARK                            x       y       z     vdW  Elec       q    Type
REMARK                         _______ _______ _______ _____ _____    ______ ____
ROOT
ATOM      1  N   UNL     1       1.789   3.601  21.320  0.00  0.00    +0.000 N 
ATOM      2  C   UNL     1       2.134   4.678  20.532  0.00  0.00    +0.000 A 
ATOM      3  N   UNL     1       2.936   4.450  19.507  0.00  0.00    +0.000 NA
ATOM      4  C   UNL     1       3.233   5.519  18.767  0.00  0.00    +0.000 A 
ATOM      5  N   UNL     1       2.793   6.752  19.013  0.00  0.00    +0.000 NA
ATOM      6  C   UNL     1       2.003   6.870  20.078  0.00  0.00    +0.000 A 
ATOM      7  N   UNL     1       1.656   5.861  20.877  0.00  0.00    +0.000 NA
ATOM      8  H   UNL     1       2.471   2.860  21.240  0.00  0.00    +0.000 HD
ATOM      9  H   UNL     1       1.533   3.900  22.251  0.00  0.00    +0.000 HD
ENDROOT
BRANCH   4  10
ATOM     10  C   UNL     1       4.109   5.327  17.591  0.00  0.00    +0.000 A 
ATOM     11  C   UNL     1       4.565   6.417  16.823  0.00  0.00    +0.000 A 
ATOM     12  C   UNL     1       5.397   6.234  15.712  0.00  0.00    +0.000 A 
ATOM     13  C   UNL     1       5.790   4.952  15.346  0.00  0.00    +0.000 A 
ATOM     14 CL   UNL     1       6.812   4.725  13.982  0.00  0.00    +0.000 Cl
ATOM     15  C   UNL     1       5.360   3.853  16.080  0.00  0.00    +0.000 A 
ATOM     16  C   UNL     1       4.529   4.041  17.191  0.00  0.00    +0.000 A 
ENDBRANCH   4  10
BRANCH   6  17
ATOM     17  C   UNL     1       1.464   8.214  20.383  0.00  0.00    +0.000 A 
ATOM     18  C   UNL     1       1.108   8.583  21.697  0.00  0.00    +0.000 A 
ATOM     19  C   UNL     1       0.613   9.859  21.992  0.00  0.00    +0.000 A 
ATOM     20  C   UNL     1       0.462  10.793  20.974  0.00  0.00    +0.000 A 
ATOM     21 CL   UNL     1      -0.141  12.363  21.334  0.00  0.00    +0.000 Cl
ATOM     22  C   UNL     1       0.800  10.463  19.666  0.00  0.00    +0.000 A 
ATOM     23  C   UNL     1       1.296   9.185  19.376  0.00  0.00    +0.000 A 
ENDBRANCH   6  17
TORSDOF 2
ENDMDL
MODEL 5
REMARK VINA RESULT:      -7.7      0.068      6.995
REMARK  Name = 
REMARK  2 active torsions:
REMARK  status: ('A' for Active; 'I' for Inactive)
REMARK    1  A    between atoms: C_4  and  C_5
REMARK    2  A    between atoms: C_13  and  C_14
REMARK                            x       y       z     vdW  Elec       q    Type
REMARK                         _______ _______ _______ _____ _____    ______ ____
ROOT
ATOM      1  N   UNL     1       1.796   3.573  21.310  0.00  0.00    +0.000 N 
ATOM      2  C   UNL     1       2.143   4.651  20.523  0.00  0.00    +0.000 A 
ATOM      3  N   UNL     1       2.944   4.423  19.499  0.00  0.00    +0.000 NA
ATOM      4  C   UNL     1       3.244   5.493  18.760  0.00  0.00    +0.000 A 
ATOM      5  N   UNL     1       2.806   6.726  19.007  0.00  0.00    +0.000 NA
ATOM      6  C   UNL     1       2.016   6.844  20.073  0.00  0.00    +0.000 A 
ATOM      7  N   UNL     1       1.667   5.834  20.870  0.00  0.00    +0.000 NA
ATOM      8  H   UNL     1       2.476   2.832  21.229  0.00  0.00    +0.000 HD
ATOM      9  H   UNL     1       1.541   3.872  22.241  0.00  0.00    +0.000 HD
ENDROOT
BRANCH   4  10
ATOM     10  C   UNL     1       4.120   5.301  17.584  0.00  0.00    +0.000 A 
ATOM     11  C   UNL     1       4.534   4.018  17.174  0.00  0.00    +0.000 A 
ATOM     12  C   UNL     1       5.360   3.836  16.057  0.00  0.00    +0.000 A 
ATOM     13  C   UNL     1       5.788   4.940  15.328  0.00  0.00    +0.000 A 
ATOM     14 CL   UNL     1       6.803   4.719  13.957  0.00  0.00    +0.000 Cl
ATOM     15  C   UNL     1       5.398   6.220  15.702  0.00  0.00    +0.000 A 
ATOM     16  C   UNL     1       4.573   6.396  16.819  0.00  0.00    +0.000 A 
ENDBRANCH   4  10
BRANCH   6  17
ATOM     17  C   UNL     1       1.480   8.188  20.380  0.00  0.00    +0.000 A 
ATOM     18  C   UNL     1       1.129   8.558  21.695  0.00  0.00    +0.000 A 
ATOM     19  C   UNL     1       0.636   9.834  21.991  0.00  0.00    +0.000 A 
ATOM     20  C   UNL     1       0.482  10.768  20.973  0.00  0.00    +0.000 A 
ATOM     21 CL   UNL     1      -0.119  12.338  21.335  0.00  0.00    +0.000 Cl
ATOM     22  C   UNL     1       0.813  10.437  19.665  0.00  0.00    +0.000 A 
ATOM     23  C   UNL     1       1.307   9.159  19.373  0.00  0.00    +0.000 A 
ENDBRANCH   6  17
TORSDOF 2
ENDMDL
MODEL 6
REMARK VINA RESULT:      -7.7      0.104      7.028
REMARK  Name = 
REMARK  2 active torsions:
REMARK  status: ('A' for Active; 'I' for Inactive)
REMARK    1  A    between atoms: C_4  and  C_5
REMARK    2  A    between atoms: C_13  and  C_14
REMARK                            x       y       z     vdW  Elec       q    Type
REMARK                         _______ _______ _______ _____ _____    ______ ____
ROOT
ATOM      1  N   UNL     1       2.052   3.623  21.455  0.00  0.00    +0.000 N 
ATOM      2  C   UNL     1       2.328   4.680  20.615  0.00  0.00    +0.000 A 
ATOM      3  N   UNL     1       3.107   4.442  19.574  0.00  0.00    +0.000 NA
ATOM      4  C   UNL     1       3.339   5.492  18.784  0.00  0.00    +0.000 A 
ATOM      5  N   UNL     1       2.857   6.715  18.995  0.00  0.00    +0.000 NA
ATOM      6  C   UNL     1       2.095   6.845  20.080  0.00  0.00    +0.000 A 
ATOM      7  N   UNL     1       1.814   5.856  20.929  0.00  0.00    +0.000 NA
ATOM      8  H   UNL     1       2.760   2.907  21.382  0.00  0.00    +0.000 HD
ATOM      9  H   UNL     1       1.813   3.949  22.381  0.00  0.00    +0.000 HD
ENDROOT
BRANCH   4  10
ATOM     10  C   UNL     1       4.185   5.287  17.589  0.00  0.00    +0.000 A 
ATOM     11  C   UNL     1       4.618   4.003  17.202  0.00  0.00    +0.000 A 
ATOM     12  C   UNL     1       5.416   3.809  16.067  0.00  0.00    +0.000 A 
ATOM     13  C   UNL     1       5.798   4.901  15.296  0.00  0.00    +0.000 A 
ATOM     14 CL   UNL     1       6.779   4.666  13.903  0.00  0.00    +0.000 Cl
ATOM     15  C   UNL     1       5.390   6.182  15.648  0.00  0.00    +0.000 A 
ATOM     16  C   UNL     1       4.592   6.371  16.782  0.00  0.00    +0.000 A 
ENDBRANCH   4  10
BRANCH   6  17
ATOM     17  C   UNL     1       1.512   8.178  20.350  0.00  0.00    +0.000 A 
ATOM     18  C   UNL     1       1.305   9.114  19.315  0.00  0.00    +0.000 A 
ATOM     19  C   UNL     1       0.739  10.370  19.564  0.00  0.00    +0.000 A 
ATOM     20  C   UNL     1       0.369  10.716  20.859  0.00  0.00    +0.000 A 
ATOM     21 CL   UNL     1      -0.331  12.256  21.167  0.00  0.00    +0.000 Cl
ATOM     22  C   UNL     1       0.563   9.820  21.904  0.00  0.00    +0.000 A 
ATOM     23  C   UNL     1       1.128   8.564  21.650  0.00  0.00    +0.000 A 
ENDBRANCH   6  17
TORSDOF 2
ENDMDL
MODEL 7
REMARK VINA RESULT:      -7.7      0.072      1.488
REMARK  Name = 
REMARK  2 active torsions:
REMARK  status: ('A' for Active; 'I' for Inactive)
REMARK    1  A    between atoms: C_4  and  C_5
REMARK    2  A    between atoms: C_13  and  C_14
REMARK                            x       y       z     vdW  Elec       q    Type
REMARK                         _______ _______ _______ _____ _____    ______ ____
ROOT
ATOM      1  N   UNL     1       2.110   3.626  21.457  0.00  0.00    +0.000 N 
ATOM      2  C   UNL     1       2.348   4.679  20.599  0.00  0.00    +0.000 A 
ATOM      3  N   UNL     1       1.804   5.844  20.901  0.00  0.00    +0.000 NA
ATOM      4  C   UNL     1       2.071   6.835  20.048  0.00  0.00    +0.000 A 
ATOM      5  N   UNL     1       2.813   6.705  18.950  0.00  0.00    +0.000 NA
ATOM      6  C   UNL     1       3.300   5.485  18.736  0.00  0.00    +0.000 A 
ATOM      7  N   UNL     1       3.083   4.435  19.528  0.00  0.00    +0.000 NA
ATOM      8  H   UNL     1       1.267   3.779  21.992  0.00  0.00    +0.000 HD
ATOM      9  H   UNL     1       2.204   2.741  20.979  0.00  0.00    +0.000 HD
ENDROOT
BRANCH   4  10
ATOM     10  C   UNL     1       1.509   8.172  20.341  0.00  0.00    +0.000 A 
ATOM     11  C   UNL     1       1.318   9.130  19.326  0.00  0.00    +0.000 A 
ATOM     12  C   UNL     1       0.782  10.394  19.604  0.00  0.00    +0.000 A 
ATOM     13  C   UNL     1       0.428  10.724  20.907  0.00  0.00    +0.000 A 
ATOM     14 CL   UNL     1      -0.230  12.276  21.250  0.00  0.00    +0.000 Cl
ATOM     15  C   UNL     1       0.602   9.803  21.933  0.00  0.00    +0.000 A 
ATOM     16  C   UNL     1       1.137   8.541  21.651  0.00  0.00    +0.000 A 
ENDBRANCH   4  10
BRANCH   6  17
ATOM     17  C   UNL     1       4.152   5.289  17.542  0.00  0.00    +0.000 A 
ATOM     18  C   UNL     1       4.593   6.381  16.766  0.00  0.00    +0.000 A 
ATOM     19  C   UNL     1       5.413   6.201  15.646  0.00  0.00    +0.000 A 
ATOM     20  C   UNL     1       5.807   4.919  15.278  0.00  0.00    +0.000 A 
ATOM     21 CL   UNL     1       6.818   4.696  13.905  0.00  0.00    +0.000 Cl
ATOM     22  C   UNL     1       5.388   3.820  16.017  0.00  0.00    +0.000 A 
ATOM     23  C   UNL     1       4.569   4.005  17.138  0.00  0.00    +0.000 A 
ENDBRANCH   6  17
TORSDOF 2
ENDMDL
MODEL 8
REMARK VINA RESULT:      -7.7      0.099      7.063
REMARK  Name = 
REMARK  2 active torsions:
REMARK  status: ('A' for Active; 'I' for Inactive)
REMARK    1  A    between atoms: C_4  and  C_5
REMARK    2  A    between atoms: C_13  and  C_14
REMARK                            x       y       z     vdW  Elec       q    Type
REMARK                         _______ _______ _______ _____ _____    ______ ____
ROOT
ATOM      1  N   UNL     1       2.036   3.617  21.434  0.00  0.00    +0.000 N 
ATOM      2  C   UNL     1       2.313   4.683  20.605  0.00  0.00    +0.000 A 
ATOM      3  N   UNL     1       3.092   4.456  19.563  0.00  0.00    +0.000 NA
ATOM      4  C   UNL     1       3.324   5.514  18.784  0.00  0.00    +0.000 A 
ATOM      5  N   UNL     1       2.842   6.735  19.007  0.00  0.00    +0.000 NA
ATOM      6  C   UNL     1       2.080   6.854  20.093  0.00  0.00    +0.000 A 
ATOM      7  N   UNL     1       1.798   5.856  20.931  0.00  0.00    +0.000 NA
ATOM      8  H   UNL     1       2.744   2.902  21.354  0.00  0.00    +0.000 HD
ATOM      9  H   UNL     1       1.796   3.934  22.363  0.00  0.00    +0.000 HD
ENDROOT
BRANCH   4  10
ATOM     10  C   UNL     1       4.171   5.322  17.586  0.00  0.00    +0.000 A 
ATOM     11  C   UNL     1       4.606   6.412  16.807  0.00  0.00    +0.000 A 
ATOM     12  C   UNL     1       5.412   6.228  15.676  0.00  0.00    +0.000 A 
ATOM     13  C   UNL     1       5.797   4.946  15.302  0.00  0.00    +0.000 A 
ATOM     14 CL   UNL     1       6.786   4.719  13.913  0.00  0.00    +0.000 Cl
ATOM     15  C   UNL     1       5.387   3.847  16.048  0.00  0.00    +0.000 A 
ATOM     16  C   UNL     1       4.583   4.036  17.178  0.00  0.00    +0.000 A 
ENDBRANCH   4  10
BRANCH   6  17
ATOM     17  C   UNL     1       1.497   8.184  20.376  0.00  0.00    +0.000 A 
ATOM     18  C   UNL     1       1.312   9.139  19.355  0.00  0.00    +0.000 A 
ATOM     19  C   UNL     1       0.746  10.393  19.617  0.00  0.00    +0.000 A 
ATOM     20  C   UNL     1       0.355  10.717  20.911  0.00  0.00    +0.000 A 
ATOM     21 CL   UNL     1      -0.345  12.253  21.235  0.00  0.00    +0.000 Cl
ATOM     22  C   UNL     1       0.526   9.801  21.943  0.00  0.00    +0.000 A 
ATOM     23  C   UNL     1       1.092   8.548  21.676  0.00  0.00    +0.000 A 
ENDBRANCH   6  17
TORSDOF 2
ENDMDL
MODEL 9
REMARK VINA RESULT:      -7.4      1.652      7.393
REMARK  Name = 
REMARK  2 active torsions:
REMARK  status: ('A' for Active; 'I' for Inactive)
REMARK    1  A    between atoms: C_4  and  C_5
REMARK    2  A    between atoms: C_13  and  C_14
REMARK                            x       y       z     vdW  Elec       q    Type
REMARK                         _______ _______ _______ _____ _____    ______ ____
ROOT
ATOM      1  N   UNL     1       4.552   2.782  20.084  0.00  0.00    +0.000 N 
ATOM      2  C   UNL     1       4.409   3.806  19.172  0.00  0.00    +0.000 A 
ATOM      3  N   UNL     1       5.026   3.677  18.011  0.00  0.00    +0.000 NA
ATOM      4  C   UNL     1       4.851   4.687  17.157  0.00  0.00    +0.000 A 
ATOM      5  N   UNL     1       4.130   5.776  17.416  0.00  0.00    +0.000 NA
ATOM      6  C   UNL     1       3.564   5.808  18.621  0.00  0.00    +0.000 A 
ATOM      7  N   UNL     1       3.686   4.850  19.539  0.00  0.00    +0.000 NA
ATOM      8  H   UNL     1       5.389   2.248  19.901  0.00  0.00    +0.000 HD
ATOM      9  H   UNL     1       4.408   3.114  21.027  0.00  0.00    +0.000 HD
ENDROOT
BRANCH   4  10
ATOM     10  C   UNL     1       5.497   4.593  15.830  0.00  0.00    +0.000 A 
ATOM     11  C   UNL     1       6.775   5.138  15.591  0.00  0.00    +0.000 A 
ATOM     12  C   UNL     1       7.387   5.045  14.335  0.00  0.00    +0.000 A 
ATOM     13  C   UNL     1       6.730   4.403  13.291  0.00  0.00    +0.000 A 
ATOM     14 CL   UNL     1       7.481   4.289  11.748  0.00  0.00    +0.000 Cl
ATOM     15  C   UNL     1       5.470   3.853  13.491  0.00  0.00    +0.000 A 
ATOM     16  C   UNL     1       4.862   3.948  14.748  0.00  0.00    +0.000 A 
ENDBRANCH   4  10
BRANCH   6  17
ATOM     17  C   UNL     1       2.730   6.985  18.953  0.00  0.00    +0.000 A 
ATOM     18  C   UNL     1       2.507   8.017  18.017  0.00  0.00    +0.000 A 
ATOM     19  C   UNL     1       1.706   9.123  18.322  0.00  0.00    +0.000 A 
ATOM     20  C   UNL     1       1.111   9.220  19.575  0.00  0.00    +0.000 A 
ATOM     21 CL   UNL     1       0.122  10.575  19.951  0.00  0.00    +0.000 Cl
ATOM     22  C   UNL     1       1.311   8.223  20.523  0.00  0.00    +0.000 A 
ATOM     23  C   UNL     1       2.113   7.117  20.213  0.00  0.00    +0.000 A 
ENDBRANCH   6  17
TORSDOF 2
ENDMDL
