MODEL 1
REMARK VINA RESULT:      -8.1      0.000      0.000
REMARK  Name = 
REMARK  7 active torsions:
REMARK  status: ('A' for Active; 'I' for Inactive)
REMARK    1  A    between atoms: C_4  and  O_5
REMARK    2  A    between atoms: O_5  and  C_6
REMARK    3  A    between atoms: C_6  and  C_7
REMARK    4  A    between atoms: C_7  and  O_8
REMARK    5  A    between atoms: C_7  and  C_9
REMARK    6  A    between atoms: C_9  and  N_10
REMARK    7  A    between atoms: N_13  and  C_14
REMARK                            x       y       z     vdW  Elec       q    Type
REMARK                         _______ _______ _______ _____ _____    ______ ____
ROOT
ATOM      1  C   UNL     1       2.525   3.745  18.104  0.00  0.00    +0.000 C 
ENDROOT
BRANCH   1   2
ATOM      2  O   UNL     1       1.519   2.727  18.259  0.00  0.00    +0.000 OA
ATOM      3  H   UNL     1       0.807   3.087  18.818  0.00  0.00    +0.000 HD
ENDBRANCH   1   2
BRANCH   1   4
ATOM      4  C   UNL     1       3.785   3.161  17.439  0.00  0.00    +0.000 C 
BRANCH   4   5
ATOM      5  O   UNL     1       4.028   3.894  16.231  0.00  0.00    +0.000 OA
BRANCH   5   9
ATOM      6  O   UNL     1       7.611   6.676  17.695  0.00  0.00    +0.000 OA
ATOM      7  C   UNL     1       7.084   6.032  16.795  0.00  0.00    +0.000 A 
ATOM      8  C   UNL     1       5.814   5.325  17.034  0.00  0.00    +0.000 A 
ATOM      9  C   UNL     1       5.222   4.569  16.102  0.00  0.00    +0.000 A 
ATOM     10  C   UNL     1       5.870   4.426  14.793  0.00  0.00    +0.000 A 
ATOM     11  C   UNL     1       5.367   3.610  13.771  0.00  0.00    +0.000 A 
ATOM     12  C   UNL     1       6.020   3.531  12.534  0.00  0.00    +0.000 A 
ATOM     13  C   UNL     1       7.184   4.262  12.306  0.00  0.00    +0.000 A 
ATOM     14  C   UNL     1       7.700   5.069  13.313  0.00  0.00    +0.000 A 
ATOM     15  C   UNL     1       7.041   5.137  14.542  0.00  0.00    +0.000 A 
ATOM     16  O   UNL     1       7.632   5.947  15.528  0.00  0.00    +0.000 OA
ENDBRANCH   5   9
ENDBRANCH   4   5
ENDBRANCH   1   4
BRANCH   1  17
ATOM     17  C   UNL     1       2.803   4.337  19.497  0.00  0.00    +0.000 C 
BRANCH  17  18
ATOM     18  N   UNL     1       2.748   5.797  19.611  0.00  0.00    +0.000 NA
ATOM     19  C   UNL     1       1.728   6.180  20.613  0.00  0.00    +0.000 C 
ATOM     20  C   UNL     1       1.813   7.685  20.916  0.00  0.00    +0.000 C 
ATOM     21  N   UNL     1       1.544   8.444  19.683  0.00  0.00    +0.000 N 
ATOM     22  C   UNL     1       2.402   8.053  18.542  0.00  0.00    +0.000 C 
ATOM     23  C   UNL     1       2.420   6.506  18.351  0.00  0.00    +0.000 C 
BRANCH  21  24
ATOM     24  C   UNL     1       0.699   9.538  19.677  0.00  0.00    +0.000 A 
ATOM     25  C   UNL     1       0.566  10.383  20.796  0.00  0.00    +0.000 A 
ATOM     26  C   UNL     1      -0.353  11.439  20.833  0.00  0.00    +0.000 A 
ATOM     27  C   UNL     1      -1.159  11.698  19.732  0.00  0.00    +0.000 A 
ATOM     28 CL   UNL     1      -2.278  13.007  19.836  0.00  0.00    +0.000 Cl
ATOM     29  C   UNL     1      -1.036  10.899  18.594  0.00  0.00    +0.000 A 
ATOM     30 CL   UNL     1      -2.003  11.143  17.184  0.00  0.00    +0.000 Cl
ATOM     31  C   UNL     1      -0.118   9.835  18.581  0.00  0.00    +0.000 A 
ENDBRANCH  21  24
ENDBRANCH  17  18
ENDBRANCH   1  17
TORSDOF 7
ENDMDL
MODEL 2
REMARK VINA RESULT:      -7.8      1.008      1.564
REMARK  Name = 
REMARK  7 active torsions:
REMARK  status: ('A' for Active; 'I' for Inactive)
REMARK    1  A    between atoms: C_4  and  O_5
REMARK    2  A    between atoms: O_5  and  C_6
REMARK    3  A    between atoms: C_6  and  C_7
REMARK    4  A    between atoms: C_7  and  O_8
REMARK    5  A    between atoms: C_7  and  C_9
REMARK    6  A    between atoms: C_9  and  N_10
REMARK    7  A    between atoms: N_13  and  C_14
REMARK                            x       y       z     vdW  Elec       q    Type
REMARK                         _______ _______ _______ _____ _____    ______ ____
ROOT
ATOM      1  C   UNL     1       2.816   4.750  17.777  0.00  0.00    +0.000 C 
ENDROOT
BRANCH   1   2
ATOM      2  O   UNL     1       1.420   4.486  17.542  0.00  0.00    +0.000 OA
ATOM      3  H   UNL     1       1.100   5.120  16.876  0.00  0.00    +0.000 HD
ENDBRANCH   1   2
BRANCH   1   4
ATOM      4  C   UNL     1       3.667   3.524  17.402  0.00  0.00    +0.000 C 
BRANCH   4   5
ATOM      5  O   UNL     1       4.159   3.717  16.069  0.00  0.00    +0.000 OA
BRANCH   5   9
ATOM      6  O   UNL     1       7.811   6.462  17.426  0.00  0.00    +0.000 OA
ATOM      7  C   UNL     1       7.240   5.841  16.538  0.00  0.00    +0.000 A 
ATOM      8  C   UNL     1       5.983   5.128  16.820  0.00  0.00    +0.000 A 
ATOM      9  C   UNL     1       5.345   4.395  15.898  0.00  0.00    +0.000 A 
ATOM     10  C   UNL     1       5.928   4.287  14.556  0.00  0.00    +0.000 A 
ATOM     11  C   UNL     1       5.375   3.497  13.539  0.00  0.00    +0.000 A 
ATOM     12  C   UNL     1       5.967   3.451  12.270  0.00  0.00    +0.000 A 
ATOM     13  C   UNL     1       7.118   4.189  12.004  0.00  0.00    +0.000 A 
ATOM     14  C   UNL     1       7.684   4.970  13.005  0.00  0.00    +0.000 A 
ATOM     15  C   UNL     1       7.086   5.005  14.267  0.00  0.00    +0.000 A 
ATOM     16  O   UNL     1       7.725   5.789  15.244  0.00  0.00    +0.000 OA
ENDBRANCH   5   9
ENDBRANCH   4   5
ENDBRANCH   1   4
BRANCH   1  17
ATOM     17  C   UNL     1       2.967   5.155  19.255  0.00  0.00    +0.000 C 
BRANCH  17  18
ATOM     18  N   UNL     1       2.694   6.558  19.580  0.00  0.00    +0.000 NA
ATOM     19  C   UNL     1       1.597   6.635  20.571  0.00  0.00    +0.000 C 
ATOM     20  C   UNL     1       1.450   8.072  21.097  0.00  0.00    +0.000 C 
ATOM     21  N   UNL     1       1.112   8.966  19.978  0.00  0.00    +0.000 N 
ATOM     22  C   UNL     1       2.054   8.881  18.839  0.00  0.00    +0.000 C 
ATOM     23  C   UNL     1       2.305   7.399  18.423  0.00  0.00    +0.000 C 
BRANCH  21  24
ATOM     24  C   UNL     1       0.115   9.918  20.088  0.00  0.00    +0.000 A 
ATOM     25  C   UNL     1      -0.618  10.361  18.971  0.00  0.00    +0.000 A 
ATOM     26  C   UNL     1      -1.565  11.390  19.057  0.00  0.00    +0.000 A 
ATOM     27  C   UNL     1      -1.825  11.996  20.279  0.00  0.00    +0.000 A 
ATOM     28 CL   UNL     1      -2.997  13.262  20.323  0.00  0.00    +0.000 Cl
ATOM     29  C   UNL     1      -1.137  11.565  21.414  0.00  0.00    +0.000 A 
ATOM     30 CL   UNL     1      -1.390  12.267  22.971  0.00  0.00    +0.000 Cl
ATOM     31  C   UNL     1      -0.180  10.541  21.306  0.00  0.00    +0.000 A 
ENDBRANCH  21  24
ENDBRANCH  17  18
ENDBRANCH   1  17
TORSDOF 7
ENDMDL
MODEL 3
REMARK VINA RESULT:      -7.8      3.106      5.785
REMARK  Name = 
REMARK  7 active torsions:
REMARK  status: ('A' for Active; 'I' for Inactive)
REMARK    1  A    between atoms: C_4  and  O_5
REMARK    2  A    between atoms: O_5  and  C_6
REMARK    3  A    between atoms: C_6  and  C_7
REMARK    4  A    between atoms: C_7  and  O_8
REMARK    5  A    between atoms: C_7  and  C_9
REMARK    6  A    between atoms: C_9  and  N_10
REMARK    7  A    between atoms: N_13  and  C_14
REMARK                            x       y       z     vdW  Elec       q    Type
REMARK                         _______ _______ _______ _____ _____    ______ ____
ROOT
ATOM      1  C   UNL     1       2.273   9.413  18.347  0.00  0.00    +0.000 C 
ENDROOT
BRANCH   1   2
ATOM      2  O   UNL     1       1.829  10.398  17.395  0.00  0.00    +0.000 OA
ATOM      3  H   UNL     1       2.246  11.248  17.621  0.00  0.00    +0.000 HD
ENDBRANCH   1   2
BRANCH   1   4
ATOM      4  C   UNL     1       2.673   8.111  17.631  0.00  0.00    +0.000 C 
BRANCH   4   5
ATOM      5  O   UNL     1       2.914   7.112  18.631  0.00  0.00    +0.000 OA
BRANCH   5   9
ATOM      6  O   UNL     1       5.276   3.920  15.996  0.00  0.00    +0.000 OA
ATOM      7  C   UNL     1       4.442   4.152  16.863  0.00  0.00    +0.000 A 
ATOM      8  C   UNL     1       4.138   5.541  17.249  0.00  0.00    +0.000 A 
ATOM      9  C   UNL     1       3.272   5.847  18.223  0.00  0.00    +0.000 A 
ATOM     10  C   UNL     1       2.608   4.756  18.945  0.00  0.00    +0.000 A 
ATOM     11  C   UNL     1       1.733   4.966  20.020  0.00  0.00    +0.000 A 
ATOM     12  C   UNL     1       1.112   3.883  20.656  0.00  0.00    +0.000 A 
ATOM     13  C   UNL     1       1.361   2.580  20.230  0.00  0.00    +0.000 A 
ATOM     14  C   UNL     1       2.233   2.355  19.171  0.00  0.00    +0.000 A 
ATOM     15  C   UNL     1       2.848   3.443  18.547  0.00  0.00    +0.000 A 
ATOM     16  O   UNL     1       3.742   3.145  17.503  0.00  0.00    +0.000 OA
ENDBRANCH   5   9
ENDBRANCH   4   5
ENDBRANCH   1   4
BRANCH   1  17
ATOM     17  C   UNL     1       1.138   9.211  19.368  0.00  0.00    +0.000 C 
BRANCH  17  18
ATOM     18  N   UNL     1       0.356  10.400  19.722  0.00  0.00    +0.000 NA
ATOM     19  C   UNL     1       0.175  10.457  21.189  0.00  0.00    +0.000 C 
ATOM     20  C   UNL     1      -0.438  11.806  21.601  0.00  0.00    +0.000 C 
ATOM     21  N   UNL     1      -1.762  11.949  20.974  0.00  0.00    +0.000 N 
ATOM     22  C   UNL     1      -1.752  11.764  19.505  0.00  0.00    +0.000 C 
ATOM     23  C   UNL     1      -0.990  10.464  19.104  0.00  0.00    +0.000 C 
BRANCH  21  24
ATOM     24  C   UNL     1      -2.856  12.401  21.689  0.00  0.00    +0.000 A 
ATOM     25  C   UNL     1      -2.900  12.348  23.096  0.00  0.00    +0.000 A 
ATOM     26  C   UNL     1      -4.038  12.718  23.824  0.00  0.00    +0.000 A 
ATOM     27  C   UNL     1      -5.168  13.177  23.162  0.00  0.00    +0.000 A 
ATOM     28 CL   UNL     1      -6.543  13.611  24.111  0.00  0.00    +0.000 Cl
ATOM     29  C   UNL     1      -5.153  13.269  21.769  0.00  0.00    +0.000 A 
ATOM     30 CL   UNL     1      -6.516  13.820  20.864  0.00  0.00    +0.000 Cl
ATOM     31  C   UNL     1      -4.007  12.880  21.054  0.00  0.00    +0.000 A 
ENDBRANCH  21  24
ENDBRANCH  17  18
ENDBRANCH   1  17
TORSDOF 7
ENDMDL
MODEL 4
REMARK VINA RESULT:      -7.7      3.676      5.396
REMARK  Name = 
REMARK  7 active torsions:
REMARK  status: ('A' for Active; 'I' for Inactive)
REMARK    1  A    between atoms: C_4  and  O_5
REMARK    2  A    between atoms: O_5  and  C_6
REMARK    3  A    between atoms: C_6  and  C_7
REMARK    4  A    between atoms: C_7  and  O_8
REMARK    5  A    between atoms: C_7  and  C_9
REMARK    6  A    between atoms: C_9  and  N_10
REMARK    7  A    between atoms: N_13  and  C_14
REMARK                            x       y       z     vdW  Elec       q    Type
REMARK                         _______ _______ _______ _____ _____    ______ ____
ROOT
ATOM      1  C   UNL     1       2.457   9.216  18.319  0.00  0.00    +0.000 C 
ENDROOT
BRANCH   1   2
ATOM      2  O   UNL     1       2.110  10.208  17.335  0.00  0.00    +0.000 OA
ATOM      3  H   UNL     1       2.933  10.540  16.936  0.00  0.00    +0.000 HD
ENDBRANCH   1   2
BRANCH   1   4
ATOM      4  C   UNL     1       2.940   7.924  17.635  0.00  0.00    +0.000 C 
BRANCH   4   5
ATOM      5  O   UNL     1       2.493   6.812  18.423  0.00  0.00    +0.000 OA
BRANCH   5   9
ATOM      6  O   UNL     1       6.780   5.160  19.690  0.00  0.00    +0.000 OA
ATOM      7  C   UNL     1       5.613   4.930  19.394  0.00  0.00    +0.000 A 
ATOM      8  C   UNL     1       4.701   6.036  19.055  0.00  0.00    +0.000 A 
ATOM      9  C   UNL     1       3.407   5.844  18.771  0.00  0.00    +0.000 A 
ATOM     10  C   UNL     1       2.871   4.478  18.814  0.00  0.00    +0.000 A 
ATOM     11  C   UNL     1       1.520   4.176  18.595  0.00  0.00    +0.000 A 
ATOM     12  C   UNL     1       1.071   2.849  18.628  0.00  0.00    +0.000 A 
ATOM     13  C   UNL     1       1.965   1.811  18.884  0.00  0.00    +0.000 A 
ATOM     14  C   UNL     1       3.306   2.096  19.111  0.00  0.00    +0.000 A 
ATOM     15  C   UNL     1       3.740   3.423  19.079  0.00  0.00    +0.000 A 
ATOM     16  O   UNL     1       5.102   3.646  19.347  0.00  0.00    +0.000 OA
ENDBRANCH   5   9
ENDBRANCH   4   5
ENDBRANCH   1   4
BRANCH   1  17
ATOM     17  C   UNL     1       1.221   8.995  19.210  0.00  0.00    +0.000 C 
BRANCH  17  18
ATOM     18  N   UNL     1       0.531  10.199  19.681  0.00  0.00    +0.000 NA
ATOM     19  C   UNL     1       0.285  10.094  21.137  0.00  0.00    +0.000 C 
ATOM     20  C   UNL     1      -0.226  11.434  21.692  0.00  0.00    +0.000 C 
ATOM     21  N   UNL     1      -1.502  11.774  21.040  0.00  0.00    +0.000 N 
ATOM     22  C   UNL     1      -1.438  11.769  19.561  0.00  0.00    +0.000 C 
ATOM     23  C   UNL     1      -0.774  10.462  19.029  0.00  0.00    +0.000 C 
BRANCH  21  24
ATOM     24  C   UNL     1      -2.585  12.235  21.766  0.00  0.00    +0.000 A 
ATOM     25  C   UNL     1      -2.644  12.120  23.169  0.00  0.00    +0.000 A 
ATOM     26  C   UNL     1      -3.774  12.500  23.904  0.00  0.00    +0.000 A 
ATOM     27  C   UNL     1      -4.880  13.032  23.254  0.00  0.00    +0.000 A 
ATOM     28 CL   UNL     1      -6.246  13.476  24.210  0.00  0.00    +0.000 Cl
ATOM     29  C   UNL     1      -4.847  13.187  21.867  0.00  0.00    +0.000 A 
ATOM     30 CL   UNL     1      -6.179  13.831  20.977  0.00  0.00    +0.000 Cl
ATOM     31  C   UNL     1      -3.710  12.787  21.145  0.00  0.00    +0.000 A 
ENDBRANCH  21  24
ENDBRANCH  17  18
ENDBRANCH   1  17
TORSDOF 7
ENDMDL
MODEL 5
REMARK VINA RESULT:      -7.6      3.174      5.668
REMARK  Name = 
REMARK  7 active torsions:
REMARK  status: ('A' for Active; 'I' for Inactive)
REMARK    1  A    between atoms: C_4  and  O_5
REMARK    2  A    between atoms: O_5  and  C_6
REMARK    3  A    between atoms: C_6  and  C_7
REMARK    4  A    between atoms: C_7  and  O_8
REMARK    5  A    between atoms: C_7  and  C_9
REMARK    6  A    between atoms: C_9  and  N_10
REMARK    7  A    between atoms: N_13  and  C_14
REMARK                            x       y       z     vdW  Elec       q    Type
REMARK                         _______ _______ _______ _____ _____    ______ ____
ROOT
ATOM      1  C   UNL     1       1.342   9.062  18.836  0.00  0.00    +0.000 C 
ENDROOT
BRANCH   1   2
ATOM      2  O   UNL     1       1.336   8.753  20.242  0.00  0.00    +0.000 OA
ATOM      3  H   UNL     1       2.194   8.351  20.468  0.00  0.00    +0.000 HD
ENDBRANCH   1   2
BRANCH   1   4
ATOM      4  C   UNL     1       2.468   8.295  18.120  0.00  0.00    +0.000 C 
BRANCH   4   5
ATOM      5  O   UNL     1       2.707   7.081  18.845  0.00  0.00    +0.000 OA
BRANCH   5   9
ATOM      6  O   UNL     1       5.686   4.898  15.833  0.00  0.00    +0.000 OA
ATOM      7  C   UNL     1       4.728   4.829  16.594  0.00  0.00    +0.000 A 
ATOM      8  C   UNL     1       4.245   6.033  17.291  0.00  0.00    +0.000 A 
ATOM      9  C   UNL     1       3.234   6.004  18.168  0.00  0.00    +0.000 A 
ATOM     10  C   UNL     1       2.589   4.718  18.458  0.00  0.00    +0.000 A 
ATOM     11  C   UNL     1       1.566   4.568  19.404  0.00  0.00    +0.000 A 
ATOM     12  C   UNL     1       0.974   3.317  19.622  0.00  0.00    +0.000 A 
ATOM     13  C   UNL     1       1.400   2.203  18.901  0.00  0.00    +0.000 A 
ATOM     14  C   UNL     1       2.419   2.335  17.966  0.00  0.00    +0.000 A 
ATOM     15  C   UNL     1       3.003   3.587  17.760  0.00  0.00    +0.000 A 
ATOM     16  O   UNL     1       4.050   3.646  16.823  0.00  0.00    +0.000 OA
ENDBRANCH   5   9
ENDBRANCH   4   5
ENDBRANCH   1   4
BRANCH   1  17
ATOM     17  C   UNL     1       1.478  10.589  18.699  0.00  0.00    +0.000 C 
BRANCH  17  18
ATOM     18  N   UNL     1       0.229  11.354  18.633  0.00  0.00    +0.000 NA
ATOM     19  C   UNL     1      -0.035  11.991  19.942  0.00  0.00    +0.000 C 
ATOM     20  C   UNL     1      -1.208  12.979  19.830  0.00  0.00    +0.000 C 
ATOM     21  N   UNL     1      -2.422  12.248  19.430  0.00  0.00    +0.000 N 
ATOM     22  C   UNL     1      -2.254  11.438  18.202  0.00  0.00    +0.000 C 
ATOM     23  C   UNL     1      -0.969  10.556  18.278  0.00  0.00    +0.000 C 
BRANCH  21  24
ATOM     24  C   UNL     1      -3.637  12.467  20.052  0.00  0.00    +0.000 A 
ATOM     25  C   UNL     1      -3.725  12.804  21.417  0.00  0.00    +0.000 A 
ATOM     26  C   UNL     1      -4.953  12.938  22.077  0.00  0.00    +0.000 A 
ATOM     27  C   UNL     1      -6.141  12.761  21.379  0.00  0.00    +0.000 A 
ATOM     28 CL   UNL     1      -7.623  12.933  22.246  0.00  0.00    +0.000 Cl
ATOM     29  C   UNL     1      -6.093  12.454  20.019  0.00  0.00    +0.000 A 
ATOM     30 CL   UNL     1      -7.519  12.209  19.077  0.00  0.00    +0.000 Cl
ATOM     31  C   UNL     1      -4.852  12.309  19.376  0.00  0.00    +0.000 A 
ENDBRANCH  21  24
ENDBRANCH  17  18
ENDBRANCH   1  17
TORSDOF 7
ENDMDL
MODEL 6
REMARK VINA RESULT:      -7.6      3.268      5.689
REMARK  Name = 
REMARK  7 active torsions:
REMARK  status: ('A' for Active; 'I' for Inactive)
REMARK    1  A    between atoms: C_4  and  O_5
REMARK    2  A    between atoms: O_5  and  C_6
REMARK    3  A    between atoms: C_6  and  C_7
REMARK    4  A    between atoms: C_7  and  O_8
REMARK    5  A    between atoms: C_7  and  C_9
REMARK    6  A    between atoms: C_9  and  N_10
REMARK    7  A    between atoms: N_13  and  C_14
REMARK                            x       y       z     vdW  Elec       q    Type
REMARK                         _______ _______ _______ _____ _____    ______ ____
ROOT
ATOM      1  C   UNL     1       1.195   9.369  18.702  0.00  0.00    +0.000 C 
ENDROOT
BRANCH   1   2
ATOM      2  O   UNL     1       1.317   8.910  20.061  0.00  0.00    +0.000 OA
ATOM      3  H   UNL     1       0.421   8.785  20.420  0.00  0.00    +0.000 HD
ENDBRANCH   1   2
BRANCH   1   4
ATOM      4  C   UNL     1       2.214   8.652  17.797  0.00  0.00    +0.000 C 
BRANCH   4   5
ATOM      5  O   UNL     1       2.723   7.520  18.515  0.00  0.00    +0.000 OA
BRANCH   5   9
ATOM      6  O   UNL     1       6.281   6.020  15.722  0.00  0.00    +0.000 OA
ATOM      7  C   UNL     1       5.267   5.760  16.358  0.00  0.00    +0.000 A 
ATOM      8  C   UNL     1       4.549   6.824  17.080  0.00  0.00    +0.000 A 
ATOM      9  C   UNL     1       3.465   6.585  17.828  0.00  0.00    +0.000 A 
ATOM     10  C   UNL     1       2.978   5.206  17.945  0.00  0.00    +0.000 A 
ATOM     11  C   UNL     1       1.891   4.840  18.750  0.00  0.00    +0.000 A 
ATOM     12  C   UNL     1       1.460   3.508  18.804  0.00  0.00    +0.000 A 
ATOM     13  C   UNL     1       2.111   2.528  18.058  0.00  0.00    +0.000 A 
ATOM     14  C   UNL     1       3.196   2.874  17.262  0.00  0.00    +0.000 A 
ATOM     15  C   UNL     1       3.618   4.204  17.219  0.00  0.00    +0.000 A 
ATOM     16  O   UNL     1       4.740   4.482  16.418  0.00  0.00    +0.000 OA
ENDBRANCH   5   9
ENDBRANCH   4   5
ENDBRANCH   1   4
BRANCH   1  17
ATOM     17  C   UNL     1       1.376  10.898  18.711  0.00  0.00    +0.000 C 
BRANCH  17  18
ATOM     18  N   UNL     1       0.166  11.698  18.922  0.00  0.00    +0.000 NA
ATOM     19  C   UNL     1       0.100  12.140  20.332  0.00  0.00    +0.000 C 
ATOM     20  C   UNL     1      -1.030  13.166  20.520  0.00  0.00    +0.000 C 
ATOM     21  N   UNL     1      -2.318  12.537  20.182  0.00  0.00    +0.000 N 
ATOM     22  C   UNL     1      -2.344  11.914  18.839  0.00  0.00    +0.000 C 
ATOM     23  C   UNL     1      -1.104  10.996  18.617  0.00  0.00    +0.000 C 
BRANCH  21  24
ATOM     24  C   UNL     1      -3.433  12.695  20.984  0.00  0.00    +0.000 A 
ATOM     25  C   UNL     1      -4.685  13.065  20.454  0.00  0.00    +0.000 A 
ATOM     26  C   UNL     1      -5.797  13.317  21.267  0.00  0.00    +0.000 A 
ATOM     27  C   UNL     1      -5.696  13.182  22.645  0.00  0.00    +0.000 A 
ATOM     28 CL   UNL     1      -7.097  13.512  23.597  0.00  0.00    +0.000 Cl
ATOM     29  C   UNL     1      -4.478  12.791  23.205  0.00  0.00    +0.000 A 
ATOM     30 CL   UNL     1      -4.260  12.609  24.908  0.00  0.00    +0.000 Cl
ATOM     31  C   UNL     1      -3.369  12.556  22.374  0.00  0.00    +0.000 A 
ENDBRANCH  21  24
ENDBRANCH  17  18
ENDBRANCH   1  17
TORSDOF 7
ENDMDL
MODEL 7
REMARK VINA RESULT:      -7.6      2.215      2.865
REMARK  Name = 
REMARK  7 active torsions:
REMARK  status: ('A' for Active; 'I' for Inactive)
REMARK    1  A    between atoms: C_4  and  O_5
REMARK    2  A    between atoms: O_5  and  C_6
REMARK    3  A    between atoms: C_6  and  C_7
REMARK    4  A    between atoms: C_7  and  O_8
REMARK    5  A    between atoms: C_7  and  C_9
REMARK    6  A    between atoms: C_9  and  N_10
REMARK    7  A    between atoms: N_13  and  C_14
REMARK                            x       y       z     vdW  Elec       q    Type
REMARK                         _______ _______ _______ _____ _____    ______ ____
ROOT
ATOM      1  C   UNL     1       2.263   5.150  19.930  0.00  0.00    +0.000 C 
ENDROOT
BRANCH   1   2
ATOM      2  O   UNL     1       2.305   5.148  21.369  0.00  0.00    +0.000 OA
ATOM      3  H   UNL     1       1.476   5.540  21.697  0.00  0.00    +0.000 HD
ENDBRANCH   1   2
BRANCH   1   4
ATOM      4  C   UNL     1       3.070   3.967  19.365  0.00  0.00    +0.000 C 
BRANCH   4   5
ATOM      5  O   UNL     1       3.653   4.383  18.123  0.00  0.00    +0.000 OA
BRANCH   5   9
ATOM      6  O   UNL     1       7.902   5.455  19.997  0.00  0.00    +0.000 OA
ATOM      7  C   UNL     1       7.218   5.243  19.003  0.00  0.00    +0.000 A 
ATOM      8  C   UNL     1       5.783   4.940  19.138  0.00  0.00    +0.000 A 
ATOM      9  C   UNL     1       5.003   4.654  18.089  0.00  0.00    +0.000 A 
ATOM     10  C   UNL     1       5.603   4.627  16.750  0.00  0.00    +0.000 A 
ATOM     11  C   UNL     1       4.889   4.278  15.595  0.00  0.00    +0.000 A 
ATOM     12  C   UNL     1       5.513   4.290  14.341  0.00  0.00    +0.000 A 
ATOM     13  C   UNL     1       6.855   4.647  14.227  0.00  0.00    +0.000 A 
ATOM     14  C   UNL     1       7.578   4.986  15.364  0.00  0.00    +0.000 A 
ATOM     15  C   UNL     1       6.946   4.967  16.609  0.00  0.00    +0.000 A 
ATOM     16  O   UNL     1       7.741   5.290  17.723  0.00  0.00    +0.000 OA
ENDBRANCH   5   9
ENDBRANCH   4   5
ENDBRANCH   1   4
BRANCH   1  17
ATOM     17  C   UNL     1       2.789   6.516  19.453  0.00  0.00    +0.000 C 
BRANCH  17  18
ATOM     18  N   UNL     1       1.799   7.590  19.324  0.00  0.00    +0.000 NA
ATOM     19  C   UNL     1       2.226   8.536  18.269  0.00  0.00    +0.000 C 
ATOM     20  C   UNL     1       1.099   9.535  17.959  0.00  0.00    +0.000 C 
ATOM     21  N   UNL     1       0.794  10.314  19.171  0.00  0.00    +0.000 N 
ATOM     22  C   UNL     1       0.492   9.482  20.357  0.00  0.00    +0.000 C 
ATOM     23  C   UNL     1       1.572   8.376  20.561  0.00  0.00    +0.000 C 
BRANCH  21  24
ATOM     24  C   UNL     1       0.626  11.686  19.126  0.00  0.00    +0.000 A 
ATOM     25  C   UNL     1      -0.605  12.297  19.433  0.00  0.00    +0.000 A 
ATOM     26  C   UNL     1      -0.810  13.676  19.302  0.00  0.00    +0.000 A 
ATOM     27  C   UNL     1       0.227  14.496  18.878  0.00  0.00    +0.000 A 
ATOM     28 CL   UNL     1      -0.086  16.187  18.729  0.00  0.00    +0.000 Cl
ATOM     29  C   UNL     1       1.470  13.931  18.591  0.00  0.00    +0.000 A 
ATOM     30 CL   UNL     1       2.811  14.874  18.050  0.00  0.00    +0.000 Cl
ATOM     31  C   UNL     1       1.653  12.543  18.714  0.00  0.00    +0.000 A 
ENDBRANCH  21  24
ENDBRANCH  17  18
ENDBRANCH   1  17
TORSDOF 7
ENDMDL
MODEL 8
REMARK VINA RESULT:      -7.6      1.175      2.621
REMARK  Name = 
REMARK  7 active torsions:
REMARK  status: ('A' for Active; 'I' for Inactive)
REMARK    1  A    between atoms: C_4  and  O_5
REMARK    2  A    between atoms: O_5  and  C_6
REMARK    3  A    between atoms: C_6  and  C_7
REMARK    4  A    between atoms: C_7  and  O_8
REMARK    5  A    between atoms: C_7  and  C_9
REMARK    6  A    between atoms: C_9  and  N_10
REMARK    7  A    between atoms: N_13  and  C_14
REMARK                            x       y       z     vdW  Elec       q    Type
REMARK                         _______ _______ _______ _____ _____    ______ ____
ROOT
ATOM      1  C   UNL     1       2.052   3.748  18.028  0.00  0.00    +0.000 C 
ENDROOT
BRANCH   1   2
ATOM      2  O   UNL     1       0.714   3.243  18.196  0.00  0.00    +0.000 OA
ATOM      3  H   UNL     1       0.401   2.921  17.332  0.00  0.00    +0.000 HD
ENDBRANCH   1   2
BRANCH   1   4
ATOM      4  C   UNL     1       2.977   2.649  17.474  0.00  0.00    +0.000 C 
BRANCH   4   5
ATOM      5  O   UNL     1       4.329   3.007  17.794  0.00  0.00    +0.000 OA
BRANCH   5   9
ATOM      6  O   UNL     1       5.594   4.600  13.484  0.00  0.00    +0.000 OA
ATOM      7  C   UNL     1       5.744   4.634  14.699  0.00  0.00    +0.000 A 
ATOM      8  C   UNL     1       4.936   3.765  15.572  0.00  0.00    +0.000 A 
ATOM      9  C   UNL     1       5.026   3.797  16.907  0.00  0.00    +0.000 A 
ATOM     10  C   UNL     1       5.957   4.746  17.528  0.00  0.00    +0.000 A 
ATOM     11  C   UNL     1       6.082   4.904  18.916  0.00  0.00    +0.000 A 
ATOM     12  C   UNL     1       7.005   5.812  19.450  0.00  0.00    +0.000 A 
ATOM     13  C   UNL     1       7.808   6.576  18.606  0.00  0.00    +0.000 A 
ATOM     14  C   UNL     1       7.689   6.438  17.228  0.00  0.00    +0.000 A 
ATOM     15  C   UNL     1       6.764   5.530  16.708  0.00  0.00    +0.000 A 
ATOM     16  O   UNL     1       6.671   5.461  15.307  0.00  0.00    +0.000 OA
ENDBRANCH   5   9
ENDBRANCH   4   5
ENDBRANCH   1   4
BRANCH   1  17
ATOM     17  C   UNL     1       2.517   4.290  19.392  0.00  0.00    +0.000 C 
BRANCH  17  18
ATOM     18  N   UNL     1       2.563   5.749  19.535  0.00  0.00    +0.000 NA
ATOM     19  C   UNL     1       1.582   6.180  20.557  0.00  0.00    +0.000 C 
ATOM     20  C   UNL     1       1.774   7.669  20.887  0.00  0.00    +0.000 C 
ATOM     21  N   UNL     1       1.545   8.469  19.673  0.00  0.00    +0.000 N 
ATOM     22  C   UNL     1       2.362   8.045  18.514  0.00  0.00    +0.000 C 
ATOM     23  C   UNL     1       2.271   6.504  18.293  0.00  0.00    +0.000 C 
BRANCH  21  24
ATOM     24  C   UNL     1       0.777   9.619  19.699  0.00  0.00    +0.000 A 
ATOM     25  C   UNL     1       0.781  10.493  20.803  0.00  0.00    +0.000 A 
ATOM     26  C   UNL     1      -0.061  11.610  20.877  0.00  0.00    +0.000 A 
ATOM     27  C   UNL     1      -0.923  11.902  19.828  0.00  0.00    +0.000 A 
ATOM     28 CL   UNL     1      -1.941  13.287  19.977  0.00  0.00    +0.000 Cl
ATOM     29  C   UNL     1      -0.935  11.074  18.705  0.00  0.00    +0.000 A 
ATOM     30 CL   UNL     1      -1.980  11.356  17.360  0.00  0.00    +0.000 Cl
ATOM     31  C   UNL     1      -0.094   9.949  18.654  0.00  0.00    +0.000 A 
ENDBRANCH  21  24
ENDBRANCH  17  18
ENDBRANCH   1  17
TORSDOF 7
ENDMDL
MODEL 9
REMARK VINA RESULT:      -7.6      1.471      1.589
REMARK  Name = 
REMARK  7 active torsions:
REMARK  status: ('A' for Active; 'I' for Inactive)
REMARK    1  A    between atoms: C_4  and  O_5
REMARK    2  A    between atoms: O_5  and  C_6
REMARK    3  A    between atoms: C_6  and  C_7
REMARK    4  A    between atoms: C_7  and  O_8
REMARK    5  A    between atoms: C_7  and  C_9
REMARK    6  A    between atoms: C_9  and  N_10
REMARK    7  A    between atoms: N_13  and  C_14
REMARK                            x       y       z     vdW  Elec       q    Type
REMARK                         _______ _______ _______ _____ _____    ______ ____
ROOT
ATOM      1  C   UNL     1       3.177   2.951  19.732  0.00  0.00    +0.000 C 
ENDROOT
BRANCH   1   2
ATOM      2  O   UNL     1       2.952   2.835  21.150  0.00  0.00    +0.000 OA
ATOM      3  H   UNL     1       1.991   2.818  21.304  0.00  0.00    +0.000 HD
ENDBRANCH   1   2
BRANCH   1   4
ATOM      4  C   UNL     1       4.619   3.409  19.451  0.00  0.00    +0.000 C 
BRANCH   4   5
ATOM      5  O   UNL     1       4.730   3.684  18.047  0.00  0.00    +0.000 OA
BRANCH   5   9
ATOM      6  O   UNL     1       8.052   7.061  18.567  0.00  0.00    +0.000 OA
ATOM      7  C   UNL     1       7.429   6.309  17.828  0.00  0.00    +0.000 A 
ATOM      8  C   UNL     1       6.397   5.413  18.378  0.00  0.00    +0.000 A 
ATOM      9  C   UNL     1       5.722   4.538  17.622  0.00  0.00    +0.000 A 
ATOM     10  C   UNL     1       6.031   4.458  16.190  0.00  0.00    +0.000 A 
ATOM     11  C   UNL     1       5.428   3.535  15.324  0.00  0.00    +0.000 A 
ATOM     12  C   UNL     1       5.750   3.521  13.960  0.00  0.00    +0.000 A 
ATOM     13  C   UNL     1       6.679   4.424  13.448  0.00  0.00    +0.000 A 
ATOM     14  C   UNL     1       7.292   5.338  14.296  0.00  0.00    +0.000 A 
ATOM     15  C   UNL     1       6.965   5.341  15.653  0.00  0.00    +0.000 A 
ATOM     16  O   UNL     1       7.644   6.270  16.462  0.00  0.00    +0.000 OA
ENDBRANCH   5   9
ENDBRANCH   4   5
ENDBRANCH   1   4
BRANCH   1  17
ATOM     17  C   UNL     1       2.121   3.923  19.175  0.00  0.00    +0.000 C 
BRANCH  17  18
ATOM     18  N   UNL     1       2.361   5.352  19.402  0.00  0.00    +0.000 NA
ATOM     19  C   UNL     1       1.374   5.873  20.374  0.00  0.00    +0.000 C 
ATOM     20  C   UNL     1       1.747   7.302  20.801  0.00  0.00    +0.000 C 
ATOM     21  N   UNL     1       1.729   8.182  19.621  0.00  0.00    +0.000 N 
ATOM     22  C   UNL     1       2.567   7.696  18.500  0.00  0.00    +0.000 C 
ATOM     23  C   UNL     1       2.277   6.196  18.187  0.00  0.00    +0.000 C 
BRANCH  21  24
ATOM     24  C   UNL     1       1.132   9.428  19.656  0.00  0.00    +0.000 A 
ATOM     25  C   UNL     1      -0.080   9.654  20.338  0.00  0.00    +0.000 A 
ATOM     26  C   UNL     1      -0.739  10.890  20.303  0.00  0.00    +0.000 A 
ATOM     27  C   UNL     1      -0.190  11.952  19.598  0.00  0.00    +0.000 A 
ATOM     28 CL   UNL     1      -1.050  13.448  19.585  0.00  0.00    +0.000 Cl
ATOM     29  C   UNL     1       1.024  11.774  18.932  0.00  0.00    +0.000 A 
ATOM     30 CL   UNL     1       1.774  13.036  18.023  0.00  0.00    +0.000 Cl
ATOM     31  C   UNL     1       1.664  10.523  18.966  0.00  0.00    +0.000 A 
ENDBRANCH  21  24
ENDBRANCH  17  18
ENDBRANCH   1  17
TORSDOF 7
ENDMDL
