MODEL 1
REMARK VINA RESULT:      -7.9      0.000      0.000
REMARK  Name = 
REMARK  4 active torsions:
REMARK  status: ('A' for Active; 'I' for Inactive)
REMARK    1  A    between atoms: C_1  and  C_2
REMARK    2  A    between atoms: C_2  and  N_3
REMARK    3  A    between atoms: C_4  and  C_5
REMARK    4  A    between atoms: C_5  and  N_6
REMARK                            x       y       z     vdW  Elec       q    Type
REMARK                         _______ _______ _______ _____ _____    ______ ____
ROOT
ATOM      1  N   UNL     1       3.057   5.488  18.547  0.00  0.00    +0.000 N 
ATOM      2  C   UNL     1       4.396   5.164  18.429  0.00  0.00    +0.000 A 
ATOM      3  N   UNL     1       4.690   4.140  19.214  0.00  0.00    +0.000 NA
ATOM      4  C   UNL     1       3.527   3.781  19.836  0.00  0.00    +0.000 A 
ATOM      5  C   UNL     1       3.297   2.767  20.773  0.00  0.00    +0.000 A 
ATOM      6  C   UNL     1       2.005   2.618  21.274  0.00  0.00    +0.000 A 
ATOM      7  F   UNL     1       1.764   1.661  22.180  0.00  0.00    +0.000 F 
ATOM      8  C   UNL     1       0.959   3.439  20.863  0.00  0.00    +0.000 A 
ATOM      9  C   UNL     1       1.171   4.456  19.928  0.00  0.00    +0.000 A 
ATOM     10  C   UNL     1       2.477   4.604  19.436  0.00  0.00    +0.000 A 
ENDROOT
BRANCH   1  12
ATOM     11  C   UNL     1       2.294   7.830  18.842  0.00  0.00    +0.000 C 
ATOM     12  C   UNL     1       2.354   6.606  17.946  0.00  0.00    +0.000 C 
ENDBRANCH   1  12
BRANCH   2  13
ATOM     13  C   UNL     1       5.399   5.916  17.613  0.00  0.00    +0.000 C 
BRANCH  13  14
ATOM     14  N   UNL     1       5.802   5.213  16.417  0.00  0.00    +0.000 N 
ATOM     15  N   UNL     1       4.961   4.421  15.645  0.00  0.00    +0.000 NA
ATOM     16  C   UNL     1       5.619   4.259  14.538  0.00  0.00    +0.000 A 
ATOM     17  C   UNL     1       5.217   3.469  13.354  0.00  0.00    +0.000 A 
ATOM     18  C   UNL     1       6.011   3.515  12.271  0.00  0.00    +0.000 A 
ATOM     19  C   UNL     1       7.222   4.317  12.256  0.00  0.00    +0.000 A 
ATOM     20  C   UNL     1       7.596   4.983  13.358  0.00  0.00    +0.000 A 
ATOM     21  N   UNL     1       6.802   4.919  14.472  0.00  0.00    +0.000 N 
ATOM     22  C   UNL     1       6.941   5.574  15.671  0.00  0.00    +0.000 A 
ATOM     23  O   UNL     1       7.819   6.359  15.999  0.00  0.00    +0.000 OA
ENDBRANCH  13  14
ENDBRANCH   2  13
TORSDOF 3
ENDMDL
MODEL 2
REMARK VINA RESULT:      -7.8      1.470      1.907
REMARK  Name = 
REMARK  4 active torsions:
REMARK  status: ('A' for Active; 'I' for Inactive)
REMARK    1  A    between atoms: C_1  and  C_2
REMARK    2  A    between atoms: C_2  and  N_3
REMARK    3  A    between atoms: C_4  and  C_5
REMARK    4  A    between atoms: C_5  and  N_6
REMARK                            x       y       z     vdW  Elec       q    Type
REMARK                         _______ _______ _______ _____ _____    ______ ____
ROOT
ATOM      1  N   UNL     1       4.473   5.477  18.741  0.00  0.00    +0.000 N 
ATOM      2  C   UNL     1       5.454   4.509  18.635  0.00  0.00    +0.000 A 
ATOM      3  N   UNL     1       5.105   3.426  19.310  0.00  0.00    +0.000 NA
ATOM      4  C   UNL     1       3.874   3.685  19.847  0.00  0.00    +0.000 A 
ATOM      5  C   UNL     1       3.069   2.873  20.656  0.00  0.00    +0.000 A 
ATOM      6  C   UNL     1       1.849   3.386  21.091  0.00  0.00    +0.000 A 
ATOM      7  F   UNL     1       1.067   2.632  21.875  0.00  0.00    +0.000 F 
ATOM      8  C   UNL     1       1.421   4.662  20.738  0.00  0.00    +0.000 A 
ATOM      9  C   UNL     1       2.212   5.485  19.931  0.00  0.00    +0.000 A 
ATOM     10  C   UNL     1       3.443   4.964  19.505  0.00  0.00    +0.000 A 
ENDROOT
BRANCH   1  12
ATOM     11  C   UNL     1       3.952   6.985  16.841  0.00  0.00    +0.000 C 
ATOM     12  C   UNL     1       4.508   6.841  18.245  0.00  0.00    +0.000 C 
ENDBRANCH   1  12
BRANCH   2  13
ATOM     13  C   UNL     1       6.770   4.683  17.945  0.00  0.00    +0.000 C 
BRANCH  13  14
ATOM     14  N   UNL     1       6.650   4.781  16.508  0.00  0.00    +0.000 N 
ATOM     15  N   UNL     1       7.569   5.417  15.682  0.00  0.00    +0.000 NA
ATOM     16  C   UNL     1       7.255   4.998  14.493  0.00  0.00    +0.000 A 
ATOM     17  C   UNL     1       7.882   5.375  13.208  0.00  0.00    +0.000 A 
ATOM     18  C   UNL     1       7.460   4.745  12.097  0.00  0.00    +0.000 A 
ATOM     19  C   UNL     1       6.428   3.725  12.153  0.00  0.00    +0.000 A 
ATOM     20  C   UNL     1       5.835   3.437  13.321  0.00  0.00    +0.000 A 
ATOM     21  N   UNL     1       6.245   4.094  14.451  0.00  0.00    +0.000 N 
ATOM     22  C   UNL     1       5.845   3.908  15.752  0.00  0.00    +0.000 A 
ATOM     23  O   UNL     1       5.022   3.109  16.176  0.00  0.00    +0.000 OA
ENDBRANCH  13  14
ENDBRANCH   2  13
TORSDOF 3
ENDMDL
MODEL 3
REMARK VINA RESULT:      -7.1      2.455      3.821
REMARK  Name = 
REMARK  4 active torsions:
REMARK  status: ('A' for Active; 'I' for Inactive)
REMARK    1  A    between atoms: C_1  and  C_2
REMARK    2  A    between atoms: C_2  and  N_3
REMARK    3  A    between atoms: C_4  and  C_5
REMARK    4  A    between atoms: C_5  and  N_6
REMARK                            x       y       z     vdW  Elec       q    Type
REMARK                         _______ _______ _______ _____ _____    ______ ____
ROOT
ATOM      1  N   UNL     1       2.586   5.484  20.104  0.00  0.00    +0.000 N 
ATOM      2  C   UNL     1       3.361   5.163  19.006  0.00  0.00    +0.000 A 
ATOM      3  N   UNL     1       3.387   6.173  18.152  0.00  0.00    +0.000 NA
ATOM      4  C   UNL     1       2.635   7.171  18.710  0.00  0.00    +0.000 A 
ATOM      5  C   UNL     1       2.336   8.443  18.208  0.00  0.00    +0.000 A 
ATOM      6  C   UNL     1       1.522   9.275  18.975  0.00  0.00    +0.000 A 
ATOM      7  F   UNL     1       1.213  10.493  18.511  0.00  0.00    +0.000 F 
ATOM      8  C   UNL     1       1.018   8.875  20.209  0.00  0.00    +0.000 A 
ATOM      9  C   UNL     1       1.308   7.608  20.724  0.00  0.00    +0.000 A 
ATOM     10  C   UNL     1       2.120   6.774  19.941  0.00  0.00    +0.000 A 
ENDROOT
BRANCH   1  12
ATOM     11  C   UNL     1       1.124   3.626  20.860  0.00  0.00    +0.000 C 
ATOM     12  C   UNL     1       2.211   4.625  21.213  0.00  0.00    +0.000 C 
ENDBRANCH   1  12
BRANCH   2  13
ATOM     13  C   UNL     1       4.000   3.834  18.757  0.00  0.00    +0.000 C 
BRANCH  13  14
ATOM     14  N   UNL     1       4.825   3.811  17.571  0.00  0.00    +0.000 N 
ATOM     15  N   UNL     1       4.343   3.648  16.278  0.00  0.00    +0.000 NA
ATOM     16  C   UNL     1       5.342   4.006  15.529  0.00  0.00    +0.000 A 
ATOM     17  C   UNL     1       5.410   4.004  14.052  0.00  0.00    +0.000 A 
ATOM     18  C   UNL     1       6.516   4.507  13.476  0.00  0.00    +0.000 A 
ATOM     19  C   UNL     1       7.606   5.042  14.272  0.00  0.00    +0.000 A 
ATOM     20  C   UNL     1       7.546   4.985  15.611  0.00  0.00    +0.000 A 
ATOM     21  N   UNL     1       6.433   4.450  16.201  0.00  0.00    +0.000 N 
ATOM     22  C   UNL     1       6.120   4.363  17.537  0.00  0.00    +0.000 A 
ATOM     23  O   UNL     1       6.785   4.746  18.488  0.00  0.00    +0.000 OA
ENDBRANCH  13  14
ENDBRANCH   2  13
TORSDOF 3
ENDMDL
MODEL 4
REMARK VINA RESULT:      -7.1      4.763      7.935
REMARK  Name = 
REMARK  4 active torsions:
REMARK  status: ('A' for Active; 'I' for Inactive)
REMARK    1  A    between atoms: C_1  and  C_2
REMARK    2  A    between atoms: C_2  and  N_3
REMARK    3  A    between atoms: C_4  and  C_5
REMARK    4  A    between atoms: C_5  and  N_6
REMARK                            x       y       z     vdW  Elec       q    Type
REMARK                         _______ _______ _______ _____ _____    ______ ____
ROOT
ATOM      1  N   UNL     1       1.692   7.962  20.022  0.00  0.00    +0.000 N 
ATOM      2  C   UNL     1       1.929   8.650  18.847  0.00  0.00    +0.000 A 
ATOM      3  N   UNL     1       2.425   7.834  17.931  0.00  0.00    +0.000 NA
ATOM      4  C   UNL     1       2.496   6.597  18.510  0.00  0.00    +0.000 A 
ATOM      5  C   UNL     1       2.959   5.390  17.974  0.00  0.00    +0.000 A 
ATOM      6  C   UNL     1       2.941   4.261  18.790  0.00  0.00    +0.000 A 
ATOM      7  F   UNL     1       3.390   3.097  18.302  0.00  0.00    +0.000 F 
ATOM      8  C   UNL     1       2.474   4.308  20.100  0.00  0.00    +0.000 A 
ATOM      9  C   UNL     1       2.007   5.506  20.651  0.00  0.00    +0.000 A 
ATOM     10  C   UNL     1       2.038   6.640  19.825  0.00  0.00    +0.000 A 
ENDROOT
BRANCH   1  12
ATOM     11  C   UNL     1      -0.254   8.588  21.429  0.00  0.00    +0.000 C 
ATOM     12  C   UNL     1       1.256   8.500  21.298  0.00  0.00    +0.000 C 
ENDBRANCH   1  12
BRANCH   2  13
ATOM     13  C   UNL     1       1.749  10.122  18.655  0.00  0.00    +0.000 C 
BRANCH  13  14
ATOM     14  N   UNL     1       0.391  10.493  18.330  0.00  0.00    +0.000 N 
ATOM     15  N   UNL     1      -0.508   9.678  17.654  0.00  0.00    +0.000 NA
ATOM     16  C   UNL     1      -1.657  10.249  17.859  0.00  0.00    +0.000 A 
ATOM     17  C   UNL     1      -2.978   9.832  17.344  0.00  0.00    +0.000 A 
ATOM     18  C   UNL     1      -4.057  10.517  17.761  0.00  0.00    +0.000 A 
ATOM     19  C   UNL     1      -3.935  11.627  18.690  0.00  0.00    +0.000 A 
ATOM     20  C   UNL     1      -2.722  12.022  19.103  0.00  0.00    +0.000 A 
ATOM     21  N   UNL     1      -1.619  11.342  18.661  0.00  0.00    +0.000 N 
ATOM     22  C   UNL     1      -0.301  11.514  19.010  0.00  0.00    +0.000 A 
ATOM     23  O   UNL     1       0.167  12.327  19.794  0.00  0.00    +0.000 OA
ENDBRANCH  13  14
ENDBRANCH   2  13
TORSDOF 3
ENDMDL
MODEL 5
REMARK VINA RESULT:      -6.9      3.650      7.508
REMARK  Name = 
REMARK  4 active torsions:
REMARK  status: ('A' for Active; 'I' for Inactive)
REMARK    1  A    between atoms: C_1  and  C_2
REMARK    2  A    between atoms: C_2  and  N_3
REMARK    3  A    between atoms: C_4  and  C_5
REMARK    4  A    between atoms: C_5  and  N_6
REMARK                            x       y       z     vdW  Elec       q    Type
REMARK                         _______ _______ _______ _____ _____    ______ ____
ROOT
ATOM      1  N   UNL     1       3.503   6.026  17.793  0.00  0.00    +0.000 N 
ATOM      2  C   UNL     1       2.611   6.727  18.583  0.00  0.00    +0.000 A 
ATOM      3  N   UNL     1       1.828   5.890  19.242  0.00  0.00    +0.000 NA
ATOM      4  C   UNL     1       2.226   4.629  18.893  0.00  0.00    +0.000 A 
ATOM      5  C   UNL     1       1.716   3.391  19.302  0.00  0.00    +0.000 A 
ATOM      6  C   UNL     1       2.296   2.237  18.777  0.00  0.00    +0.000 A 
ATOM      7  F   UNL     1       1.817   1.042  19.146  0.00  0.00    +0.000 F 
ATOM      8  C   UNL     1       3.357   2.293  17.878  0.00  0.00    +0.000 A 
ATOM      9  C   UNL     1       3.879   3.521  17.461  0.00  0.00    +0.000 A 
ATOM     10  C   UNL     1       3.282   4.676  17.986  0.00  0.00    +0.000 A 
ENDROOT
BRANCH   1  12
ATOM     11  C   UNL     1       5.869   6.655  17.384  0.00  0.00    +0.000 C 
ATOM     12  C   UNL     1       4.457   6.558  16.836  0.00  0.00    +0.000 C 
ENDBRANCH   1  12
BRANCH   2  13
ATOM     13  C   UNL     1       2.473   8.216  18.619  0.00  0.00    +0.000 C 
BRANCH  13  14
ATOM     14  N   UNL     1       1.474   8.673  19.557  0.00  0.00    +0.000 N 
ATOM     15  N   UNL     1       1.480   8.386  20.917  0.00  0.00    +0.000 NA
ATOM     16  C   UNL     1       0.626   9.229  21.413  0.00  0.00    +0.000 A 
ATOM     17  C   UNL     1       0.201   9.360  22.823  0.00  0.00    +0.000 A 
ATOM     18  C   UNL     1      -0.630  10.370  23.136  0.00  0.00    +0.000 A 
ATOM     19  C   UNL     1      -1.092  11.308  22.127  0.00  0.00    +0.000 A 
ATOM     20  C   UNL     1      -0.737  11.138  20.845  0.00  0.00    +0.000 A 
ATOM     21  N   UNL     1       0.089  10.096  20.519  0.00  0.00    +0.000 N 
ATOM     22  C   UNL     1       0.642   9.779  19.301  0.00  0.00    +0.000 A 
ATOM     23  O   UNL     1       0.503  10.369  18.240  0.00  0.00    +0.000 OA
ENDBRANCH  13  14
ENDBRANCH   2  13
TORSDOF 3
ENDMDL
MODEL 6
REMARK VINA RESULT:      -6.9      2.098      3.195
REMARK  Name = 
REMARK  4 active torsions:
REMARK  status: ('A' for Active; 'I' for Inactive)
REMARK    1  A    between atoms: C_1  and  C_2
REMARK    2  A    between atoms: C_2  and  N_3
REMARK    3  A    between atoms: C_4  and  C_5
REMARK    4  A    between atoms: C_5  and  N_6
REMARK                            x       y       z     vdW  Elec       q    Type
REMARK                         _______ _______ _______ _____ _____    ______ ____
ROOT
ATOM      1  N   UNL     1       4.550   4.228  19.369  0.00  0.00    +0.000 N 
ATOM      2  C   UNL     1       5.369   5.000  18.566  0.00  0.00    +0.000 A 
ATOM      3  N   UNL     1       4.869   6.218  18.437  0.00  0.00    +0.000 NA
ATOM      4  C   UNL     1       3.720   6.246  19.179  0.00  0.00    +0.000 A 
ATOM      5  C   UNL     1       2.810   7.292  19.368  0.00  0.00    +0.000 A 
ATOM      6  C   UNL     1       1.694   7.054  20.169  0.00  0.00    +0.000 A 
ATOM      7  F   UNL     1       0.804   8.037  20.355  0.00  0.00    +0.000 F 
ATOM      8  C   UNL     1       1.477   5.821  20.777  0.00  0.00    +0.000 A 
ATOM      9  C   UNL     1       2.376   4.766  20.599  0.00  0.00    +0.000 A 
ATOM     10  C   UNL     1       3.491   5.012  19.784  0.00  0.00    +0.000 A 
ENDROOT
BRANCH   1  12
ATOM     11  C   UNL     1       3.690   1.945  18.914  0.00  0.00    +0.000 C 
ATOM     12  C   UNL     1       4.676   2.815  19.673  0.00  0.00    +0.000 C 
ENDBRANCH   1  12
BRANCH   2  13
ATOM     13  C   UNL     1       6.593   4.513  17.858  0.00  0.00    +0.000 C 
BRANCH  13  14
ATOM     14  N   UNL     1       6.519   4.664  16.422  0.00  0.00    +0.000 N 
ATOM     15  N   UNL     1       7.493   5.274  15.642  0.00  0.00    +0.000 NA
ATOM     16  C   UNL     1       7.190   4.913  14.432  0.00  0.00    +0.000 A 
ATOM     17  C   UNL     1       7.871   5.296  13.177  0.00  0.00    +0.000 A 
ATOM     18  C   UNL     1       7.447   4.727  12.035  0.00  0.00    +0.000 A 
ATOM     19  C   UNL     1       6.359   3.764  12.030  0.00  0.00    +0.000 A 
ATOM     20  C   UNL     1       5.720   3.471  13.172  0.00  0.00    +0.000 A 
ATOM     21  N   UNL     1       6.134   4.068  14.333  0.00  0.00    +0.000 N 
ATOM     22  C   UNL     1       5.688   3.862  15.617  0.00  0.00    +0.000 A 
ATOM     23  O   UNL     1       4.812   3.096  15.991  0.00  0.00    +0.000 OA
ENDBRANCH  13  14
ENDBRANCH   2  13
TORSDOF 3
ENDMDL
MODEL 7
REMARK VINA RESULT:      -6.8      3.355      7.134
REMARK  Name = 
REMARK  4 active torsions:
REMARK  status: ('A' for Active; 'I' for Inactive)
REMARK    1  A    between atoms: C_1  and  C_2
REMARK    2  A    between atoms: C_2  and  N_3
REMARK    3  A    between atoms: C_4  and  C_5
REMARK    4  A    between atoms: C_5  and  N_6
REMARK                            x       y       z     vdW  Elec       q    Type
REMARK                         _______ _______ _______ _____ _____    ______ ____
ROOT
ATOM      1  N   UNL     1       5.781   5.251  17.335  0.00  0.00    +0.000 N 
ATOM      2  C   UNL     1       4.530   4.687  17.499  0.00  0.00    +0.000 A 
ATOM      3  N   UNL     1       4.157   4.070  16.389  0.00  0.00    +0.000 NA
ATOM      4  C   UNL     1       5.185   4.219  15.499  0.00  0.00    +0.000 A 
ATOM      5  C   UNL     1       5.289   3.764  14.179  0.00  0.00    +0.000 A 
ATOM      6  C   UNL     1       6.450   4.069  13.471  0.00  0.00    +0.000 A 
ATOM      7  F   UNL     1       6.567   3.654  12.203  0.00  0.00    +0.000 F 
ATOM      8  C   UNL     1       7.490   4.795  14.043  0.00  0.00    +0.000 A 
ATOM      9  C   UNL     1       7.402   5.255  15.360  0.00  0.00    +0.000 A 
ATOM     10  C   UNL     1       6.226   4.952  16.062  0.00  0.00    +0.000 A 
ENDROOT
BRANCH   1  12
ATOM     11  C   UNL     1       7.689   5.411  18.914  0.00  0.00    +0.000 C 
ATOM     12  C   UNL     1       6.504   6.101  18.263  0.00  0.00    +0.000 C 
ENDBRANCH   1  12
BRANCH   2  13
ATOM     13  C   UNL     1       3.669   4.830  18.713  0.00  0.00    +0.000 C 
BRANCH  13  14
ATOM     14  N   UNL     1       3.202   6.181  18.924  0.00  0.00    +0.000 N 
ATOM     15  N   UNL     1       3.110   7.147  17.930  0.00  0.00    +0.000 NA
ATOM     16  C   UNL     1       2.366   8.068  18.463  0.00  0.00    +0.000 A 
ATOM     17  C   UNL     1       1.958   9.359  17.868  0.00  0.00    +0.000 A 
ATOM     18  C   UNL     1       1.101  10.126  18.562  0.00  0.00    +0.000 A 
ATOM     19  C   UNL     1       0.583   9.704  19.852  0.00  0.00    +0.000 A 
ATOM     20  C   UNL     1       1.007   8.555  20.398  0.00  0.00    +0.000 A 
ATOM     21  N   UNL     1       1.900   7.782  19.705  0.00  0.00    +0.000 N 
ATOM     22  C   UNL     1       2.404   6.545  20.026  0.00  0.00    +0.000 A 
ATOM     23  O   UNL     1       2.160   5.870  21.015  0.00  0.00    +0.000 OA
ENDBRANCH  13  14
ENDBRANCH   2  13
TORSDOF 3
ENDMDL
MODEL 8
REMARK VINA RESULT:      -6.8      4.392      8.089
REMARK  Name = 
REMARK  4 active torsions:
REMARK  status: ('A' for Active; 'I' for Inactive)
REMARK    1  A    between atoms: C_1  and  C_2
REMARK    2  A    between atoms: C_2  and  N_3
REMARK    3  A    between atoms: C_4  and  C_5
REMARK    4  A    between atoms: C_5  and  N_6
REMARK                            x       y       z     vdW  Elec       q    Type
REMARK                         _______ _______ _______ _____ _____    ______ ____
ROOT
ATOM      1  N   UNL     1       2.571   5.565  19.698  0.00  0.00    +0.000 N 
ATOM      2  C   UNL     1       2.257   6.910  19.747  0.00  0.00    +0.000 A 
ATOM      3  N   UNL     1       2.843   7.554  18.751  0.00  0.00    +0.000 NA
ATOM      4  C   UNL     1       3.532   6.614  18.034  0.00  0.00    +0.000 A 
ATOM      5  C   UNL     1       4.327   6.774  16.893  0.00  0.00    +0.000 A 
ATOM      6  C   UNL     1       4.943   5.644  16.359  0.00  0.00    +0.000 A 
ATOM      7  F   UNL     1       5.717   5.774  15.274  0.00  0.00    +0.000 F 
ATOM      8  C   UNL     1       4.778   4.382  16.924  0.00  0.00    +0.000 A 
ATOM      9  C   UNL     1       3.987   4.205  18.063  0.00  0.00    +0.000 A 
ATOM     10  C   UNL     1       3.379   5.351  18.599  0.00  0.00    +0.000 A 
ENDROOT
BRANCH   1  12
ATOM     11  C   UNL     1       0.948   3.792  20.314  0.00  0.00    +0.000 C 
ATOM     12  C   UNL     1       2.226   4.533  20.659  0.00  0.00    +0.000 C 
ENDBRANCH   1  12
BRANCH   2  13
ATOM     13  C   UNL     1       1.455   7.573  20.821  0.00  0.00    +0.000 C 
BRANCH  13  14
ATOM     14  N   UNL     1       1.149   8.955  20.534  0.00  0.00    +0.000 N 
ATOM     15  N   UNL     1       0.609   9.411  19.338  0.00  0.00    +0.000 NA
ATOM     16  C   UNL     1       0.208  10.614  19.619  0.00  0.00    +0.000 A 
ATOM     17  C   UNL     1      -0.423  11.593  18.708  0.00  0.00    +0.000 A 
ATOM     18  C   UNL     1      -0.850  12.754  19.234  0.00  0.00    +0.000 A 
ATOM     19  C   UNL     1      -0.705  13.039  20.651  0.00  0.00    +0.000 A 
ATOM     20  C   UNL     1      -0.082  12.160  21.450  0.00  0.00    +0.000 A 
ATOM     21  N   UNL     1       0.376  10.987  20.912  0.00  0.00    +0.000 N 
ATOM     22  C   UNL     1       0.964   9.918  21.545  0.00  0.00    +0.000 A 
ATOM     23  O   UNL     1       1.207   9.794  22.736  0.00  0.00    +0.000 OA
ENDBRANCH  13  14
ENDBRANCH   2  13
TORSDOF 3
ENDMDL
MODEL 9
REMARK VINA RESULT:      -6.8      2.743      6.869
REMARK  Name = 
REMARK  4 active torsions:
REMARK  status: ('A' for Active; 'I' for Inactive)
REMARK    1  A    between atoms: C_1  and  C_2
REMARK    2  A    between atoms: C_2  and  N_3
REMARK    3  A    between atoms: C_4  and  C_5
REMARK    4  A    between atoms: C_5  and  N_6
REMARK                            x       y       z     vdW  Elec       q    Type
REMARK                         _______ _______ _______ _____ _____    ______ ____
ROOT
ATOM      1  N   UNL     1       6.347   6.249  16.569  0.00  0.00    +0.000 N 
ATOM      2  C   UNL     1       5.047   6.067  17.001  0.00  0.00    +0.000 A 
ATOM      3  N   UNL     1       4.407   5.238  16.193  0.00  0.00    +0.000 NA
ATOM      4  C   UNL     1       5.306   4.861  15.233  0.00  0.00    +0.000 A 
ATOM      5  C   UNL     1       5.131   4.006  14.139  0.00  0.00    +0.000 A 
ATOM      6  C   UNL     1       6.216   3.799  13.289  0.00  0.00    +0.000 A 
ATOM      7  F   UNL     1       6.069   2.994  12.229  0.00  0.00    +0.000 F 
ATOM      8  C   UNL     1       7.447   4.409  13.508  0.00  0.00    +0.000 A 
ATOM      9  C   UNL     1       7.639   5.264  14.597  0.00  0.00    +0.000 A 
ATOM     10  C   UNL     1       6.539   5.474  15.442  0.00  0.00    +0.000 A 
ENDROOT
BRANCH   1  12
ATOM     11  C   UNL     1       7.931   6.696  18.426  0.00  0.00    +0.000 C 
ATOM     12  C   UNL     1       7.345   7.157  17.104  0.00  0.00    +0.000 C 
ENDBRANCH   1  12
BRANCH   2  13
ATOM     13  C   UNL     1       4.412   6.776  18.155  0.00  0.00    +0.000 C 
BRANCH  13  14
ATOM     14  N   UNL     1       3.755   5.882  19.081  0.00  0.00    +0.000 N 
ATOM     15  N   UNL     1       2.381   5.823  19.280  0.00  0.00    +0.000 NA
ATOM     16  C   UNL     1       2.210   4.708  19.922  0.00  0.00    +0.000 A 
ATOM     17  C   UNL     1       0.941   4.142  20.429  0.00  0.00    +0.000 A 
ATOM     18  C   UNL     1       0.979   2.919  20.987  0.00  0.00    +0.000 A 
ATOM     19  C   UNL     1       2.221   2.172  21.085  0.00  0.00    +0.000 A 
ATOM     20  C   UNL     1       3.369   2.726  20.668  0.00  0.00    +0.000 A 
ATOM     21  N   UNL     1       3.338   3.982  20.122  0.00  0.00    +0.000 N 
ATOM     22  C   UNL     1       4.362   4.705  19.561  0.00  0.00    +0.000 A 
ATOM     23  O   UNL     1       5.532   4.375  19.437  0.00  0.00    +0.000 OA
ENDBRANCH  13  14
ENDBRANCH   2  13
TORSDOF 3
ENDMDL
