MODEL 1
REMARK VINA RESULT:      -5.8      0.000      0.000
REMARK  Name = 
REMARK  4 active torsions:
REMARK  status: ('A' for Active; 'I' for Inactive)
REMARK    1  A    between atoms: C_1  and  O_2
REMARK    2  A    between atoms: O_2  and  C_3
REMARK    3  A    between atoms: C_6  and  O_7
REMARK    4  A    between atoms: O_7  and  C_8
REMARK                            x       y       z     vdW  Elec       q    Type
REMARK                         _______ _______ _______ _____ _____    ______ ____
ROOT
ATOM      1  C   UNL     1       4.518   3.945  17.947  0.00  0.00    +0.000 A 
ATOM      2  C   UNL     1       4.975   4.514  19.129  0.00  0.00    +0.000 A 
ATOM      3  C   UNL     1       6.095   5.354  19.116  0.00  0.00    +0.000 A 
ATOM      4  C   UNL     1       6.805   5.642  17.937  0.00  0.00    +0.000 A 
ATOM      5  C   UNL     1       6.365   5.026  16.768  0.00  0.00    +0.000 A 
ATOM      6  C   UNL     1       5.239   4.183  16.780  0.00  0.00    +0.000 A 
ATOM      7  C   UNL     1       4.908   3.602  15.439  0.00  0.00    +0.000 C 
ATOM      8  C   UNL     1       5.953   4.189  14.503  0.00  0.00    +0.000 C 
ATOM      9  C   UNL     1       6.837   5.044  15.372  0.00  0.00    +0.000 C 
ATOM     10  O   UNL     1       7.798   5.647  14.931  0.00  0.00    +0.000 OA
ENDROOT
BRANCH   1  12
ATOM     11  C   UNL     1       3.540   1.876  18.492  0.00  0.00    +0.000 C 
ATOM     12  O   UNL     1       3.417   3.143  17.848  0.00  0.00    +0.000 OA
ENDBRANCH   1  12
BRANCH   4  13
ATOM     13  O   UNL     1       7.827   6.503  18.191  0.00  0.00    +0.000 OA
ATOM     14  C   UNL     1       7.774   7.835  17.722  0.00  0.00    +0.000 C 
ENDBRANCH   4  13
TORSDOF 2
ENDMDL
MODEL 2
REMARK VINA RESULT:      -5.8      2.454      4.041
REMARK  Name = 
REMARK  4 active torsions:
REMARK  status: ('A' for Active; 'I' for Inactive)
REMARK    1  A    between atoms: C_1  and  O_2
REMARK    2  A    between atoms: O_2  and  C_3
REMARK    3  A    between atoms: C_6  and  O_7
REMARK    4  A    between atoms: O_7  and  C_8
REMARK                            x       y       z     vdW  Elec       q    Type
REMARK                         _______ _______ _______ _____ _____    ______ ____
ROOT
ATOM      1  C   UNL     1       3.722   6.620  17.860  0.00  0.00    +0.000 A 
ATOM      2  C   UNL     1       2.900   5.684  18.475  0.00  0.00    +0.000 A 
ATOM      3  C   UNL     1       3.453   4.529  19.042  0.00  0.00    +0.000 A 
ATOM      4  C   UNL     1       4.833   4.260  19.004  0.00  0.00    +0.000 A 
ATOM      5  C   UNL     1       5.639   5.183  18.343  0.00  0.00    +0.000 A 
ATOM      6  C   UNL     1       5.084   6.344  17.773  0.00  0.00    +0.000 A 
ATOM      7  C   UNL     1       6.092   7.223  17.098  0.00  0.00    +0.000 C 
ATOM      8  C   UNL     1       7.419   6.511  17.311  0.00  0.00    +0.000 C 
ATOM      9  C   UNL     1       7.085   5.252  18.066  0.00  0.00    +0.000 C 
ATOM     10  O   UNL     1       7.931   4.435  18.380  0.00  0.00    +0.000 OA
ENDROOT
BRANCH   1  12
ATOM     11  C   UNL     1       2.161   8.376  17.964  0.00  0.00    +0.000 C 
ATOM     12  O   UNL     1       3.287   7.791  17.310  0.00  0.00    +0.000 OA
ENDBRANCH   1  12
BRANCH   4  13
ATOM     13  O   UNL     1       5.111   3.096  19.650  0.00  0.00    +0.000 OA
ATOM     14  C   UNL     1       4.113   2.107  19.805  0.00  0.00    +0.000 C 
ENDBRANCH   4  13
TORSDOF 2
ENDMDL
MODEL 3
REMARK VINA RESULT:      -5.8      1.261      1.347
REMARK  Name = 
REMARK  4 active torsions:
REMARK  status: ('A' for Active; 'I' for Inactive)
REMARK    1  A    between atoms: C_1  and  O_2
REMARK    2  A    between atoms: O_2  and  C_3
REMARK    3  A    between atoms: C_6  and  O_7
REMARK    4  A    between atoms: O_7  and  C_8
REMARK                            x       y       z     vdW  Elec       q    Type
REMARK                         _______ _______ _______ _____ _____    ______ ____
ROOT
ATOM      1  C   UNL     1       4.659   4.534  16.894  0.00  0.00    +0.000 A 
ATOM      2  C   UNL     1       5.014   5.382  17.936  0.00  0.00    +0.000 A 
ATOM      3  C   UNL     1       6.116   6.234  17.802  0.00  0.00    +0.000 A 
ATOM      4  C   UNL     1       6.908   6.262  16.640  0.00  0.00    +0.000 A 
ATOM      5  C   UNL     1       6.570   5.373  15.623  0.00  0.00    +0.000 A 
ATOM      6  C   UNL     1       5.461   4.516  15.757  0.00  0.00    +0.000 A 
ATOM      7  C   UNL     1       5.244   3.624  14.573  0.00  0.00    +0.000 C 
ATOM      8  C   UNL     1       6.347   4.012  13.599  0.00  0.00    +0.000 C 
ATOM      9  C   UNL     1       7.146   5.078  14.300  0.00  0.00    +0.000 C 
ATOM     10  O   UNL     1       8.127   5.595  13.796  0.00  0.00    +0.000 OA
ENDROOT
BRANCH   1  12
ATOM     11  C   UNL     1       2.565   4.044  17.848  0.00  0.00    +0.000 C 
ATOM     12  O   UNL     1       3.583   3.693  16.912  0.00  0.00    +0.000 OA
ENDBRANCH   1  12
BRANCH   4  13
ATOM     13  O   UNL     1       7.892   7.195  16.753  0.00  0.00    +0.000 OA
ATOM     14  C   UNL     1       7.792   8.227  17.714  0.00  0.00    +0.000 C 
ENDBRANCH   4  13
TORSDOF 2
ENDMDL
MODEL 4
REMARK VINA RESULT:      -5.8      1.443      4.274
REMARK  Name = 
REMARK  4 active torsions:
REMARK  status: ('A' for Active; 'I' for Inactive)
REMARK    1  A    between atoms: C_1  and  O_2
REMARK    2  A    between atoms: O_2  and  C_3
REMARK    3  A    between atoms: C_6  and  O_7
REMARK    4  A    between atoms: O_7  and  C_8
REMARK                            x       y       z     vdW  Elec       q    Type
REMARK                         _______ _______ _______ _____ _____    ______ ____
ROOT
ATOM      1  C   UNL     1       5.617   5.078  16.075  0.00  0.00    +0.000 A 
ATOM      2  C   UNL     1       4.711   4.046  16.286  0.00  0.00    +0.000 A 
ATOM      3  C   UNL     1       4.562   3.494  17.564  0.00  0.00    +0.000 A 
ATOM      4  C   UNL     1       5.315   3.936  18.666  0.00  0.00    +0.000 A 
ATOM      5  C   UNL     1       6.253   4.938  18.431  0.00  0.00    +0.000 A 
ATOM      6  C   UNL     1       6.403   5.493  17.147  0.00  0.00    +0.000 A 
ATOM      7  C   UNL     1       7.459   6.554  17.070  0.00  0.00    +0.000 C 
ATOM      8  C   UNL     1       7.990   6.663  18.491  0.00  0.00    +0.000 C 
ATOM      9  C   UNL     1       7.229   5.635  19.286  0.00  0.00    +0.000 C 
ATOM     10  O   UNL     1       7.432   5.446  20.471  0.00  0.00    +0.000 OA
ENDROOT
BRANCH   1  12
ATOM     11  C   UNL     1       6.560   4.954  13.924  0.00  0.00    +0.000 C 
ATOM     12  O   UNL     1       5.812   5.706  14.878  0.00  0.00    +0.000 OA
ENDBRANCH   1  12
BRANCH   4  13
ATOM     13  O   UNL     1       4.957   3.261  19.792  0.00  0.00    +0.000 OA
ATOM     14  C   UNL     1       3.759   2.512  19.827  0.00  0.00    +0.000 C 
ENDBRANCH   4  13
TORSDOF 2
ENDMDL
MODEL 5
REMARK VINA RESULT:      -5.7      2.614      4.559
REMARK  Name = 
REMARK  4 active torsions:
REMARK  status: ('A' for Active; 'I' for Inactive)
REMARK    1  A    between atoms: C_1  and  O_2
REMARK    2  A    between atoms: O_2  and  C_3
REMARK    3  A    between atoms: C_6  and  O_7
REMARK    4  A    between atoms: O_7  and  C_8
REMARK                            x       y       z     vdW  Elec       q    Type
REMARK                         _______ _______ _______ _____ _____    ______ ____
ROOT
ATOM      1  C   UNL     1       3.289   6.546  17.962  0.00  0.00    +0.000 A 
ATOM      2  C   UNL     1       4.394   6.826  17.167  0.00  0.00    +0.000 A 
ATOM      3  C   UNL     1       5.098   5.783  16.553  0.00  0.00    +0.000 A 
ATOM      4  C   UNL     1       4.740   4.434  16.719  0.00  0.00    +0.000 A 
ATOM      5  C   UNL     1       3.660   4.165  17.556  0.00  0.00    +0.000 A 
ATOM      6  C   UNL     1       2.952   5.212  18.174  0.00  0.00    +0.000 A 
ATOM      7  C   UNL     1       1.825   4.745  19.043  0.00  0.00    +0.000 C 
ATOM      8  C   UNL     1       1.847   3.229  18.912  0.00  0.00    +0.000 C 
ATOM      9  C   UNL     1       3.006   2.921  18.001  0.00  0.00    +0.000 C 
ATOM     10  O   UNL     1       3.317   1.783  17.704  0.00  0.00    +0.000 OA
ENDROOT
BRANCH   1  12
ATOM     11  C   UNL     1       2.217   8.631  17.771  0.00  0.00    +0.000 C 
ATOM     12  O   UNL     1       2.516   7.490  18.574  0.00  0.00    +0.000 OA
ENDBRANCH   1  12
BRANCH   4  13
ATOM     13  O   UNL     1       5.562   3.627  15.995  0.00  0.00    +0.000 OA
ATOM     14  C   UNL     1       6.155   4.097  14.801  0.00  0.00    +0.000 C 
ENDBRANCH   4  13
TORSDOF 2
ENDMDL
MODEL 6
REMARK VINA RESULT:      -5.7      1.398      3.202
REMARK  Name = 
REMARK  4 active torsions:
REMARK  status: ('A' for Active; 'I' for Inactive)
REMARK    1  A    between atoms: C_1  and  O_2
REMARK    2  A    between atoms: O_2  and  C_3
REMARK    3  A    between atoms: C_6  and  O_7
REMARK    4  A    between atoms: O_7  and  C_8
REMARK                            x       y       z     vdW  Elec       q    Type
REMARK                         _______ _______ _______ _____ _____    ______ ____
ROOT
ATOM      1  C   UNL     1       4.721   3.912  18.668  0.00  0.00    +0.000 A 
ATOM      2  C   UNL     1       3.940   3.461  17.611  0.00  0.00    +0.000 A 
ATOM      3  C   UNL     1       4.248   3.843  16.299  0.00  0.00    +0.000 A 
ATOM      4  C   UNL     1       5.327   4.694  15.998  0.00  0.00    +0.000 A 
ATOM      5  C   UNL     1       6.071   5.176  17.071  0.00  0.00    +0.000 A 
ATOM      6  C   UNL     1       5.762   4.793  18.389  0.00  0.00    +0.000 A 
ATOM      7  C   UNL     1       6.659   5.407  19.420  0.00  0.00    +0.000 C 
ATOM      8  C   UNL     1       7.642   6.246  18.617  0.00  0.00    +0.000 C 
ATOM      9  C   UNL     1       7.226   6.085  17.178  0.00  0.00    +0.000 C 
ATOM     10  O   UNL     1       7.801   6.651  16.266  0.00  0.00    +0.000 OA
ENDROOT
BRANCH   1  12
ATOM     11  C   UNL     1       3.517   2.584  20.191  0.00  0.00    +0.000 C 
ATOM     12  O   UNL     1       4.526   3.570  19.976  0.00  0.00    +0.000 OA
ENDBRANCH   1  12
BRANCH   4  13
ATOM     13  O   UNL     1       5.427   4.882  14.654  0.00  0.00    +0.000 OA
ATOM     14  C   UNL     1       6.307   4.089  13.884  0.00  0.00    +0.000 C 
ENDBRANCH   4  13
TORSDOF 2
ENDMDL
MODEL 7
REMARK VINA RESULT:      -5.7      2.541      2.869
REMARK  Name = 
REMARK  4 active torsions:
REMARK  status: ('A' for Active; 'I' for Inactive)
REMARK    1  A    between atoms: C_1  and  O_2
REMARK    2  A    between atoms: O_2  and  C_3
REMARK    3  A    between atoms: C_6  and  O_7
REMARK    4  A    between atoms: O_7  and  C_8
REMARK                            x       y       z     vdW  Elec       q    Type
REMARK                         _______ _______ _______ _____ _____    ______ ____
ROOT
ATOM      1  C   UNL     1       3.011   3.811  17.534  0.00  0.00    +0.000 A 
ATOM      2  C   UNL     1       2.081   4.624  18.170  0.00  0.00    +0.000 A 
ATOM      3  C   UNL     1       2.288   6.007  18.237  0.00  0.00    +0.000 A 
ATOM      4  C   UNL     1       3.428   6.624  17.690  0.00  0.00    +0.000 A 
ATOM      5  C   UNL     1       4.374   5.792  17.099  0.00  0.00    +0.000 A 
ATOM      6  C   UNL     1       4.167   4.401  17.031  0.00  0.00    +0.000 A 
ATOM      7  C   UNL     1       5.285   3.658  16.367  0.00  0.00    +0.000 C 
ATOM      8  C   UNL     1       6.276   4.741  15.967  0.00  0.00    +0.000 C 
ATOM      9  C   UNL     1       5.678   6.034  16.456  0.00  0.00    +0.000 C 
ATOM     10  O   UNL     1       6.238   7.106  16.314  0.00  0.00    +0.000 OA
ENDROOT
BRANCH   1  12
ATOM     11  C   UNL     1       3.119   1.702  18.571  0.00  0.00    +0.000 C 
ATOM     12  O   UNL     1       2.884   2.460  17.384  0.00  0.00    +0.000 OA
ENDBRANCH   1  12
BRANCH   4  13
ATOM     13  O   UNL     1       3.372   7.972  17.862  0.00  0.00    +0.000 OA
ATOM     14  C   UNL     1       2.125   8.637  17.900  0.00  0.00    +0.000 C 
ENDBRANCH   4  13
TORSDOF 2
ENDMDL
MODEL 8
REMARK VINA RESULT:      -5.6      3.016      5.251
REMARK  Name = 
REMARK  4 active torsions:
REMARK  status: ('A' for Active; 'I' for Inactive)
REMARK    1  A    between atoms: C_1  and  O_2
REMARK    2  A    between atoms: O_2  and  C_3
REMARK    3  A    between atoms: C_6  and  O_7
REMARK    4  A    between atoms: O_7  and  C_8
REMARK                            x       y       z     vdW  Elec       q    Type
REMARK                         _______ _______ _______ _____ _____    ______ ____
ROOT
ATOM      1  C   UNL     1       2.124   6.203  19.844  0.00  0.00    +0.000 A 
ATOM      2  C   UNL     1       2.862   6.879  18.880  0.00  0.00    +0.000 A 
ATOM      3  C   UNL     1       3.501   6.166  17.859  0.00  0.00    +0.000 A 
ATOM      4  C   UNL     1       3.440   4.764  17.769  0.00  0.00    +0.000 A 
ATOM      5  C   UNL     1       2.737   4.096  18.768  0.00  0.00    +0.000 A 
ATOM      6  C   UNL     1       2.094   4.812  19.795  0.00  0.00    +0.000 A 
ATOM      7  C   UNL     1       1.389   3.938  20.787  0.00  0.00    +0.000 C 
ATOM      8  C   UNL     1       1.620   2.523  20.277  0.00  0.00    +0.000 C 
ATOM      9  C   UNL     1       2.470   2.673  19.043  0.00  0.00    +0.000 C 
ATOM     10  O   UNL     1       2.857   1.717  18.397  0.00  0.00    +0.000 OA
ENDROOT
BRANCH   1  12
ATOM     11  C   UNL     1       1.412   8.232  20.798  0.00  0.00    +0.000 C 
ATOM     12  O   UNL     1       1.436   6.806  20.857  0.00  0.00    +0.000 OA
ENDBRANCH   1  12
BRANCH   4  13
ATOM     13  O   UNL     1       4.116   4.325  16.673  0.00  0.00    +0.000 OA
ATOM     14  C   UNL     1       5.522   4.178  16.710  0.00  0.00    +0.000 C 
ENDBRANCH   4  13
TORSDOF 2
ENDMDL
MODEL 9
REMARK VINA RESULT:      -5.6      2.599      4.542
REMARK  Name = 
REMARK  4 active torsions:
REMARK  status: ('A' for Active; 'I' for Inactive)
REMARK    1  A    between atoms: C_1  and  O_2
REMARK    2  A    between atoms: O_2  and  C_3
REMARK    3  A    between atoms: C_6  and  O_7
REMARK    4  A    between atoms: O_7  and  C_8
REMARK                            x       y       z     vdW  Elec       q    Type
REMARK                         _______ _______ _______ _____ _____    ______ ____
ROOT
ATOM      1  C   UNL     1       4.856   4.528  16.624  0.00  0.00    +0.000 A 
ATOM      2  C   UNL     1       5.012   5.905  16.532  0.00  0.00    +0.000 A 
ATOM      3  C   UNL     1       4.181   6.756  17.270  0.00  0.00    +0.000 A 
ATOM      4  C   UNL     1       3.162   6.269  18.109  0.00  0.00    +0.000 A 
ATOM      5  C   UNL     1       2.986   4.889  18.154  0.00  0.00    +0.000 A 
ATOM      6  C   UNL     1       3.821   4.033  17.413  0.00  0.00    +0.000 A 
ATOM      7  C   UNL     1       3.490   2.581  17.574  0.00  0.00    +0.000 C 
ATOM      8  C   UNL     1       2.325   2.564  18.553  0.00  0.00    +0.000 C 
ATOM      9  C   UNL     1       2.041   4.010  18.865  0.00  0.00    +0.000 C 
ATOM     10  O   UNL     1       1.141   4.351  19.611  0.00  0.00    +0.000 OA
ENDROOT
BRANCH   1  12
ATOM     11  C   UNL     1       6.100   4.030  14.690  0.00  0.00    +0.000 C 
ATOM     12  O   UNL     1       5.636   3.614  15.974  0.00  0.00    +0.000 OA
ENDBRANCH   1  12
BRANCH   4  13
ATOM     13  O   UNL     1       2.524   7.297  18.733  0.00  0.00    +0.000 OA
ATOM     14  C   UNL     1       2.147   8.450  18.008  0.00  0.00    +0.000 C 
ENDBRANCH   4  13
TORSDOF 2
ENDMDL
