MODEL 1
REMARK VINA RESULT:      -8.8      0.000      0.000
REMARK  Name = 
REMARK  10 active torsions:
REMARK  status: ('A' for Active; 'I' for Inactive)
REMARK    1  A    between atoms: C_1  and  O_2
REMARK    2  A    between atoms: O_2  and  C_3
REMARK    3  A    between atoms: C_8  and  C_9
REMARK    4  A    between atoms: C_9  and  N_10
REMARK    5  A    between atoms: C_11  and  C_13
REMARK    6  A    between atoms: C_13  and  C_14
REMARK    7  A    between atoms: C_18  and  C_19
REMARK    8  A    between atoms: N_29  and  C_30
REMARK    9  A    between atoms: C_33  and  C_34
REMARK   10  A    between atoms: C_36  and  C_37
REMARK                            x       y       z     vdW  Elec       q    Type
REMARK                         _______ _______ _______ _____ _____    ______ ____
ROOT
ATOM      1  C   UNL     1      -0.527  11.791  19.118  0.00  0.00    +0.000 C 
ATOM      2  C   UNL     1      -0.414  13.281  18.725  0.00  0.00    +0.000 C 
ATOM      3  C   UNL     1       0.376  11.051  18.101  0.00  0.00    +0.000 C 
ATOM      4  N   UNL     1       1.054   9.912  18.662  0.00  0.00    +0.000 N 
ATOM      5  N   UNL     1       1.726   9.085  17.856  0.00  0.00    +0.000 NA
ATOM      6  C   UNL     1       2.124   8.086  18.660  0.00  0.00    +0.000 A 
ATOM      7  C   UNL     1       1.797   8.400  20.014  0.00  0.00    +0.000 A 
ATOM      8  C   UNL     1       1.105   9.598  19.973  0.00  0.00    +0.000 A 
ATOM      9  C   UNL     1       0.507  10.398  21.007  0.00  0.00    +0.000 C 
ATOM     10  O   UNL     1       0.611  10.094  22.195  0.00  0.00    +0.000 OA
ATOM     11  N   UNL     1      -0.119  11.590  20.565  0.00  0.00    +0.000 N 
ENDROOT
BRANCH  11  12
ATOM     12  C   UNL     1      -0.808  12.367  21.564  0.00  0.00    +0.000 A 
ATOM     13  C   UNL     1      -2.031  11.910  22.085  0.00  0.00    +0.000 A 
ATOM     14  C   UNL     1      -2.709  12.637  23.075  0.00  0.00    +0.000 A 
ATOM     15  C   UNL     1      -2.172  13.825  23.570  0.00  0.00    +0.000 A 
ATOM     16  C   UNL     1      -2.845  14.621  24.650  0.00  0.00    +0.000 C 
ATOM     17  C   UNL     1      -0.945  14.269  23.068  0.00  0.00    +0.000 A 
ATOM     18  C   UNL     1      -0.251  13.556  22.078  0.00  0.00    +0.000 A 
ATOM     19  C   UNL     1       1.104  14.074  21.678  0.00  0.00    +0.000 C 
ENDBRANCH  11  12
BRANCH   6  20
ATOM     20  C   UNL     1       2.739   6.875  18.095  0.00  0.00    +0.000 A 
ATOM     21  C   UNL     1       2.093   5.632  18.230  0.00  0.00    +0.000 A 
ATOM     22  C   UNL     1       2.699   4.449  17.800  0.00  0.00    +0.000 A 
ATOM     23  C   UNL     1       3.961   4.492  17.217  0.00  0.00    +0.000 A 
ATOM     24  C   UNL     1       4.606   5.717  17.053  0.00  0.00    +0.000 A 
ATOM     25  C   UNL     1       4.000   6.903  17.486  0.00  0.00    +0.000 A 
ENDBRANCH   6  20
BRANCH   1  27
ATOM     26  N   UNL     1      -3.014  12.086  18.831  0.00  0.00    +0.000 N 
ATOM     27  C   UNL     1      -1.955  11.199  18.856  0.00  0.00    +0.000 C 
ATOM     28  O   UNL     1      -2.109  10.003  18.606  0.00  0.00    +0.000 OA
ATOM     29  H   UNL     1      -2.922  13.023  19.191  0.00  0.00    +0.000 HD
BRANCH  26  30
ATOM     30  C   UNL     1      -4.361  11.711  18.440  0.00  0.00    +0.000 C 
BRANCH  30  36
ATOM     31  C   UNL     1      -6.526  11.253  19.747  0.00  0.00    +0.000 A 
ATOM     32  C   UNL     1      -7.452  11.657  20.722  0.00  0.00    +0.000 A 
ATOM     33  C   UNL     1      -7.226  12.796  21.493  0.00  0.00    +0.000 A 
ATOM     34  C   UNL     1      -6.070  13.543  21.302  0.00  0.00    +0.000 A 
ATOM     35  C   UNL     1      -5.154  13.165  20.322  0.00  0.00    +0.000 A 
ATOM     36  C   UNL     1      -5.376  12.032  19.515  0.00  0.00    +0.000 A 
BRANCH  31  38
ATOM     37  C   UNL     1      -7.076   8.948  19.652  0.00  0.00    +0.000 C 
ATOM     38  O   UNL     1      -6.698  10.138  18.962  0.00  0.00    +0.000 OA
ENDBRANCH  31  38
ENDBRANCH  30  36
ENDBRANCH  26  30
ENDBRANCH   1  27
TORSDOF 6
ENDMDL
MODEL 2
REMARK VINA RESULT:      -8.7      0.861      1.563
REMARK  Name = 
REMARK  10 active torsions:
REMARK  status: ('A' for Active; 'I' for Inactive)
REMARK    1  A    between atoms: C_1  and  O_2
REMARK    2  A    between atoms: O_2  and  C_3
REMARK    3  A    between atoms: C_8  and  C_9
REMARK    4  A    between atoms: C_9  and  N_10
REMARK    5  A    between atoms: C_11  and  C_13
REMARK    6  A    between atoms: C_13  and  C_14
REMARK    7  A    between atoms: C_18  and  C_19
REMARK    8  A    between atoms: N_29  and  C_30
REMARK    9  A    between atoms: C_33  and  C_34
REMARK   10  A    between atoms: C_36  and  C_37
REMARK                            x       y       z     vdW  Elec       q    Type
REMARK                         _______ _______ _______ _____ _____    ______ ____
ROOT
ATOM      1  C   UNL     1      -0.607  11.864  19.169  0.00  0.00    +0.000 C 
ATOM      2  C   UNL     1      -0.498  13.366  18.821  0.00  0.00    +0.000 C 
ATOM      3  C   UNL     1       0.339  11.162  18.163  0.00  0.00    +0.000 C 
ATOM      4  N   UNL     1       1.010  10.015  18.716  0.00  0.00    +0.000 N 
ATOM      5  N   UNL     1       1.719   9.218  17.910  0.00  0.00    +0.000 NA
ATOM      6  C   UNL     1       2.101   8.201  18.700  0.00  0.00    +0.000 A 
ATOM      7  C   UNL     1       1.724   8.474  20.050  0.00  0.00    +0.000 A 
ATOM      8  C   UNL     1       1.020   9.665  20.018  0.00  0.00    +0.000 A 
ATOM      9  C   UNL     1       0.377  10.430  21.053  0.00  0.00    +0.000 C 
ATOM     10  O   UNL     1       0.444  10.093  22.235  0.00  0.00    +0.000 OA
ATOM     11  N   UNL     1      -0.247  11.626  20.623  0.00  0.00    +0.000 N 
ENDROOT
BRANCH  11  12
ATOM     12  C   UNL     1      -0.979  12.368  21.619  0.00  0.00    +0.000 A 
ATOM     13  C   UNL     1      -2.206  11.876  22.095  0.00  0.00    +0.000 A 
ATOM     14  C   UNL     1      -2.926  12.567  23.080  0.00  0.00    +0.000 A 
ATOM     15  C   UNL     1      -2.426  13.754  23.616  0.00  0.00    +0.000 A 
ATOM     16  C   UNL     1      -3.145  14.514  24.693  0.00  0.00    +0.000 C 
ATOM     17  C   UNL     1      -1.195  14.233  23.159  0.00  0.00    +0.000 A 
ATOM     18  C   UNL     1      -0.460  13.555  22.174  0.00  0.00    +0.000 A 
ATOM     19  C   UNL     1       0.895  14.108  21.823  0.00  0.00    +0.000 C 
ENDBRANCH  11  12
BRANCH   6  20
ATOM     20  C   UNL     1       2.749   7.013  18.124  0.00  0.00    +0.000 A 
ATOM     21  C   UNL     1       2.170   5.743  18.301  0.00  0.00    +0.000 A 
ATOM     22  C   UNL     1       2.813   4.585  17.860  0.00  0.00    +0.000 A 
ATOM     23  C   UNL     1       4.046   4.679  17.221  0.00  0.00    +0.000 A 
ATOM     24  C   UNL     1       4.624   5.932  17.016  0.00  0.00    +0.000 A 
ATOM     25  C   UNL     1       3.979   7.092  17.460  0.00  0.00    +0.000 A 
ENDBRANCH   6  20
BRANCH   1  27
ATOM     26  N   UNL     1      -3.048  12.156  18.612  0.00  0.00    +0.000 N 
ATOM     27  C   UNL     1      -2.018  11.265  18.841  0.00  0.00    +0.000 C 
ATOM     28  O   UNL     1      -2.178  10.049  18.717  0.00  0.00    +0.000 OA
ATOM     29  H   UNL     1      -2.967  13.128  18.868  0.00  0.00    +0.000 HD
BRANCH  26  30
ATOM     30  C   UNL     1      -4.361  11.757  18.140  0.00  0.00    +0.000 C 
BRANCH  30  36
ATOM     31  C   UNL     1      -5.436  12.800  20.229  0.00  0.00    +0.000 A 
ATOM     32  C   UNL     1      -6.394  12.728  21.251  0.00  0.00    +0.000 A 
ATOM     33  C   UNL     1      -7.338  11.702  21.277  0.00  0.00    +0.000 A 
ATOM     34  C   UNL     1      -7.338  10.737  20.277  0.00  0.00    +0.000 A 
ATOM     35  C   UNL     1      -6.377  10.785  19.267  0.00  0.00    +0.000 A 
ATOM     36  C   UNL     1      -5.399  11.798  19.239  0.00  0.00    +0.000 A 
BRANCH  31  38
ATOM     37  C   UNL     1      -4.762  14.970  20.907  0.00  0.00    +0.000 C 
ATOM     38  O   UNL     1      -4.486  13.789  20.154  0.00  0.00    +0.000 OA
ENDBRANCH  31  38
ENDBRANCH  30  36
ENDBRANCH  26  30
ENDBRANCH   1  27
TORSDOF 6
ENDMDL
MODEL 3
REMARK VINA RESULT:      -8.6      1.188      1.914
REMARK  Name = 
REMARK  10 active torsions:
REMARK  status: ('A' for Active; 'I' for Inactive)
REMARK    1  A    between atoms: C_1  and  O_2
REMARK    2  A    between atoms: O_2  and  C_3
REMARK    3  A    between atoms: C_8  and  C_9
REMARK    4  A    between atoms: C_9  and  N_10
REMARK    5  A    between atoms: C_11  and  C_13
REMARK    6  A    between atoms: C_13  and  C_14
REMARK    7  A    between atoms: C_18  and  C_19
REMARK    8  A    between atoms: N_29  and  C_30
REMARK    9  A    between atoms: C_33  and  C_34
REMARK   10  A    between atoms: C_36  and  C_37
REMARK                            x       y       z     vdW  Elec       q    Type
REMARK                         _______ _______ _______ _____ _____    ______ ____
ROOT
ATOM      1  C   UNL     1      -0.881  11.933  19.317  0.00  0.00    +0.000 C 
ATOM      2  C   UNL     1      -0.665  13.398  18.875  0.00  0.00    +0.000 C 
ATOM      3  C   UNL     1       0.201  11.132  18.550  0.00  0.00    +0.000 C 
ATOM      4  N   UNL     1       0.730  10.024  19.300  0.00  0.00    +0.000 N 
ATOM      5  N   UNL     1       1.540   9.149  18.696  0.00  0.00    +0.000 NA
ATOM      6  C   UNL     1       1.748   8.195  19.619  0.00  0.00    +0.000 A 
ATOM      7  C   UNL     1       1.154   8.587  20.857  0.00  0.00    +0.000 A 
ATOM      8  C   UNL     1       0.505   9.784  20.608  0.00  0.00    +0.000 A 
ATOM      9  C   UNL     1      -0.281  10.644  21.452  0.00  0.00    +0.000 C 
ATOM     10  O   UNL     1      -0.429  10.406  22.650  0.00  0.00    +0.000 OA
ATOM     11  N   UNL     1      -0.783  11.811  20.825  0.00  0.00    +0.000 N 
ENDROOT
BRANCH  11  12
ATOM     12  C   UNL     1      -1.651  12.647  21.617  0.00  0.00    +0.000 A 
ATOM     13  C   UNL     1      -2.983  12.259  21.839  0.00  0.00    +0.000 A 
ATOM     14  C   UNL     1      -3.840  13.043  22.624  0.00  0.00    +0.000 A 
ATOM     15  C   UNL     1      -3.378  14.221  23.212  0.00  0.00    +0.000 A 
ATOM     16  C   UNL     1      -4.249  15.078  24.084  0.00  0.00    +0.000 C 
ATOM     17  C   UNL     1      -2.047  14.597  23.009  0.00  0.00    +0.000 A 
ATOM     18  C   UNL     1      -1.174  13.825  22.227  0.00  0.00    +0.000 A 
ATOM     19  C   UNL     1       0.261  14.272  22.152  0.00  0.00    +0.000 C 
ENDBRANCH  11  12
BRANCH   6  20
ATOM     20  C   UNL     1       2.446   6.952  19.260  0.00  0.00    +0.000 A 
ATOM     21  C   UNL     1       3.199   6.887  18.072  0.00  0.00    +0.000 A 
ATOM     22  C   UNL     1       3.784   5.692  17.649  0.00  0.00    +0.000 A 
ATOM     23  C   UNL     1       3.635   4.539  18.414  0.00  0.00    +0.000 A 
ATOM     24  C   UNL     1       2.912   4.590  19.606  0.00  0.00    +0.000 A 
ATOM     25  C   UNL     1       2.324   5.788  20.030  0.00  0.00    +0.000 A 
ENDBRANCH   6  20
BRANCH   1  27
ATOM     26  N   UNL     1      -3.248  12.222  18.502  0.00  0.00    +0.000 N 
ATOM     27  C   UNL     1      -2.233  11.334  18.798  0.00  0.00    +0.000 C 
ATOM     28  O   UNL     1      -2.353  10.125  18.589  0.00  0.00    +0.000 OA
ATOM     29  H   UNL     1      -3.217  13.179  18.819  0.00  0.00    +0.000 HD
BRANCH  26  30
ATOM     30  C   UNL     1      -4.491  11.832  17.862  0.00  0.00    +0.000 C 
BRANCH  30  36
ATOM     31  C   UNL     1      -6.073  12.629  19.724  0.00  0.00    +0.000 A 
ATOM     32  C   UNL     1      -7.068  12.330  20.668  0.00  0.00    +0.000 A 
ATOM     33  C   UNL     1      -7.628  11.055  20.735  0.00  0.00    +0.000 A 
ATOM     34  C   UNL     1      -7.205  10.065  19.856  0.00  0.00    +0.000 A 
ATOM     35  C   UNL     1      -6.202  10.345  18.928  0.00  0.00    +0.000 A 
ATOM     36  C   UNL     1      -5.605  11.618  18.862  0.00  0.00    +0.000 A 
BRANCH  31  38
ATOM     37  C   UNL     1      -6.095  14.909  20.378  0.00  0.00    +0.000 C 
ATOM     38  O   UNL     1      -5.489  13.868  19.613  0.00  0.00    +0.000 OA
ENDBRANCH  31  38
ENDBRANCH  30  36
ENDBRANCH  26  30
ENDBRANCH   1  27
TORSDOF 6
ENDMDL
MODEL 4
REMARK VINA RESULT:      -8.5      0.764      1.065
REMARK  Name = 
REMARK  10 active torsions:
REMARK  status: ('A' for Active; 'I' for Inactive)
REMARK    1  A    between atoms: C_1  and  O_2
REMARK    2  A    between atoms: O_2  and  C_3
REMARK    3  A    between atoms: C_8  and  C_9
REMARK    4  A    between atoms: C_9  and  N_10
REMARK    5  A    between atoms: C_11  and  C_13
REMARK    6  A    between atoms: C_13  and  C_14
REMARK    7  A    between atoms: C_18  and  C_19
REMARK    8  A    between atoms: N_29  and  C_30
REMARK    9  A    between atoms: C_33  and  C_34
REMARK   10  A    between atoms: C_36  and  C_37
REMARK                            x       y       z     vdW  Elec       q    Type
REMARK                         _______ _______ _______ _____ _____    ______ ____
ROOT
ATOM      1  C   UNL     1      -0.648  11.958  19.513  0.00  0.00    +0.000 C 
ATOM      2  C   UNL     1      -0.418  13.403  19.018  0.00  0.00    +0.000 C 
ATOM      3  C   UNL     1       0.332  11.098  18.676  0.00  0.00    +0.000 C 
ATOM      4  N   UNL     1       0.884   9.987  19.405  0.00  0.00    +0.000 N 
ATOM      5  N   UNL     1       1.605   9.069  18.755  0.00  0.00    +0.000 NA
ATOM      6  C   UNL     1       1.858   8.128  19.679  0.00  0.00    +0.000 A 
ATOM      7  C   UNL     1       1.390   8.569  20.954  0.00  0.00    +0.000 A 
ATOM      8  C   UNL     1       0.766   9.785  20.733  0.00  0.00    +0.000 A 
ATOM      9  C   UNL     1       0.089  10.693  21.620  0.00  0.00    +0.000 C 
ATOM     10  O   UNL     1       0.039  10.487  22.832  0.00  0.00    +0.000 OA
ATOM     11  N   UNL     1      -0.422  11.865  21.010  0.00  0.00    +0.000 N 
ENDROOT
BRANCH  11  12
ATOM     12  C   UNL     1      -1.186  12.751  21.853  0.00  0.00    +0.000 A 
ATOM     13  C   UNL     1      -2.467  12.371  22.288  0.00  0.00    +0.000 A 
ATOM     14  C   UNL     1      -3.220  13.205  23.127  0.00  0.00    +0.000 A 
ATOM     15  C   UNL     1      -2.701  14.427  23.557  0.00  0.00    +0.000 A 
ATOM     16  C   UNL     1      -3.456  15.340  24.479  0.00  0.00    +0.000 C 
ATOM     17  C   UNL     1      -1.418  14.796  23.143  0.00  0.00    +0.000 A 
ATOM     18  C   UNL     1      -0.649  13.975  22.304  0.00  0.00    +0.000 A 
ATOM     19  C   UNL     1       0.754  14.425  21.996  0.00  0.00    +0.000 C 
ENDBRANCH  11  12
BRANCH   6  20
ATOM     20  C   UNL     1       2.475   6.851  19.292  0.00  0.00    +0.000 A 
ATOM     21  C   UNL     1       3.174   6.749  18.074  0.00  0.00    +0.000 A 
ATOM     22  C   UNL     1       3.678   5.526  17.627  0.00  0.00    +0.000 A 
ATOM     23  C   UNL     1       3.502   4.382  18.399  0.00  0.00    +0.000 A 
ATOM     24  C   UNL     1       2.833   4.467  19.620  0.00  0.00    +0.000 A 
ATOM     25  C   UNL     1       2.325   5.693  20.067  0.00  0.00    +0.000 A 
ENDBRANCH   6  20
BRANCH   1  27
ATOM     26  N   UNL     1      -3.078  12.318  18.953  0.00  0.00    +0.000 N 
ATOM     27  C   UNL     1      -2.061  11.400  19.130  0.00  0.00    +0.000 C 
ATOM     28  O   UNL     1      -2.234  10.199  18.918  0.00  0.00    +0.000 OA
ATOM     29  H   UNL     1      -2.990  13.268  19.278  0.00  0.00    +0.000 HD
BRANCH  26  30
ATOM     30  C   UNL     1      -4.391  11.969  18.440  0.00  0.00    +0.000 C 
BRANCH  30  36
ATOM     31  C   UNL     1      -6.497  11.236  19.718  0.00  0.00    +0.000 A 
ATOM     32  C   UNL     1      -7.507  11.536  20.645  0.00  0.00    +0.000 A 
ATOM     33  C   UNL     1      -7.493  12.737  21.354  0.00  0.00    +0.000 A 
ATOM     34  C   UNL     1      -6.466  13.650  21.148  0.00  0.00    +0.000 A 
ATOM     35  C   UNL     1      -5.469  13.373  20.214  0.00  0.00    +0.000 A 
ATOM     36  C   UNL     1      -5.480  12.178  19.469  0.00  0.00    +0.000 A 
BRANCH  31  38
ATOM     37  C   UNL     1      -7.045   8.931  19.628  0.00  0.00    +0.000 C 
ATOM     38  O   UNL     1      -6.461  10.068  18.996  0.00  0.00    +0.000 OA
ENDBRANCH  31  38
ENDBRANCH  30  36
ENDBRANCH  26  30
ENDBRANCH   1  27
TORSDOF 6
ENDMDL
MODEL 5
REMARK VINA RESULT:      -8.4      1.684      2.192
REMARK  Name = 
REMARK  10 active torsions:
REMARK  status: ('A' for Active; 'I' for Inactive)
REMARK    1  A    between atoms: C_1  and  O_2
REMARK    2  A    between atoms: O_2  and  C_3
REMARK    3  A    between atoms: C_8  and  C_9
REMARK    4  A    between atoms: C_9  and  N_10
REMARK    5  A    between atoms: C_11  and  C_13
REMARK    6  A    between atoms: C_13  and  C_14
REMARK    7  A    between atoms: C_18  and  C_19
REMARK    8  A    between atoms: N_29  and  C_30
REMARK    9  A    between atoms: C_33  and  C_34
REMARK   10  A    between atoms: C_36  and  C_37
REMARK                            x       y       z     vdW  Elec       q    Type
REMARK                         _______ _______ _______ _____ _____    ______ ____
ROOT
ATOM      1  C   UNL     1      -0.764  11.764  18.861  0.00  0.00    +0.000 C 
ATOM      2  C   UNL     1      -0.452  13.155  18.265  0.00  0.00    +0.000 C 
ATOM      3  C   UNL     1       0.342  10.840  18.293  0.00  0.00    +0.000 C 
ATOM      4  N   UNL     1       0.761   9.818  19.216  0.00  0.00    +0.000 N 
ATOM      5  N   UNL     1       1.581   8.850  18.795  0.00  0.00    +0.000 NA
ATOM      6  C   UNL     1       1.673   8.012  19.841  0.00  0.00    +0.000 A 
ATOM      7  C   UNL     1       0.996   8.574  20.966  0.00  0.00    +0.000 A 
ATOM      8  C   UNL     1       0.420   9.750  20.519  0.00  0.00    +0.000 A 
ATOM      9  C   UNL     1      -0.396  10.733  21.180  0.00  0.00    +0.000 C 
ATOM     10  O   UNL     1      -0.652  10.651  22.381  0.00  0.00    +0.000 OA
ATOM     11  N   UNL     1      -0.796  11.828  20.376  0.00  0.00    +0.000 N 
ENDROOT
BRANCH  11  12
ATOM     12  C   UNL     1      -1.690  12.782  20.982  0.00  0.00    +0.000 A 
ATOM     13  C   UNL     1      -3.075  12.542  20.981  0.00  0.00    +0.000 A 
ATOM     14  C   UNL     1      -3.963  13.443  21.585  0.00  0.00    +0.000 A 
ATOM     15  C   UNL     1      -3.483  14.595  22.210  0.00  0.00    +0.000 A 
ATOM     16  C   UNL     1      -4.391  15.574  22.895  0.00  0.00    +0.000 C 
ATOM     17  C   UNL     1      -2.104  14.824  22.229  0.00  0.00    +0.000 A 
ATOM     18  C   UNL     1      -1.199  13.933  21.632  0.00  0.00    +0.000 A 
ATOM     19  C   UNL     1       0.268  14.229  21.793  0.00  0.00    +0.000 C 
ENDBRANCH  11  12
BRANCH   6  20
ATOM     20  C   UNL     1       2.345   6.713  19.697  0.00  0.00    +0.000 A 
ATOM     21  C   UNL     1       3.173   6.469  18.584  0.00  0.00    +0.000 A 
ATOM     22  C   UNL     1       3.739   5.212  18.363  0.00  0.00    +0.000 A 
ATOM     23  C   UNL     1       3.495   4.176  19.259  0.00  0.00    +0.000 A 
ATOM     24  C   UNL     1       2.698   4.405  20.380  0.00  0.00    +0.000 A 
ATOM     25  C   UNL     1       2.129   5.665  20.601  0.00  0.00    +0.000 A 
ENDBRANCH   6  20
BRANCH   1  27
ATOM     26  N   UNL     1      -2.989  12.010  17.704  0.00  0.00    +0.000 N 
ATOM     27  C   UNL     1      -2.093  11.147  18.303  0.00  0.00    +0.000 C 
ATOM     28  O   UNL     1      -2.288   9.931  18.331  0.00  0.00    +0.000 OA
ATOM     29  H   UNL     1      -2.915  13.009  17.821  0.00  0.00    +0.000 HD
BRANCH  26  30
ATOM     30  C   UNL     1      -4.179  11.566  17.000  0.00  0.00    +0.000 C 
BRANCH  30  36
ATOM     31  C   UNL     1      -6.364  12.729  17.691  0.00  0.00    +0.000 A 
ATOM     32  C   UNL     1      -7.461  12.809  18.564  0.00  0.00    +0.000 A 
ATOM     33  C   UNL     1      -7.654  11.851  19.559  0.00  0.00    +0.000 A 
ATOM     34  C   UNL     1      -6.757  10.799  19.690  0.00  0.00    +0.000 A 
ATOM     35  C   UNL     1      -5.652  10.720  18.843  0.00  0.00    +0.000 A 
ATOM     36  C   UNL     1      -5.425  11.692  17.849  0.00  0.00    +0.000 A 
BRANCH  31  38
ATOM     37  C   UNL     1      -7.143  14.626  16.501  0.00  0.00    +0.000 C 
ATOM     38  O   UNL     1      -6.128  13.642  16.693  0.00  0.00    +0.000 OA
ENDBRANCH  31  38
ENDBRANCH  30  36
ENDBRANCH  26  30
ENDBRANCH   1  27
TORSDOF 6
ENDMDL
MODEL 6
REMARK VINA RESULT:      -8.2      0.818      1.001
REMARK  Name = 
REMARK  10 active torsions:
REMARK  status: ('A' for Active; 'I' for Inactive)
REMARK    1  A    between atoms: C_1  and  O_2
REMARK    2  A    between atoms: O_2  and  C_3
REMARK    3  A    between atoms: C_8  and  C_9
REMARK    4  A    between atoms: C_9  and  N_10
REMARK    5  A    between atoms: C_11  and  C_13
REMARK    6  A    between atoms: C_13  and  C_14
REMARK    7  A    between atoms: C_18  and  C_19
REMARK    8  A    between atoms: N_29  and  C_30
REMARK    9  A    between atoms: C_33  and  C_34
REMARK   10  A    between atoms: C_36  and  C_37
REMARK                            x       y       z     vdW  Elec       q    Type
REMARK                         _______ _______ _______ _____ _____    ______ ____
ROOT
ATOM      1  C   UNL     1      -0.401  11.770  19.201  0.00  0.00    +0.000 C 
ATOM      2  C   UNL     1      -0.245  13.260  18.823  0.00  0.00    +0.000 C 
ATOM      3  C   UNL     1       0.482  11.014  18.177  0.00  0.00    +0.000 C 
ATOM      4  N   UNL     1       1.126   9.851  18.727  0.00  0.00    +0.000 N 
ATOM      5  N   UNL     1       1.775   9.013  17.912  0.00  0.00    +0.000 NA
ATOM      6  C   UNL     1       2.144   7.995  18.707  0.00  0.00    +0.000 A 
ATOM      7  C   UNL     1       1.825   8.305  20.064  0.00  0.00    +0.000 A 
ATOM      8  C   UNL     1       1.167   9.522  20.034  0.00  0.00    +0.000 A 
ATOM      9  C   UNL     1       0.591  10.329  21.076  0.00  0.00    +0.000 C 
ATOM     10  O   UNL     1       0.685  10.009  22.261  0.00  0.00    +0.000 OA
ATOM     11  N   UNL     1      -0.000  11.542  20.646  0.00  0.00    +0.000 N 
ENDROOT
BRANCH  11  12
ATOM     12  C   UNL     1      -0.668  12.329  21.653  0.00  0.00    +0.000 A 
ATOM     13  C   UNL     1      -1.827  11.832  22.273  0.00  0.00    +0.000 A 
ATOM     14  C   UNL     1      -2.481  12.568  23.271  0.00  0.00    +0.000 A 
ATOM     15  C   UNL     1      -1.983  13.807  23.676  0.00  0.00    +0.000 A 
ATOM     16  C   UNL     1      -2.631  14.617  24.761  0.00  0.00    +0.000 C 
ATOM     17  C   UNL     1      -0.818  14.291  23.075  0.00  0.00    +0.000 A 
ATOM     18  C   UNL     1      -0.148  13.570  22.074  0.00  0.00    +0.000 A 
ATOM     19  C   UNL     1       1.147  14.140  21.562  0.00  0.00    +0.000 C 
ENDBRANCH  11  12
BRANCH   6  20
ATOM     20  C   UNL     1       2.724   6.773  18.130  0.00  0.00    +0.000 A 
ATOM     21  C   UNL     1       2.013   5.560  18.196  0.00  0.00    +0.000 A 
ATOM     22  C   UNL     1       2.580   4.362  17.755  0.00  0.00    +0.000 A 
ATOM     23  C   UNL     1       3.868   4.360  17.229  0.00  0.00    +0.000 A 
ATOM     24  C   UNL     1       4.579   5.556  17.134  0.00  0.00    +0.000 A 
ATOM     25  C   UNL     1       4.011   6.756  17.577  0.00  0.00    +0.000 A 
ENDBRANCH   6  20
BRANCH   1  27
ATOM     26  N   UNL     1      -2.866  12.147  18.835  0.00  0.00    +0.000 N 
ATOM     27  C   UNL     1      -1.844  11.222  18.932  0.00  0.00    +0.000 C 
ATOM     28  O   UNL     1      -2.041  10.022  18.737  0.00  0.00    +0.000 OA
ATOM     29  H   UNL     1      -2.745  13.097  19.149  0.00  0.00    +0.000 HD
BRANCH  26  30
ATOM     30  C   UNL     1      -4.217  11.806  18.428  0.00  0.00    +0.000 C 
BRANCH  30  36
ATOM     31  C   UNL     1      -6.616  12.475  19.064  0.00  0.00    +0.000 A 
ATOM     32  C   UNL     1      -7.501  13.035  19.999  0.00  0.00    +0.000 A 
ATOM     33  C   UNL     1      -7.058  13.417  21.264  0.00  0.00    +0.000 A 
ATOM     34  C   UNL     1      -5.725  13.238  21.613  0.00  0.00    +0.000 A 
ATOM     35  C   UNL     1      -4.831  12.703  20.686  0.00  0.00    +0.000 A 
ATOM     36  C   UNL     1      -5.254  12.336  19.394  0.00  0.00    +0.000 A 
BRANCH  31  38
ATOM     37  C   UNL     1      -7.079  13.117  16.829  0.00  0.00    +0.000 C 
ATOM     38  O   UNL     1      -7.000  12.080  17.806  0.00  0.00    +0.000 OA
ENDBRANCH  31  38
ENDBRANCH  30  36
ENDBRANCH  26  30
ENDBRANCH   1  27
TORSDOF 6
ENDMDL
MODEL 7
REMARK VINA RESULT:      -8.2      1.192      1.655
REMARK  Name = 
REMARK  10 active torsions:
REMARK  status: ('A' for Active; 'I' for Inactive)
REMARK    1  A    between atoms: C_1  and  O_2
REMARK    2  A    between atoms: O_2  and  C_3
REMARK    3  A    between atoms: C_8  and  C_9
REMARK    4  A    between atoms: C_9  and  N_10
REMARK    5  A    between atoms: C_11  and  C_13
REMARK    6  A    between atoms: C_13  and  C_14
REMARK    7  A    between atoms: C_18  and  C_19
REMARK    8  A    between atoms: N_29  and  C_30
REMARK    9  A    between atoms: C_33  and  C_34
REMARK   10  A    between atoms: C_36  and  C_37
REMARK                            x       y       z     vdW  Elec       q    Type
REMARK                         _______ _______ _______ _____ _____    ______ ____
ROOT
ATOM      1  C   UNL     1      -0.588  11.890  19.319  0.00  0.00    +0.000 C 
ATOM      2  C   UNL     1      -0.413  13.373  18.921  0.00  0.00    +0.000 C 
ATOM      3  C   UNL     1       0.398  11.122  18.405  0.00  0.00    +0.000 C 
ATOM      4  N   UNL     1       0.999   9.981  19.044  0.00  0.00    +0.000 N 
ATOM      5  N   UNL     1       1.733   9.133  18.317  0.00  0.00    +0.000 NA
ATOM      6  C   UNL     1       2.034   8.139  19.170  0.00  0.00    +0.000 A 
ATOM      7  C   UNL     1       1.581   8.477  20.481  0.00  0.00    +0.000 A 
ATOM      8  C   UNL     1       0.916   9.684  20.357  0.00  0.00    +0.000 A 
ATOM      9  C   UNL     1       0.232  10.508  21.317  0.00  0.00    +0.000 C 
ATOM     10  O   UNL     1       0.214  10.218  22.513  0.00  0.00    +0.000 OA
ATOM     11  N   UNL     1      -0.328  11.702  20.801  0.00  0.00    +0.000 N 
ENDROOT
BRANCH  11  12
ATOM     12  C   UNL     1      -1.099  12.504  21.718  0.00  0.00    +0.000 A 
ATOM     13  C   UNL     1      -2.348  12.044  22.169  0.00  0.00    +0.000 A 
ATOM     14  C   UNL     1      -3.107  12.794  23.079  0.00  0.00    +0.000 A 
ATOM     15  C   UNL     1      -2.626  14.010  23.564  0.00  0.00    +0.000 A 
ATOM     16  C   UNL     1      -3.387  14.834  24.561  0.00  0.00    +0.000 C 
ATOM     17  C   UNL     1      -1.374  14.458  23.133  0.00  0.00    +0.000 A 
ATOM     18  C   UNL     1      -0.599  13.721  22.223  0.00  0.00    +0.000 A 
ATOM     19  C   UNL     1       0.772  14.250  21.900  0.00  0.00    +0.000 C 
ENDBRANCH  11  12
BRANCH   6  20
ATOM     20  C   UNL     1       2.681   6.912  18.683  0.00  0.00    +0.000 A 
ATOM     21  C   UNL     1       3.691   6.991  17.704  0.00  0.00    +0.000 A 
ATOM     22  C   UNL     1       4.248   5.840  17.144  0.00  0.00    +0.000 A 
ATOM     23  C   UNL     1       3.813   4.586  17.561  0.00  0.00    +0.000 A 
ATOM     24  C   UNL     1       2.831   4.488  18.547  0.00  0.00    +0.000 A 
ATOM     25  C   UNL     1       2.270   5.642  19.107  0.00  0.00    +0.000 A 
ENDBRANCH   6  20
BRANCH   1  27
ATOM     26  N   UNL     1      -2.993  12.226  18.644  0.00  0.00    +0.000 N 
ATOM     27  C   UNL     1      -1.993  11.316  18.925  0.00  0.00    +0.000 C 
ATOM     28  O   UNL     1      -2.169  10.104  18.796  0.00  0.00    +0.000 OA
ATOM     29  H   UNL     1      -2.907  13.197  18.901  0.00  0.00    +0.000 HD
BRANCH  26  30
ATOM     30  C   UNL     1      -4.289  11.850  18.109  0.00  0.00    +0.000 C 
BRANCH  30  36
ATOM     31  C   UNL     1      -6.459  13.208  18.341  0.00  0.00    +0.000 A 
ATOM     32  C   UNL     1      -7.445  13.769  19.168  0.00  0.00    +0.000 A 
ATOM     33  C   UNL     1      -7.443  13.535  20.543  0.00  0.00    +0.000 A 
ATOM     34  C   UNL     1      -6.457  12.735  21.107  0.00  0.00    +0.000 A 
ATOM     35  C   UNL     1      -5.459  12.190  20.299  0.00  0.00    +0.000 A 
ATOM     36  C   UNL     1      -5.429  12.435  18.913  0.00  0.00    +0.000 A 
BRANCH  31  38
ATOM     37  C   UNL     1      -6.941  14.647  16.519  0.00  0.00    +0.000 C 
ATOM     38  O   UNL     1      -6.416  13.403  16.982  0.00  0.00    +0.000 OA
ENDBRANCH  31  38
ENDBRANCH  30  36
ENDBRANCH  26  30
ENDBRANCH   1  27
TORSDOF 6
ENDMDL
MODEL 8
REMARK VINA RESULT:      -8.1      1.236      1.635
REMARK  Name = 
REMARK  10 active torsions:
REMARK  status: ('A' for Active; 'I' for Inactive)
REMARK    1  A    between atoms: C_1  and  O_2
REMARK    2  A    between atoms: O_2  and  C_3
REMARK    3  A    between atoms: C_8  and  C_9
REMARK    4  A    between atoms: C_9  and  N_10
REMARK    5  A    between atoms: C_11  and  C_13
REMARK    6  A    between atoms: C_13  and  C_14
REMARK    7  A    between atoms: C_18  and  C_19
REMARK    8  A    between atoms: N_29  and  C_30
REMARK    9  A    between atoms: C_33  and  C_34
REMARK   10  A    between atoms: C_36  and  C_37
REMARK                            x       y       z     vdW  Elec       q    Type
REMARK                         _______ _______ _______ _____ _____    ______ ____
ROOT
ATOM      1  C   UNL     1      -0.687  11.745  19.153  0.00  0.00    +0.000 C 
ATOM      2  C   UNL     1      -0.653  13.233  18.740  0.00  0.00    +0.000 C 
ATOM      3  C   UNL     1       0.219  11.033  18.119  0.00  0.00    +0.000 C 
ATOM      4  N   UNL     1       0.964   9.933  18.673  0.00  0.00    +0.000 N 
ATOM      5  N   UNL     1       1.649   9.126  17.857  0.00  0.00    +0.000 NA
ATOM      6  C   UNL     1       2.115   8.157  18.661  0.00  0.00    +0.000 A 
ATOM      7  C   UNL     1       1.813   8.473  20.020  0.00  0.00    +0.000 A 
ATOM      8  C   UNL     1       1.067   9.638  19.986  0.00  0.00    +0.000 A 
ATOM      9  C   UNL     1       0.462  10.424  21.028  0.00  0.00    +0.000 C 
ATOM     10  O   UNL     1       0.614  10.140  22.215  0.00  0.00    +0.000 OA
ATOM     11  N   UNL     1      -0.229  11.580  20.590  0.00  0.00    +0.000 N 
ENDROOT
BRANCH  11  12
ATOM     12  C   UNL     1      -0.924  12.339  21.600  0.00  0.00    +0.000 A 
ATOM     13  C   UNL     1      -2.125  11.848  22.140  0.00  0.00    +0.000 A 
ATOM     14  C   UNL     1      -2.807  12.556  23.140  0.00  0.00    +0.000 A 
ATOM     15  C   UNL     1      -2.296  13.759  23.627  0.00  0.00    +0.000 A 
ATOM     16  C   UNL     1      -2.974  14.537  24.716  0.00  0.00    +0.000 C 
ATOM     17  C   UNL     1      -1.091  14.237  23.105  0.00  0.00    +0.000 A 
ATOM     18  C   UNL     1      -0.393  13.543  22.104  0.00  0.00    +0.000 A 
ATOM     19  C   UNL     1       0.941  14.099  21.682  0.00  0.00    +0.000 C 
ENDBRANCH  11  12
BRANCH   6  20
ATOM     20  C   UNL     1       2.767   6.967  18.093  0.00  0.00    +0.000 A 
ATOM     21  C   UNL     1       2.168   5.702  18.237  0.00  0.00    +0.000 A 
ATOM     22  C   UNL     1       2.812   4.541  17.804  0.00  0.00    +0.000 A 
ATOM     23  C   UNL     1       4.066   4.628  17.207  0.00  0.00    +0.000 A 
ATOM     24  C   UNL     1       4.665   5.875  17.034  0.00  0.00    +0.000 A 
ATOM     25  C   UNL     1       4.020   7.039  17.470  0.00  0.00    +0.000 A 
ENDBRANCH   6  20
BRANCH   1  27
ATOM     26  N   UNL     1      -3.184  11.930  18.868  0.00  0.00    +0.000 N 
ATOM     27  C   UNL     1      -2.093  11.086  18.940  0.00  0.00    +0.000 C 
ATOM     28  O   UNL     1      -2.205   9.872  18.765  0.00  0.00    +0.000 OA
ATOM     29  H   UNL     1      -3.125  12.891  19.168  0.00  0.00    +0.000 HD
BRANCH  26  30
ATOM     30  C   UNL     1      -4.519  11.484  18.512  0.00  0.00    +0.000 C 
BRANCH  30  36
ATOM     31  C   UNL     1      -5.867  13.471  19.430  0.00  0.00    +0.000 A 
ATOM     32  C   UNL     1      -6.819  14.480  19.217  0.00  0.00    +0.000 A 
ATOM     33  C   UNL     1      -7.360  14.696  17.950  0.00  0.00    +0.000 A 
ATOM     34  C   UNL     1      -6.952  13.909  16.880  0.00  0.00    +0.000 A 
ATOM     35  C   UNL     1      -6.023  12.889  17.083  0.00  0.00    +0.000 A 
ATOM     36  C   UNL     1      -5.485  12.638  18.360  0.00  0.00    +0.000 A 
BRANCH  31  38
ATOM     37  C   UNL     1      -6.160  12.615  21.622  0.00  0.00    +0.000 C 
ATOM     38  O   UNL     1      -5.300  13.217  20.655  0.00  0.00    +0.000 OA
ENDBRANCH  31  38
ENDBRANCH  30  36
ENDBRANCH  26  30
ENDBRANCH   1  27
TORSDOF 6
ENDMDL
MODEL 9
REMARK VINA RESULT:      -8.1      1.649      1.853
REMARK  Name = 
REMARK  10 active torsions:
REMARK  status: ('A' for Active; 'I' for Inactive)
REMARK    1  A    between atoms: C_1  and  O_2
REMARK    2  A    between atoms: O_2  and  C_3
REMARK    3  A    between atoms: C_8  and  C_9
REMARK    4  A    between atoms: C_9  and  N_10
REMARK    5  A    between atoms: C_11  and  C_13
REMARK    6  A    between atoms: C_13  and  C_14
REMARK    7  A    between atoms: C_18  and  C_19
REMARK    8  A    between atoms: N_29  and  C_30
REMARK    9  A    between atoms: C_33  and  C_34
REMARK   10  A    between atoms: C_36  and  C_37
REMARK                            x       y       z     vdW  Elec       q    Type
REMARK                         _______ _______ _______ _____ _____    ______ ____
ROOT
ATOM      1  C   UNL     1      -0.877  11.732  18.829  0.00  0.00    +0.000 C 
ATOM      2  C   UNL     1      -0.566  13.118  18.222  0.00  0.00    +0.000 C 
ATOM      3  C   UNL     1       0.248  10.811  18.295  0.00  0.00    +0.000 C 
ATOM      4  N   UNL     1       0.657   9.804  19.239  0.00  0.00    +0.000 N 
ATOM      5  N   UNL     1       1.493   8.838  18.846  0.00  0.00    +0.000 NA
ATOM      6  C   UNL     1       1.572   8.015  19.905  0.00  0.00    +0.000 A 
ATOM      7  C   UNL     1       0.869   8.585  21.009  0.00  0.00    +0.000 A 
ATOM      8  C   UNL     1       0.292   9.750  20.536  0.00  0.00    +0.000 A 
ATOM      9  C   UNL     1      -0.545  10.734  21.168  0.00  0.00    +0.000 C 
ATOM     10  O   UNL     1      -0.823  10.666  22.365  0.00  0.00    +0.000 OA
ATOM     11  N   UNL     1      -0.938  11.816  20.342  0.00  0.00    +0.000 N 
ENDROOT
BRANCH  11  12
ATOM     12  C   UNL     1      -1.853  12.770  20.919  0.00  0.00    +0.000 A 
ATOM     13  C   UNL     1      -3.236  12.527  20.877  0.00  0.00    +0.000 A 
ATOM     14  C   UNL     1      -4.143  13.429  21.451  0.00  0.00    +0.000 A 
ATOM     15  C   UNL     1      -3.685  14.582  22.088  0.00  0.00    +0.000 A 
ATOM     16  C   UNL     1      -4.615  15.561  22.743  0.00  0.00    +0.000 C 
ATOM     17  C   UNL     1      -2.308  14.814  22.148  0.00  0.00    +0.000 A 
ATOM     18  C   UNL     1      -1.384  13.924  21.580  0.00  0.00    +0.000 A 
ATOM     19  C   UNL     1       0.077  14.222  21.785  0.00  0.00    +0.000 C 
ENDBRANCH  11  12
BRANCH   6  20
ATOM     20  C   UNL     1       2.258   6.720  19.791  0.00  0.00    +0.000 A 
ATOM     21  C   UNL     1       1.859   5.640  20.602  0.00  0.00    +0.000 A 
ATOM     22  C   UNL     1       2.559   4.431  20.595  0.00  0.00    +0.000 A 
ATOM     23  C   UNL     1       3.665   4.277  19.766  0.00  0.00    +0.000 A 
ATOM     24  C   UNL     1       4.061   5.327  18.938  0.00  0.00    +0.000 A 
ATOM     25  C   UNL     1       3.361   6.540  18.946  0.00  0.00    +0.000 A 
ENDBRANCH   6  20
BRANCH   1  27
ATOM     26  N   UNL     1      -3.067  11.939  17.599  0.00  0.00    +0.000 N 
ATOM     27  C   UNL     1      -2.190  11.097  18.255  0.00  0.00    +0.000 C 
ATOM     28  O   UNL     1      -2.388   9.883  18.319  0.00  0.00    +0.000 OA
ATOM     29  H   UNL     1      -2.995  12.941  17.683  0.00  0.00    +0.000 HD
BRANCH  26  30
ATOM     30  C   UNL     1      -4.236  11.470  16.876  0.00  0.00    +0.000 C 
BRANCH  30  36
ATOM     31  C   UNL     1      -6.336  11.456  18.358  0.00  0.00    +0.000 A 
ATOM     32  C   UNL     1      -7.540  12.065  18.744  0.00  0.00    +0.000 A 
ATOM     33  C   UNL     1      -7.914  13.303  18.224  0.00  0.00    +0.000 A 
ATOM     34  C   UNL     1      -7.085  13.951  17.316  0.00  0.00    +0.000 A 
ATOM     35  C   UNL     1      -5.897  13.346  16.908  0.00  0.00    +0.000 A 
ATOM     36  C   UNL     1      -5.515  12.084  17.401  0.00  0.00    +0.000 A 
BRANCH  31  38
ATOM     37  C   UNL     1      -6.917   9.459  19.497  0.00  0.00    +0.000 C 
ATOM     38  O   UNL     1      -5.919  10.239  18.840  0.00  0.00    +0.000 OA
ENDBRANCH  31  38
ENDBRANCH  30  36
ENDBRANCH  26  30
ENDBRANCH   1  27
TORSDOF 6
ENDMDL
