MODEL 1
REMARK VINA RESULT:      -7.5      0.000      0.000
REMARK  Name = 
REMARK  4 active torsions:
REMARK  status: ('A' for Active; 'I' for Inactive)
REMARK    1  A    between atoms: C_1  and  C_2
REMARK    2  A    between atoms: C_2  and  C_3
REMARK    3  A    between atoms: C_9  and  C_10
REMARK    4  A    between atoms: C_16  and  C_17
REMARK                            x       y       z     vdW  Elec       q    Type
REMARK                         _______ _______ _______ _____ _____    ______ ____
ROOT
ATOM      1  C   UNL     1      -0.275  10.294  20.522  0.00  0.00    +0.000 C 
ATOM      2  O   UNL     1      -0.490  10.405  19.320  0.00  0.00    +0.000 OA
ATOM      3  N   UNL     1       0.618   9.402  21.080  0.00  0.00    +0.000 N 
ATOM      4  C   UNL     1       1.339   8.481  20.313  0.00  0.00    +0.000 A 
ATOM      5  C   UNL     1       1.927   8.795  19.095  0.00  0.00    +0.000 A 
ATOM      6  N   UNL     1       2.642   7.888  18.373  0.00  0.00    +0.000 NA
ATOM      7  C   UNL     1       2.686   6.615  18.857  0.00  0.00    +0.000 A 
ATOM      8  C   UNL     1       2.020   6.300  20.060  0.00  0.00    +0.000 A 
ATOM      9  N   UNL     1       1.423   7.249  20.843  0.00  0.00    +0.000 NA
ATOM     10  H   UNL     1       0.439   9.083  22.022  0.00  0.00    +0.000 HD
ENDROOT
BRANCH   7  11
ATOM     11  C   UNL     1       3.484   5.674  18.031  0.00  0.00    +0.000 A 
ATOM     12  C   UNL     1       2.989   4.436  17.589  0.00  0.00    +0.000 A 
ATOM     13  C   UNL     1       3.759   3.645  16.751  0.00  0.00    +0.000 A 
ATOM     14  N   UNL     1       5.011   3.960  16.368  0.00  0.00    +0.000 NA
ATOM     15  C   UNL     1       5.509   5.116  16.847  0.00  0.00    +0.000 A 
ATOM     16  C   UNL     1       4.800   5.987  17.662  0.00  0.00    +0.000 A 
ENDBRANCH   7  11
BRANCH   8  17
ATOM     17  C   UNL     1       1.786   4.952  20.555  0.00  0.00    +0.000 A 
ATOM     18  C   UNL     1       0.849   3.975  20.283  0.00  0.00    +0.000 A 
ATOM     19  C   UNL     1       1.176   2.862  21.098  0.00  0.00    +0.000 A 
ATOM     20  C   UNL     1       2.314   3.211  21.784  0.00  0.00    +0.000 A 
ATOM     21  O   UNL     1       2.705   4.462  21.443  0.00  0.00    +0.000 OA
ENDBRANCH   8  17
BRANCH   1  23
ATOM     22  C   UNL     1      -0.835  10.562  22.967  0.00  0.00    +0.000 C 
ATOM     23  C   UNL     1      -0.974  11.142  21.570  0.00  0.00    +0.000 C 
ENDBRANCH   1  23
TORSDOF 3
ENDMDL
MODEL 2
REMARK VINA RESULT:      -7.5      0.173      1.006
REMARK  Name = 
REMARK  4 active torsions:
REMARK  status: ('A' for Active; 'I' for Inactive)
REMARK    1  A    between atoms: C_1  and  C_2
REMARK    2  A    between atoms: C_2  and  C_3
REMARK    3  A    between atoms: C_9  and  C_10
REMARK    4  A    between atoms: C_16  and  C_17
REMARK                            x       y       z     vdW  Elec       q    Type
REMARK                         _______ _______ _______ _____ _____    ______ ____
ROOT
ATOM      1  C   UNL     1      -0.296  10.289  20.652  0.00  0.00    +0.000 C 
ATOM      2  O   UNL     1      -0.557  10.420  19.461  0.00  0.00    +0.000 OA
ATOM      3  N   UNL     1       0.627   9.396  21.159  0.00  0.00    +0.000 N 
ATOM      4  C   UNL     1       1.328   8.498  20.348  0.00  0.00    +0.000 A 
ATOM      5  C   UNL     1       1.867   8.842  19.115  0.00  0.00    +0.000 A 
ATOM      6  N   UNL     1       2.564   7.957  18.349  0.00  0.00    +0.000 NA
ATOM      7  C   UNL     1       2.638   6.675  18.806  0.00  0.00    +0.000 A 
ATOM      8  C   UNL     1       2.021   6.330  20.027  0.00  0.00    +0.000 A 
ATOM      9  N   UNL     1       1.444   7.258  20.850  0.00  0.00    +0.000 NA
ATOM     10  H   UNL     1       0.487   9.058  22.101  0.00  0.00    +0.000 HD
ENDROOT
BRANCH   7  11
ATOM     11  C   UNL     1       3.415   5.759  17.933  0.00  0.00    +0.000 A 
ATOM     12  C   UNL     1       4.646   6.114  17.357  0.00  0.00    +0.000 A 
ATOM     13  C   UNL     1       5.358   5.180  16.622  0.00  0.00    +0.000 A 
ATOM     14  N   UNL     1       4.912   3.936  16.361  0.00  0.00    +0.000 NA
ATOM     15  C   UNL     1       3.701   3.619  16.859  0.00  0.00    +0.000 A 
ATOM     16  C   UNL     1       2.933   4.477  17.634  0.00  0.00    +0.000 A 
ENDBRANCH   7  11
BRANCH   8  17
ATOM     17  C   UNL     1       1.820   4.970  20.504  0.00  0.00    +0.000 A 
ATOM     18  C   UNL     1       0.793   4.054  20.397  0.00  0.00    +0.000 A 
ATOM     19  C   UNL     1       1.219   2.886  21.077  0.00  0.00    +0.000 A 
ATOM     20  C   UNL     1       2.494   3.145  21.519  0.00  0.00    +0.000 A 
ATOM     21  O   UNL     1       2.875   4.392  21.155  0.00  0.00    +0.000 OA
ENDBRANCH   8  17
BRANCH   1  23
ATOM     22  C   UNL     1      -0.840  10.460  23.109  0.00  0.00    +0.000 C 
ATOM     23  C   UNL     1      -0.963  11.109  21.741  0.00  0.00    +0.000 C 
ENDBRANCH   1  23
TORSDOF 3
ENDMDL
MODEL 3
REMARK VINA RESULT:      -7.3      2.074      6.400
REMARK  Name = 
REMARK  4 active torsions:
REMARK  status: ('A' for Active; 'I' for Inactive)
REMARK    1  A    between atoms: C_1  and  C_2
REMARK    2  A    between atoms: C_2  and  C_3
REMARK    3  A    between atoms: C_9  and  C_10
REMARK    4  A    between atoms: C_16  and  C_17
REMARK                            x       y       z     vdW  Elec       q    Type
REMARK                         _______ _______ _______ _____ _____    ______ ____
ROOT
ATOM      1  C   UNL     1       6.495   5.251  15.671  0.00  0.00    +0.000 C 
ATOM      2  O   UNL     1       7.094   6.195  16.175  0.00  0.00    +0.000 OA
ATOM      3  N   UNL     1       5.164   4.959  15.891  0.00  0.00    +0.000 N 
ATOM      4  C   UNL     1       4.368   5.696  16.772  0.00  0.00    +0.000 A 
ATOM      5  C   UNL     1       4.404   7.082  16.858  0.00  0.00    +0.000 A 
ATOM      6  N   UNL     1       3.606   7.783  17.710  0.00  0.00    +0.000 NA
ATOM      7  C   UNL     1       2.819   7.056  18.552  0.00  0.00    +0.000 A 
ATOM      8  C   UNL     1       2.851   5.647  18.499  0.00  0.00    +0.000 A 
ATOM      9  N   UNL     1       3.553   4.960  17.547  0.00  0.00    +0.000 NA
ATOM     10  H   UNL     1       4.872   3.995  15.800  0.00  0.00    +0.000 HD
ENDROOT
BRANCH   7  11
ATOM     11  C   UNL     1       1.967   7.875  19.452  0.00  0.00    +0.000 A 
ATOM     12  C   UNL     1       1.742   7.545  20.798  0.00  0.00    +0.000 A 
ATOM     13  C   UNL     1       1.004   8.400  21.603  0.00  0.00    +0.000 A 
ATOM     14  N   UNL     1       0.419   9.527  21.157  0.00  0.00    +0.000 NA
ATOM     15  C   UNL     1       0.580   9.807  19.849  0.00  0.00    +0.000 A 
ATOM     16  C   UNL     1       1.329   9.030  18.977  0.00  0.00    +0.000 A 
ENDBRANCH   7  11
BRANCH   8  17
ATOM     17  C   UNL     1       2.254   4.761  19.488  0.00  0.00    +0.000 A 
ATOM     18  C   UNL     1       1.067   4.062  19.562  0.00  0.00    +0.000 A 
ATOM     19  C   UNL     1       1.085   3.361  20.794  0.00  0.00    +0.000 A 
ATOM     20  C   UNL     1       2.299   3.641  21.374  0.00  0.00    +0.000 A 
ATOM     21  O   UNL     1       3.022   4.465  20.580  0.00  0.00    +0.000 OA
ENDBRANCH   8  17
BRANCH   1  23
ATOM     22  C   UNL     1       6.226   3.849  13.591  0.00  0.00    +0.000 C 
ATOM     23  C   UNL     1       7.152   4.267  14.720  0.00  0.00    +0.000 C 
ENDBRANCH   1  23
TORSDOF 3
ENDMDL
MODEL 4
REMARK VINA RESULT:      -7.3      3.036      7.223
REMARK  Name = 
REMARK  4 active torsions:
REMARK  status: ('A' for Active; 'I' for Inactive)
REMARK    1  A    between atoms: C_1  and  C_2
REMARK    2  A    between atoms: C_2  and  C_3
REMARK    3  A    between atoms: C_9  and  C_10
REMARK    4  A    between atoms: C_16  and  C_17
REMARK                            x       y       z     vdW  Elec       q    Type
REMARK                         _______ _______ _______ _____ _____    ______ ____
ROOT
ATOM      1  C   UNL     1       6.743   4.770  14.131  0.00  0.00    +0.000 C 
ATOM      2  O   UNL     1       6.089   3.793  13.781  0.00  0.00    +0.000 OA
ATOM      3  N   UNL     1       6.612   5.405  15.350  0.00  0.00    +0.000 N 
ATOM      4  C   UNL     1       5.663   5.019  16.301  0.00  0.00    +0.000 A 
ATOM      5  C   UNL     1       5.379   3.694  16.605  0.00  0.00    +0.000 A 
ATOM      6  N   UNL     1       4.464   3.340  17.549  0.00  0.00    +0.000 NA
ATOM      7  C   UNL     1       3.761   4.351  18.132  0.00  0.00    +0.000 A 
ATOM      8  C   UNL     1       4.013   5.687  17.756  0.00  0.00    +0.000 A 
ATOM      9  N   UNL     1       5.029   6.036  16.908  0.00  0.00    +0.000 NA
ATOM     10  H   UNL     1       6.849   6.386  15.397  0.00  0.00    +0.000 HD
ENDROOT
BRANCH   7  11
ATOM     11  C   UNL     1       2.783   3.905  19.157  0.00  0.00    +0.000 A 
ATOM     12  C   UNL     1       1.465   3.533  18.844  0.00  0.00    +0.000 A 
ATOM     13  C   UNL     1       0.632   3.045  19.839  0.00  0.00    +0.000 A 
ATOM     14  N   UNL     1       0.988   2.957  21.135  0.00  0.00    +0.000 NA
ATOM     15  C   UNL     1       2.231   3.376  21.444  0.00  0.00    +0.000 A 
ATOM     16  C   UNL     1       3.144   3.846  20.511  0.00  0.00    +0.000 A 
ENDBRANCH   7  11
BRANCH   8  17
ATOM     17  C   UNL     1       3.181   6.826  18.116  0.00  0.00    +0.000 A 
ATOM     18  C   UNL     1       2.470   7.181  19.244  0.00  0.00    +0.000 A 
ATOM     19  C   UNL     1       1.872   8.436  18.968  0.00  0.00    +0.000 A 
ATOM     20  C   UNL     1       2.289   8.789  17.708  0.00  0.00    +0.000 A 
ATOM     21  O   UNL     1       3.101   7.834  17.195  0.00  0.00    +0.000 OA
ENDBRANCH   8  17
BRANCH   1  23
ATOM     22  C   UNL     1       7.578   5.135  11.779  0.00  0.00    +0.000 C 
ATOM     23  C   UNL     1       7.802   5.415  13.255  0.00  0.00    +0.000 C 
ENDBRANCH   1  23
TORSDOF 3
ENDMDL
MODEL 5
REMARK VINA RESULT:      -7.2      2.042      6.378
REMARK  Name = 
REMARK  4 active torsions:
REMARK  status: ('A' for Active; 'I' for Inactive)
REMARK    1  A    between atoms: C_1  and  C_2
REMARK    2  A    between atoms: C_2  and  C_3
REMARK    3  A    between atoms: C_9  and  C_10
REMARK    4  A    between atoms: C_16  and  C_17
REMARK                            x       y       z     vdW  Elec       q    Type
REMARK                         _______ _______ _______ _____ _____    ______ ____
ROOT
ATOM      1  C   UNL     1       6.446   5.354  15.783  0.00  0.00    +0.000 C 
ATOM      2  O   UNL     1       7.025   6.315  16.278  0.00  0.00    +0.000 OA
ATOM      3  N   UNL     1       5.120   5.040  16.003  0.00  0.00    +0.000 N 
ATOM      4  C   UNL     1       4.308   5.772  16.874  0.00  0.00    +0.000 A 
ATOM      5  C   UNL     1       4.317   7.160  16.943  0.00  0.00    +0.000 A 
ATOM      6  N   UNL     1       3.503   7.855  17.785  0.00  0.00    +0.000 NA
ATOM      7  C   UNL     1       2.728   7.124  18.634  0.00  0.00    +0.000 A 
ATOM      8  C   UNL     1       2.787   5.715  18.597  0.00  0.00    +0.000 A 
ATOM      9  N   UNL     1       3.505   5.030  17.655  0.00  0.00    +0.000 NA
ATOM     10  H   UNL     1       4.847   4.070  15.923  0.00  0.00    +0.000 HD
ENDROOT
BRANCH   7  11
ATOM     11  C   UNL     1       1.858   7.936  19.522  0.00  0.00    +0.000 A 
ATOM     12  C   UNL     1       1.206   9.103  19.091  0.00  0.00    +0.000 A 
ATOM     13  C   UNL     1       0.341   9.766  19.949  0.00  0.00    +0.000 A 
ATOM     14  N   UNL     1       0.122   9.393  21.224  0.00  0.00    +0.000 NA
ATOM     15  C   UNL     1       0.800   8.312  21.655  0.00  0.00    +0.000 A 
ATOM     16  C   UNL     1       1.658   7.567  20.859  0.00  0.00    +0.000 A 
ENDBRANCH   7  11
BRANCH   8  17
ATOM     17  C   UNL     1       2.204   4.829  19.595  0.00  0.00    +0.000 A 
ATOM     18  C   UNL     1       1.054   4.069  19.653  0.00  0.00    +0.000 A 
ATOM     19  C   UNL     1       1.067   3.409  20.907  0.00  0.00    +0.000 A 
ATOM     20  C   UNL     1       2.243   3.773  21.518  0.00  0.00    +0.000 A 
ATOM     21  O   UNL     1       2.949   4.610  20.721  0.00  0.00    +0.000 OA
ENDBRANCH   8  17
BRANCH   1  23
ATOM     22  C   UNL     1       6.213   3.934  13.712  0.00  0.00    +0.000 C 
ATOM     23  C   UNL     1       7.124   4.372  14.846  0.00  0.00    +0.000 C 
ENDBRANCH   1  23
TORSDOF 3
ENDMDL
MODEL 6
REMARK VINA RESULT:      -7.2      2.959      7.221
REMARK  Name = 
REMARK  4 active torsions:
REMARK  status: ('A' for Active; 'I' for Inactive)
REMARK    1  A    between atoms: C_1  and  C_2
REMARK    2  A    between atoms: C_2  and  C_3
REMARK    3  A    between atoms: C_9  and  C_10
REMARK    4  A    between atoms: C_16  and  C_17
REMARK                            x       y       z     vdW  Elec       q    Type
REMARK                         _______ _______ _______ _____ _____    ______ ____
ROOT
ATOM      1  C   UNL     1       6.795   4.801  14.030  0.00  0.00    +0.000 C 
ATOM      2  O   UNL     1       6.137   3.836  13.657  0.00  0.00    +0.000 OA
ATOM      3  N   UNL     1       6.676   5.400  15.268  0.00  0.00    +0.000 N 
ATOM      4  C   UNL     1       5.734   4.986  16.216  0.00  0.00    +0.000 A 
ATOM      5  C   UNL     1       5.453   3.653  16.483  0.00  0.00    +0.000 A 
ATOM      6  N   UNL     1       4.545   3.272  17.424  0.00  0.00    +0.000 NA
ATOM      7  C   UNL     1       3.848   4.265  18.044  0.00  0.00    +0.000 A 
ATOM      8  C   UNL     1       4.098   5.611  17.705  0.00  0.00    +0.000 A 
ATOM      9  N   UNL     1       5.107   5.985  16.860  0.00  0.00    +0.000 NA
ATOM     10  H   UNL     1       6.914   6.379  15.343  0.00  0.00    +0.000 HD
ENDROOT
BRANCH   7  11
ATOM     11  C   UNL     1       2.880   3.788  19.063  0.00  0.00    +0.000 A 
ATOM     12  C   UNL     1       3.252   3.474  20.381  0.00  0.00    +0.000 A 
ATOM     13  C   UNL     1       2.281   3.116  21.304  0.00  0.00    +0.000 A 
ATOM     14  N   UNL     1       0.975   2.985  21.003  0.00  0.00    +0.000 NA
ATOM     15  C   UNL     1       0.631   3.223  19.722  0.00  0.00    +0.000 A 
ATOM     16  C   UNL     1       1.526   3.619  18.739  0.00  0.00    +0.000 A 
ENDBRANCH   7  11
BRANCH   8  17
ATOM     17  C   UNL     1       3.271   6.739  18.107  0.00  0.00    +0.000 A 
ATOM     18  C   UNL     1       2.739   7.827  17.445  0.00  0.00    +0.000 A 
ATOM     19  C   UNL     1       2.002   8.566  18.404  0.00  0.00    +0.000 A 
ATOM     20  C   UNL     1       2.094   7.862  19.580  0.00  0.00    +0.000 A 
ATOM     21  O   UNL     1       2.837   6.743  19.404  0.00  0.00    +0.000 OA
ENDBRANCH   8  17
BRANCH   1  23
ATOM     22  C   UNL     1       7.603   5.244  11.682  0.00  0.00    +0.000 C 
ATOM     23  C   UNL     1       7.846   5.472  13.164  0.00  0.00    +0.000 C 
ENDBRANCH   1  23
TORSDOF 3
ENDMDL
MODEL 7
REMARK VINA RESULT:      -7.1      1.064      1.350
REMARK  Name = 
REMARK  4 active torsions:
REMARK  status: ('A' for Active; 'I' for Inactive)
REMARK    1  A    between atoms: C_1  and  C_2
REMARK    2  A    between atoms: C_2  and  C_3
REMARK    3  A    between atoms: C_9  and  C_10
REMARK    4  A    between atoms: C_16  and  C_17
REMARK                            x       y       z     vdW  Elec       q    Type
REMARK                         _______ _______ _______ _____ _____    ______ ____
ROOT
ATOM      1  C   UNL     1      -0.193  10.335  19.468  0.00  0.00    +0.000 C 
ATOM      2  O   UNL     1      -0.275  10.320  18.244  0.00  0.00    +0.000 OA
ATOM      3  N   UNL     1       0.666   9.546  20.206  0.00  0.00    +0.000 N 
ATOM      4  C   UNL     1       1.506   8.596  19.618  0.00  0.00    +0.000 A 
ATOM      5  C   UNL     1       2.216   8.822  18.446  0.00  0.00    +0.000 A 
ATOM      6  N   UNL     1       3.044   7.889  17.900  0.00  0.00    +0.000 NA
ATOM      7  C   UNL     1       3.084   6.671  18.510  0.00  0.00    +0.000 A 
ATOM      8  C   UNL     1       2.299   6.438  19.659  0.00  0.00    +0.000 A 
ATOM      9  N   UNL     1       1.579   7.425  20.274  0.00  0.00    +0.000 NA
ATOM     10  H   UNL     1       0.394   9.310  21.150  0.00  0.00    +0.000 HD
ENDROOT
BRANCH   7  11
ATOM     11  C   UNL     1       4.008   5.699  17.875  0.00  0.00    +0.000 A 
ATOM     12  C   UNL     1       3.567   4.518  17.256  0.00  0.00    +0.000 A 
ATOM     13  C   UNL     1       4.477   3.697  16.608  0.00  0.00    +0.000 A 
ATOM     14  N   UNL     1       5.803   3.927  16.582  0.00  0.00    +0.000 NA
ATOM     15  C   UNL     1       6.233   5.026  17.233  0.00  0.00    +0.000 A 
ATOM     16  C   UNL     1       5.393   5.922  17.878  0.00  0.00    +0.000 A 
ENDBRANCH   7  11
BRANCH   8  17
ATOM     17  C   UNL     1       2.065   5.132  20.258  0.00  0.00    +0.000 A 
ATOM     18  C   UNL     1       2.564   4.477  21.365  0.00  0.00    +0.000 A 
ATOM     19  C   UNL     1       1.916   3.218  21.418  0.00  0.00    +0.000 A 
ATOM     20  C   UNL     1       1.032   3.199  20.367  0.00  0.00    +0.000 A 
ATOM     21  O   UNL     1       1.096   4.362  19.676  0.00  0.00    +0.000 OA
ENDBRANCH   8  17
BRANCH   1  23
ATOM     22  C   UNL     1      -2.073  12.016  19.543  0.00  0.00    +0.000 C 
ATOM     23  C   UNL     1      -1.040  11.241  20.343  0.00  0.00    +0.000 C 
ENDBRANCH   1  23
TORSDOF 3
ENDMDL
MODEL 8
REMARK VINA RESULT:      -7.0      1.795      2.243
REMARK  Name = 
REMARK  4 active torsions:
REMARK  status: ('A' for Active; 'I' for Inactive)
REMARK    1  A    between atoms: C_1  and  C_2
REMARK    2  A    between atoms: C_2  and  C_3
REMARK    3  A    between atoms: C_9  and  C_10
REMARK    4  A    between atoms: C_16  and  C_17
REMARK                            x       y       z     vdW  Elec       q    Type
REMARK                         _______ _______ _______ _____ _____    ______ ____
ROOT
ATOM      1  C   UNL     1       0.450   9.471  19.112  0.00  0.00    +0.000 C 
ATOM      2  O   UNL     1       0.535   9.843  17.946  0.00  0.00    +0.000 OA
ATOM      3  N   UNL     1       1.261   8.515  19.690  0.00  0.00    +0.000 N 
ATOM      4  C   UNL     1       2.243   7.827  18.972  0.00  0.00    +0.000 A 
ATOM      5  C   UNL     1       3.084   8.436  18.049  0.00  0.00    +0.000 A 
ATOM      6  N   UNL     1       4.047   7.750  17.374  0.00  0.00    +0.000 NA
ATOM      7  C   UNL     1       4.099   6.404  17.575  0.00  0.00    +0.000 A 
ATOM      8  C   UNL     1       3.187   5.793  18.462  0.00  0.00    +0.000 A 
ATOM      9  N   UNL     1       2.317   6.512  19.236  0.00  0.00    +0.000 NA
ATOM     10  H   UNL     1       0.884   7.983  20.463  0.00  0.00    +0.000 HD
ENDROOT
BRANCH   7  11
ATOM     11  C   UNL     1       5.172   5.712  16.818  0.00  0.00    +0.000 A 
ATOM     12  C   UNL     1       5.149   5.567  15.421  0.00  0.00    +0.000 A 
ATOM     13  C   UNL     1       6.226   4.985  14.770  0.00  0.00    +0.000 A 
ATOM     14  N   UNL     1       7.299   4.478  15.407  0.00  0.00    +0.000 NA
ATOM     15  C   UNL     1       7.289   4.559  16.752  0.00  0.00    +0.000 A 
ATOM     16  C   UNL     1       6.272   5.154  17.485  0.00  0.00    +0.000 A 
ENDBRANCH   7  11
BRANCH   8  17
ATOM     17  C   UNL     1       2.976   4.359  18.585  0.00  0.00    +0.000 A 
ATOM     18  C   UNL     1       2.289   3.419  17.843  0.00  0.00    +0.000 A 
ATOM     19  C   UNL     1       2.484   2.172  18.487  0.00  0.00    +0.000 A 
ATOM     20  C   UNL     1       3.311   2.419  19.556  0.00  0.00    +0.000 A 
ATOM     21  O   UNL     1       3.635   3.733  19.607  0.00  0.00    +0.000 OA
ENDBRANCH   8  17
BRANCH   1  23
ATOM     22  C   UNL     1      -0.216   9.726  21.531  0.00  0.00    +0.000 C 
ATOM     23  C   UNL     1      -0.573  10.025  20.086  0.00  0.00    +0.000 C 
ENDBRANCH   1  23
TORSDOF 3
ENDMDL
MODEL 9
REMARK VINA RESULT:      -7.0      1.387      1.698
REMARK  Name = 
REMARK  4 active torsions:
REMARK  status: ('A' for Active; 'I' for Inactive)
REMARK    1  A    between atoms: C_1  and  C_2
REMARK    2  A    between atoms: C_2  and  C_3
REMARK    3  A    between atoms: C_9  and  C_10
REMARK    4  A    between atoms: C_16  and  C_17
REMARK                            x       y       z     vdW  Elec       q    Type
REMARK                         _______ _______ _______ _____ _____    ______ ____
ROOT
ATOM      1  C   UNL     1       0.031   9.886  19.050  0.00  0.00    +0.000 C 
ATOM      2  O   UNL     1      -0.044   9.833  17.827  0.00  0.00    +0.000 OA
ATOM      3  N   UNL     1       0.966   9.209  19.808  0.00  0.00    +0.000 N 
ATOM      4  C   UNL     1       1.902   8.338  19.245  0.00  0.00    +0.000 A 
ATOM      5  C   UNL     1       2.588   8.609  18.068  0.00  0.00    +0.000 A 
ATOM      6  N   UNL     1       3.511   7.754  17.546  0.00  0.00    +0.000 NA
ATOM      7  C   UNL     1       3.676   6.562  18.186  0.00  0.00    +0.000 A 
ATOM      8  C   UNL     1       2.916   6.276  19.340  0.00  0.00    +0.000 A 
ATOM      9  N   UNL     1       2.095   7.198  19.930  0.00  0.00    +0.000 NA
ATOM     10  H   UNL     1       0.717   8.969  20.758  0.00  0.00    +0.000 HD
ENDROOT
BRANCH   7  11
ATOM     11  C   UNL     1       4.699   5.676  17.576  0.00  0.00    +0.000 A 
ATOM     12  C   UNL     1       4.426   4.829  16.489  0.00  0.00    +0.000 A 
ATOM     13  C   UNL     1       5.450   4.092  15.915  0.00  0.00    +0.000 A 
ATOM     14  N   UNL     1       6.714   4.083  16.377  0.00  0.00    +0.000 NA
ATOM     15  C   UNL     1       6.960   4.845  17.461  0.00  0.00    +0.000 A 
ATOM     16  C   UNL     1       6.007   5.642  18.080  0.00  0.00    +0.000 A 
ENDBRANCH   7  11
BRANCH   8  17
ATOM     17  C   UNL     1       2.818   4.968  19.970  0.00  0.00    +0.000 A 
ATOM     18  C   UNL     1       3.298   3.712  19.662  0.00  0.00    +0.000 A 
ATOM     19  C   UNL     1       2.863   2.846  20.697  0.00  0.00    +0.000 A 
ATOM     20  C   UNL     1       2.182   3.634  21.593  0.00  0.00    +0.000 A 
ATOM     21  O   UNL     1       2.172   4.922  21.175  0.00  0.00    +0.000 OA
ENDBRANCH   8  17
BRANCH   1  23
ATOM     22  C   UNL     1      -1.808  11.611  19.065  0.00  0.00    +0.000 C 
ATOM     23  C   UNL     1      -0.908  10.720  19.902  0.00  0.00    +0.000 C 
ENDBRANCH   1  23
TORSDOF 3
ENDMDL
