MODEL 1
REMARK VINA RESULT:      -9.9      0.000      0.000
REMARK  Name = 
REMARK  5 active torsions:
REMARK  status: ('A' for Active; 'I' for Inactive)
REMARK    1  A    between atoms: C_2  and  C_17
REMARK    2  A    between atoms: N_3  and  C_4
REMARK    3  A    between atoms: C_4  and  C_5
REMARK    4  A    between atoms: C_4  and  C_11
REMARK    5  A    between atoms: C_19  and  C_20
REMARK                            x       y       z     vdW  Elec       q    Type
REMARK                         _______ _______ _______ _____ _____    ______ ____
ROOT
ATOM      1  C   UNL     1       0.611   9.362  20.187  0.00  0.00    +0.000 A 
ATOM      2  C   UNL     1       0.532   9.713  18.833  0.00  0.00    +0.000 A 
ATOM      3  C   UNL     1       0.310  11.031  18.614  0.00  0.00    +0.000 A 
ATOM      4  N   UNL     1      -0.847  11.444  19.121  0.00  0.00    +0.000 NA
ATOM      5  C   UNL     1      -0.985  11.179  20.422  0.00  0.00    +0.000 A 
ATOM      6  C   UNL     1      -1.738  12.128  21.094  0.00  0.00    +0.000 A 
ATOM      7  C   UNL     1      -1.906  12.070  22.463  0.00  0.00    +0.000 A 
ATOM      8  C   UNL     1      -1.379  10.975  23.144  0.00  0.00    +0.000 A 
ATOM      9  C   UNL     1      -0.574  10.008  22.472  0.00  0.00    +0.000 A 
ATOM     10  C   UNL     1      -0.271  10.118  21.079  0.00  0.00    +0.000 A 
ENDROOT
BRANCH   3  11
ATOM     11  C   UNL     1       1.316  12.055  18.988  0.00  0.00    +0.000 A 
ATOM     12  C   UNL     1       2.496  12.338  18.312  0.00  0.00    +0.000 A 
ATOM     13  C   UNL     1       2.608  13.750  18.309  0.00  0.00    +0.000 A 
ATOM     14  C   UNL     1       3.345  14.673  17.554  0.00  0.00    +0.000 A 
ATOM     15  C   UNL     1       3.188  16.036  17.819  0.00  0.00    +0.000 A 
ATOM     16  C   UNL     1       2.313  16.474  18.818  0.00  0.00    +0.000 A 
ATOM     17  C   UNL     1       1.513  15.572  19.537  0.00  0.00    +0.000 A 
ATOM     18  C   UNL     1       1.669  14.222  19.223  0.00  0.00    +0.000 A 
ATOM     19  O   UNL     1       0.900  13.180  19.672  0.00  0.00    +0.000 OA
ENDBRANCH   3  11
BRANCH   1  21
ATOM     20  O   UNL     1       2.115   8.020  21.404  0.00  0.00    +0.000 OA
ATOM     21  C   UNL     1       1.751   8.348  20.268  0.00  0.00    +0.000 C 
ATOM     22  N   UNL     1       2.262   7.652  19.180  0.00  0.00    +0.000 N 
ATOM     23  H   UNL     1       1.916   7.833  18.251  0.00  0.00    +0.000 HD
BRANCH  22  24
ATOM     24  C   UNL     1       3.090   6.404  19.399  0.00  0.00    +0.000 C 
BRANCH  24  25
ATOM     25  C   UNL     1       2.215   5.138  19.440  0.00  0.00    +0.000 A 
ATOM     26  C   UNL     1       1.884   4.471  18.250  0.00  0.00    +0.000 A 
ATOM     27  C   UNL     1       1.082   3.326  18.263  0.00  0.00    +0.000 A 
ATOM     28  C   UNL     1       0.617   2.803  19.466  0.00  0.00    +0.000 A 
ATOM     29  C   UNL     1       0.977   3.409  20.662  0.00  0.00    +0.000 A 
ATOM     30  C   UNL     1       1.772   4.567  20.654  0.00  0.00    +0.000 A 
ENDBRANCH  24  25
BRANCH  24  31
ATOM     31  C   UNL     1       4.254   6.241  18.396  0.00  0.00    +0.000 A 
ATOM     32  C   UNL     1       4.239   6.883  17.136  0.00  0.00    +0.000 A 
ATOM     33  C   UNL     1       5.290   6.727  16.220  0.00  0.00    +0.000 A 
ATOM     34  C   UNL     1       6.370   5.915  16.557  0.00  0.00    +0.000 A 
ATOM     35  C   UNL     1       6.409   5.277  17.790  0.00  0.00    +0.000 A 
ATOM     36  C   UNL     1       5.364   5.451  18.711  0.00  0.00    +0.000 A 
ENDBRANCH  24  31
ENDBRANCH  22  24
ENDBRANCH   1  21
TORSDOF 5
ENDMDL
MODEL 2
REMARK VINA RESULT:      -9.8      0.055      1.152
REMARK  Name = 
REMARK  5 active torsions:
REMARK  status: ('A' for Active; 'I' for Inactive)
REMARK    1  A    between atoms: C_2  and  C_17
REMARK    2  A    between atoms: N_3  and  C_4
REMARK    3  A    between atoms: C_4  and  C_5
REMARK    4  A    between atoms: C_4  and  C_11
REMARK    5  A    between atoms: C_19  and  C_20
REMARK                            x       y       z     vdW  Elec       q    Type
REMARK                         _______ _______ _______ _____ _____    ______ ____
ROOT
ATOM      1  C   UNL     1       0.621   9.333  20.190  0.00  0.00    +0.000 A 
ATOM      2  C   UNL     1       0.539   9.685  18.837  0.00  0.00    +0.000 A 
ATOM      3  C   UNL     1       0.316  11.004  18.620  0.00  0.00    +0.000 A 
ATOM      4  N   UNL     1      -0.840  11.416  19.130  0.00  0.00    +0.000 NA
ATOM      5  C   UNL     1      -0.976  11.150  20.431  0.00  0.00    +0.000 A 
ATOM      6  C   UNL     1      -1.727  12.097  21.106  0.00  0.00    +0.000 A 
ATOM      7  C   UNL     1      -1.892  12.037  22.475  0.00  0.00    +0.000 A 
ATOM      8  C   UNL     1      -1.364  10.941  23.153  0.00  0.00    +0.000 A 
ATOM      9  C   UNL     1      -0.560   9.976  22.478  0.00  0.00    +0.000 A 
ATOM     10  C   UNL     1      -0.259  10.088  21.085  0.00  0.00    +0.000 A 
ENDROOT
BRANCH   3  11
ATOM     11  C   UNL     1       1.322  12.028  18.994  0.00  0.00    +0.000 A 
ATOM     12  C   UNL     1       2.496  12.319  18.310  0.00  0.00    +0.000 A 
ATOM     13  C   UNL     1       2.605  13.730  18.317  0.00  0.00    +0.000 A 
ATOM     14  C   UNL     1       3.334  14.661  17.562  0.00  0.00    +0.000 A 
ATOM     15  C   UNL     1       3.176  16.022  17.839  0.00  0.00    +0.000 A 
ATOM     16  C   UNL     1       2.309  16.450  18.849  0.00  0.00    +0.000 A 
ATOM     17  C   UNL     1       1.516  15.541  19.567  0.00  0.00    +0.000 A 
ATOM     18  C   UNL     1       1.673  14.194  19.242  0.00  0.00    +0.000 A 
ATOM     19  O   UNL     1       0.910  13.147  19.689  0.00  0.00    +0.000 OA
ENDBRANCH   3  11
BRANCH   1  21
ATOM     20  O   UNL     1       2.138   8.002  21.402  0.00  0.00    +0.000 OA
ATOM     21  C   UNL     1       1.761   8.319  20.267  0.00  0.00    +0.000 C 
ATOM     22  N   UNL     1       2.258   7.611  19.180  0.00  0.00    +0.000 N 
ATOM     23  H   UNL     1       1.901   7.783  18.254  0.00  0.00    +0.000 HD
BRANCH  22  24
ATOM     24  C   UNL     1       3.088   6.365  19.401  0.00  0.00    +0.000 C 
BRANCH  24  25
ATOM     25  C   UNL     1       2.220   5.094  19.403  0.00  0.00    +0.000 A 
ATOM     26  C   UNL     1       1.724   4.581  20.612  0.00  0.00    +0.000 A 
ATOM     27  C   UNL     1       0.942   3.422  20.639  0.00  0.00    +0.000 A 
ATOM     28  C   UNL     1       0.611   2.766  19.457  0.00  0.00    +0.000 A 
ATOM     29  C   UNL     1       1.039   3.284  18.242  0.00  0.00    +0.000 A 
ATOM     30  C   UNL     1       1.836   4.441  18.210  0.00  0.00    +0.000 A 
ENDBRANCH  24  25
BRANCH  24  31
ATOM     31  C   UNL     1       4.277   6.223  18.425  0.00  0.00    +0.000 A 
ATOM     32  C   UNL     1       5.414   5.449  18.753  0.00  0.00    +0.000 A 
ATOM     33  C   UNL     1       6.499   5.328  17.872  0.00  0.00    +0.000 A 
ATOM     34  C   UNL     1       6.458   5.993  16.649  0.00  0.00    +0.000 A 
ATOM     35  C   UNL     1       5.351   6.756  16.303  0.00  0.00    +0.000 A 
ATOM     36  C   UNL     1       4.259   6.859  17.180  0.00  0.00    +0.000 A 
ENDBRANCH  24  31
ENDBRANCH  22  24
ENDBRANCH   1  21
TORSDOF 5
ENDMDL
MODEL 3
REMARK VINA RESULT:      -9.6      2.065      5.307
REMARK  Name = 
REMARK  5 active torsions:
REMARK  status: ('A' for Active; 'I' for Inactive)
REMARK    1  A    between atoms: C_2  and  C_17
REMARK    2  A    between atoms: N_3  and  C_4
REMARK    3  A    between atoms: C_4  and  C_5
REMARK    4  A    between atoms: C_4  and  C_11
REMARK    5  A    between atoms: C_19  and  C_20
REMARK                            x       y       z     vdW  Elec       q    Type
REMARK                         _______ _______ _______ _____ _____    ______ ____
ROOT
ATOM      1  C   UNL     1       1.557  10.235  19.108  0.00  0.00    +0.000 A 
ATOM      2  C   UNL     1       0.678  10.060  20.185  0.00  0.00    +0.000 A 
ATOM      3  C   UNL     1      -0.199  11.079  20.357  0.00  0.00    +0.000 A 
ATOM      4  N   UNL     1       0.406  12.232  20.620  0.00  0.00    +0.000 NA
ATOM      5  C   UNL     1       1.318  12.578  19.708  0.00  0.00    +0.000 A 
ATOM      6  C   UNL     1       1.428  13.948  19.539  0.00  0.00    +0.000 A 
ATOM      7  C   UNL     1       2.251  14.487  18.571  0.00  0.00    +0.000 A 
ATOM      8  C   UNL     1       3.046  13.618  17.828  0.00  0.00    +0.000 A 
ATOM      9  C   UNL     1       2.920  12.204  17.965  0.00  0.00    +0.000 A 
ATOM     10  C   UNL     1       1.977  11.617  18.865  0.00  0.00    +0.000 A 
ENDROOT
BRANCH   3  11
ATOM     11  C   UNL     1      -1.240  11.378  19.345  0.00  0.00    +0.000 A 
ATOM     12  C   UNL     1      -1.737  10.501  18.388  0.00  0.00    +0.000 A 
ATOM     13  C   UNL     1      -3.135  10.721  18.354  0.00  0.00    +0.000 A 
ATOM     14  C   UNL     1      -4.231   9.987  17.879  0.00  0.00    +0.000 A 
ATOM     15  C   UNL     1      -5.515  10.518  18.036  0.00  0.00    +0.000 A 
ATOM     16  C   UNL     1      -5.705  11.758  18.654  0.00  0.00    +0.000 A 
ATOM     17  C   UNL     1      -4.629  12.475  19.201  0.00  0.00    +0.000 A 
ATOM     18  C   UNL     1      -3.367  11.901  19.058  0.00  0.00    +0.000 A 
ATOM     19  O   UNL     1      -2.199  12.328  19.634  0.00  0.00    +0.000 OA
ENDBRANCH   3  11
BRANCH   1  21
ATOM     20  O   UNL     1       1.436   8.807  17.239  0.00  0.00    +0.000 OA
ATOM     21  C   UNL     1       1.662   8.858  18.455  0.00  0.00    +0.000 C 
ATOM     22  N   UNL     1       2.165   7.726  19.085  0.00  0.00    +0.000 N 
ATOM     23  H   UNL     1       2.446   7.763  20.051  0.00  0.00    +0.000 HD
BRANCH  22  24
ATOM     24  C   UNL     1       2.601   6.532  18.264  0.00  0.00    +0.000 C 
BRANCH  24  25
ATOM     25  C   UNL     1       4.134   6.429  18.176  0.00  0.00    +0.000 A 
ATOM     26  C   UNL     1       4.838   5.604  19.067  0.00  0.00    +0.000 A 
ATOM     27  C   UNL     1       6.231   5.503  19.013  0.00  0.00    +0.000 A 
ATOM     28  C   UNL     1       6.952   6.200  18.048  0.00  0.00    +0.000 A 
ATOM     29  C   UNL     1       6.278   6.979  17.117  0.00  0.00    +0.000 A 
ATOM     30  C   UNL     1       4.878   7.093  17.175  0.00  0.00    +0.000 A 
ENDBRANCH  24  25
BRANCH  24  31
ATOM     31  C   UNL     1       1.982   5.194  18.725  0.00  0.00    +0.000 A 
ATOM     32  C   UNL     1       1.575   4.992  20.065  0.00  0.00    +0.000 A 
ATOM     33  C   UNL     1       1.022   3.774  20.487  0.00  0.00    +0.000 A 
ATOM     34  C   UNL     1       0.877   2.738  19.568  0.00  0.00    +0.000 A 
ATOM     35  C   UNL     1       1.266   2.914  18.247  0.00  0.00    +0.000 A 
ATOM     36  C   UNL     1       1.801   4.141  17.823  0.00  0.00    +0.000 A 
ENDBRANCH  24  31
ENDBRANCH  22  24
ENDBRANCH   1  21
TORSDOF 5
ENDMDL
MODEL 4
REMARK VINA RESULT:      -9.1      2.000      5.054
REMARK  Name = 
REMARK  5 active torsions:
REMARK  status: ('A' for Active; 'I' for Inactive)
REMARK    1  A    between atoms: C_2  and  C_17
REMARK    2  A    between atoms: N_3  and  C_4
REMARK    3  A    between atoms: C_4  and  C_5
REMARK    4  A    between atoms: C_4  and  C_11
REMARK    5  A    between atoms: C_19  and  C_20
REMARK                            x       y       z     vdW  Elec       q    Type
REMARK                         _______ _______ _______ _____ _____    ______ ____
ROOT
ATOM      1  C   UNL     1       1.543  10.048  19.300  0.00  0.00    +0.000 A 
ATOM      2  C   UNL     1       0.835   9.824  20.487  0.00  0.00    +0.000 A 
ATOM      3  C   UNL     1      -0.088  10.775  20.771  0.00  0.00    +0.000 A 
ATOM      4  N   UNL     1       0.454  11.976  20.942  0.00  0.00    +0.000 NA
ATOM      5  C   UNL     1       1.204  12.375  19.912  0.00  0.00    +0.000 A 
ATOM      6  C   UNL     1       1.182  13.747  19.721  0.00  0.00    +0.000 A 
ATOM      7  C   UNL     1       1.822  14.331  18.647  0.00  0.00    +0.000 A 
ATOM      8  C   UNL     1       2.576  13.514  17.808  0.00  0.00    +0.000 A 
ATOM      9  C   UNL     1       2.581  12.097  17.971  0.00  0.00    +0.000 A 
ATOM     10  C   UNL     1       1.817  11.453  18.994  0.00  0.00    +0.000 A 
ENDROOT
BRANCH   3  11
ATOM     11  C   UNL     1      -1.277  10.976  19.908  0.00  0.00    +0.000 A 
ATOM     12  C   UNL     1      -1.506  12.050  19.057  0.00  0.00    +0.000 A 
ATOM     13  C   UNL     1      -2.051  11.494  17.874  0.00  0.00    +0.000 A 
ATOM     14  C   UNL     1      -2.197  11.947  16.555  0.00  0.00    +0.000 A 
ATOM     15  C   UNL     1      -2.781  11.095  15.613  0.00  0.00    +0.000 A 
ATOM     16  C   UNL     1      -3.214   9.816  15.976  0.00  0.00    +0.000 A 
ATOM     17  C   UNL     1      -3.012   9.316  17.273  0.00  0.00    +0.000 A 
ATOM     18  C   UNL     1      -2.395  10.179  18.178  0.00  0.00    +0.000 A 
ATOM     19  O   UNL     1      -1.957   9.869  19.439  0.00  0.00    +0.000 OA
ENDBRANCH   3  11
BRANCH   1  21
ATOM     20  O   UNL     1       1.321   8.593  17.463  0.00  0.00    +0.000 OA
ATOM     21  C   UNL     1       1.668   8.672  18.648  0.00  0.00    +0.000 C 
ATOM     22  N   UNL     1       2.304   7.581  19.228  0.00  0.00    +0.000 N 
ATOM     23  H   UNL     1       2.681   7.649  20.160  0.00  0.00    +0.000 HD
BRANCH  22  24
ATOM     24  C   UNL     1       2.728   6.407  18.373  0.00  0.00    +0.000 C 
BRANCH  24  25
ATOM     25  C   UNL     1       4.260   6.299  18.271  0.00  0.00    +0.000 A 
ATOM     26  C   UNL     1       4.976   5.539  19.210  0.00  0.00    +0.000 A 
ATOM     27  C   UNL     1       6.368   5.435  19.145  0.00  0.00    +0.000 A 
ATOM     28  C   UNL     1       7.076   6.060  18.122  0.00  0.00    +0.000 A 
ATOM     29  C   UNL     1       6.388   6.770  17.147  0.00  0.00    +0.000 A 
ATOM     30  C   UNL     1       4.990   6.889  17.216  0.00  0.00    +0.000 A 
ENDBRANCH  24  25
BRANCH  24  31
ATOM     31  C   UNL     1       2.104   5.062  18.803  0.00  0.00    +0.000 A 
ATOM     32  C   UNL     1       1.601   4.865  20.111  0.00  0.00    +0.000 A 
ATOM     33  C   UNL     1       1.044   3.640  20.506  0.00  0.00    +0.000 A 
ATOM     34  C   UNL     1       0.991   2.590  19.591  0.00  0.00    +0.000 A 
ATOM     35  C   UNL     1       1.474   2.761  18.301  0.00  0.00    +0.000 A 
ATOM     36  C   UNL     1       2.014   3.995  17.904  0.00  0.00    +0.000 A 
ENDBRANCH  24  31
ENDBRANCH  22  24
ENDBRANCH   1  21
TORSDOF 5
ENDMDL
MODEL 5
REMARK VINA RESULT:      -9.1      3.185      8.966
REMARK  Name = 
REMARK  5 active torsions:
REMARK  status: ('A' for Active; 'I' for Inactive)
REMARK    1  A    between atoms: C_2  and  C_17
REMARK    2  A    between atoms: N_3  and  C_4
REMARK    3  A    between atoms: C_4  and  C_5
REMARK    4  A    between atoms: C_4  and  C_11
REMARK    5  A    between atoms: C_19  and  C_20
REMARK                            x       y       z     vdW  Elec       q    Type
REMARK                         _______ _______ _______ _____ _____    ______ ____
ROOT
ATOM      1  C   UNL     1       0.411  10.331  21.098  0.00  0.00    +0.000 A 
ATOM      2  C   UNL     1       0.456  11.382  20.174  0.00  0.00    +0.000 A 
ATOM      3  C   UNL     1       0.359  10.988  18.880  0.00  0.00    +0.000 A 
ATOM      4  N   UNL     1       1.359  10.193  18.513  0.00  0.00    +0.000 NA
ATOM      5  C   UNL     1       1.506   9.122  19.296  0.00  0.00    +0.000 A 
ATOM      6  C   UNL     1       1.976   8.010  18.617  0.00  0.00    +0.000 A 
ATOM      7  C   UNL     1       2.099   6.787  19.243  0.00  0.00    +0.000 A 
ATOM      8  C   UNL     1       1.828   6.718  20.607  0.00  0.00    +0.000 A 
ATOM      9  C   UNL     1       1.311   7.843  21.314  0.00  0.00    +0.000 A 
ATOM     10  C   UNL     1       1.045   9.086  20.658  0.00  0.00    +0.000 A 
ENDROOT
BRANCH   3  11
ATOM     11  C   UNL     1      -0.880  10.364  18.356  0.00  0.00    +0.000 A 
ATOM     12  C   UNL     1      -2.183  10.698  18.705  0.00  0.00    +0.000 A 
ATOM     13  C   UNL     1      -2.920  10.683  17.497  0.00  0.00    +0.000 A 
ATOM     14  C   UNL     1      -4.152  11.217  17.093  0.00  0.00    +0.000 A 
ATOM     15  C   UNL     1      -4.573  11.017  15.776  0.00  0.00    +0.000 A 
ATOM     16  C   UNL     1      -3.783  10.296  14.875  0.00  0.00    +0.000 A 
ATOM     17  C   UNL     1      -2.515   9.813  15.237  0.00  0.00    +0.000 A 
ATOM     18  C   UNL     1      -2.111  10.061  16.548  0.00  0.00    +0.000 A 
ATOM     19  O   UNL     1      -0.872   9.829  17.084  0.00  0.00    +0.000 OA
ENDBRANCH   3  11
BRANCH   1  21
ATOM     20  O   UNL     1      -0.119  10.496  23.386  0.00  0.00    +0.000 OA
ATOM     21  C   UNL     1      -0.449  10.852  22.248  0.00  0.00    +0.000 C 
ATOM     22  N   UNL     1      -1.435  11.822  22.115  0.00  0.00    +0.000 N 
ATOM     23  H   UNL     1      -1.659  12.199  21.208  0.00  0.00    +0.000 HD
BRANCH  22  24
ATOM     24  C   UNL     1      -1.947  12.555  23.336  0.00  0.00    +0.000 C 
BRANCH  24  25
ATOM     25  C   UNL     1      -1.282  13.934  23.494  0.00  0.00    +0.000 A 
ATOM     26  C   UNL     1      -0.393  14.405  22.515  0.00  0.00    +0.000 A 
ATOM     27  C   UNL     1       0.230  15.649  22.642  0.00  0.00    +0.000 A 
ATOM     28  C   UNL     1      -0.042  16.466  23.736  0.00  0.00    +0.000 A 
ATOM     29  C   UNL     1      -0.960  16.051  24.691  0.00  0.00    +0.000 A 
ATOM     30  C   UNL     1      -1.581  14.796  24.573  0.00  0.00    +0.000 A 
ENDBRANCH  24  25
BRANCH  24  31
ATOM     31  C   UNL     1      -3.486  12.671  23.396  0.00  0.00    +0.000 A 
ATOM     32  C   UNL     1      -4.239  13.103  22.279  0.00  0.00    +0.000 A 
ATOM     33  C   UNL     1      -5.636  13.219  22.336  0.00  0.00    +0.000 A 
ATOM     34  C   UNL     1      -6.296  12.909  23.523  0.00  0.00    +0.000 A 
ATOM     35  C   UNL     1      -5.579  12.480  24.631  0.00  0.00    +0.000 A 
ATOM     36  C   UNL     1      -4.183  12.347  24.565  0.00  0.00    +0.000 A 
ENDBRANCH  24  31
ENDBRANCH  22  24
ENDBRANCH   1  21
TORSDOF 5
ENDMDL
MODEL 6
REMARK VINA RESULT:      -9.1      3.150      8.982
REMARK  Name = 
REMARK  5 active torsions:
REMARK  status: ('A' for Active; 'I' for Inactive)
REMARK    1  A    between atoms: C_2  and  C_17
REMARK    2  A    between atoms: N_3  and  C_4
REMARK    3  A    between atoms: C_4  and  C_5
REMARK    4  A    between atoms: C_4  and  C_11
REMARK    5  A    between atoms: C_19  and  C_20
REMARK                            x       y       z     vdW  Elec       q    Type
REMARK                         _______ _______ _______ _____ _____    ______ ____
ROOT
ATOM      1  C   UNL     1       0.478  10.251  21.056  0.00  0.00    +0.000 A 
ATOM      2  C   UNL     1       0.539  11.293  20.122  0.00  0.00    +0.000 A 
ATOM      3  C   UNL     1       0.429  10.890  18.833  0.00  0.00    +0.000 A 
ATOM      4  N   UNL     1       1.413  10.073  18.468  0.00  0.00    +0.000 NA
ATOM      5  C   UNL     1       1.542   9.006  19.260  0.00  0.00    +0.000 A 
ATOM      6  C   UNL     1       1.989   7.880  18.588  0.00  0.00    +0.000 A 
ATOM      7  C   UNL     1       2.090   6.660  19.224  0.00  0.00    +0.000 A 
ATOM      8  C   UNL     1       1.824   6.607  20.590  0.00  0.00    +0.000 A 
ATOM      9  C   UNL     1       1.331   7.748  21.289  0.00  0.00    +0.000 A 
ATOM     10  C   UNL     1       1.086   8.991  20.624  0.00  0.00    +0.000 A 
ENDROOT
BRANCH   3  11
ATOM     11  C   UNL     1      -0.824  10.285  18.319  0.00  0.00    +0.000 A 
ATOM     12  C   UNL     1      -2.118  10.620  18.698  0.00  0.00    +0.000 A 
ATOM     13  C   UNL     1      -2.877  10.635  17.503  0.00  0.00    +0.000 A 
ATOM     14  C   UNL     1      -4.112  11.186  17.134  0.00  0.00    +0.000 A 
ATOM     15  C   UNL     1      -4.558  11.016  15.820  0.00  0.00    +0.000 A 
ATOM     16  C   UNL     1      -3.790  10.308  14.890  0.00  0.00    +0.000 A 
ATOM     17  C   UNL     1      -2.519   9.809  15.219  0.00  0.00    +0.000 A 
ATOM     18  C   UNL     1      -2.090  10.027  16.528  0.00  0.00    +0.000 A 
ATOM     19  O   UNL     1      -0.842   9.776  17.036  0.00  0.00    +0.000 OA
ENDBRANCH   3  11
BRANCH   1  21
ATOM     20  O   UNL     1      -0.020  10.471  23.346  0.00  0.00    +0.000 OA
ATOM     21  C   UNL     1      -0.368  10.797  22.204  0.00  0.00    +0.000 C 
ATOM     22  N   UNL     1      -1.360  11.760  22.061  0.00  0.00    +0.000 N 
ATOM     23  H   UNL     1      -1.599  12.113  21.149  0.00  0.00    +0.000 HD
BRANCH  22  24
ATOM     24  C   UNL     1      -1.857  12.522  23.271  0.00  0.00    +0.000 C 
BRANCH  24  25
ATOM     25  C   UNL     1      -1.197  13.907  23.384  0.00  0.00    +0.000 A 
ATOM     26  C   UNL     1      -1.489  14.741  24.475  0.00  0.00    +0.000 A 
ATOM     27  C   UNL     1      -0.910  16.007  24.594  0.00  0.00    +0.000 A 
ATOM     28  C   UNL     1      -0.001  16.460  23.641  0.00  0.00    +0.000 A 
ATOM     29  C   UNL     1       0.350  15.634  22.582  0.00  0.00    +0.000 A 
ATOM     30  C   UNL     1      -0.239  14.365  22.451  0.00  0.00    +0.000 A 
ENDBRANCH  24  25
BRANCH  24  31
ATOM     31  C   UNL     1      -3.396  12.632  23.351  0.00  0.00    +0.000 A 
ATOM     32  C   UNL     1      -4.093  12.375  24.555  0.00  0.00    +0.000 A 
ATOM     33  C   UNL     1      -5.491  12.464  24.626  0.00  0.00    +0.000 A 
ATOM     34  C   UNL     1      -6.210  12.807  23.483  0.00  0.00    +0.000 A 
ATOM     35  C   UNL     1      -5.547  13.068  22.292  0.00  0.00    +0.000 A 
ATOM     36  C   UNL     1      -4.147  12.996  22.229  0.00  0.00    +0.000 A 
ENDBRANCH  24  31
ENDBRANCH  22  24
ENDBRANCH   1  21
TORSDOF 5
ENDMDL
MODEL 7
REMARK VINA RESULT:      -9.1      1.993      4.992
REMARK  Name = 
REMARK  5 active torsions:
REMARK  status: ('A' for Active; 'I' for Inactive)
REMARK    1  A    between atoms: C_2  and  C_17
REMARK    2  A    between atoms: N_3  and  C_4
REMARK    3  A    between atoms: C_4  and  C_5
REMARK    4  A    between atoms: C_4  and  C_11
REMARK    5  A    between atoms: C_19  and  C_20
REMARK                            x       y       z     vdW  Elec       q    Type
REMARK                         _______ _______ _______ _____ _____    ______ ____
ROOT
ATOM      1  C   UNL     1       1.590  10.017  19.278  0.00  0.00    +0.000 A 
ATOM      2  C   UNL     1       0.895   9.793  20.473  0.00  0.00    +0.000 A 
ATOM      3  C   UNL     1      -0.021  10.747  20.770  0.00  0.00    +0.000 A 
ATOM      4  N   UNL     1       0.529  11.946  20.938  0.00  0.00    +0.000 NA
ATOM      5  C   UNL     1       1.269  12.345  19.901  0.00  0.00    +0.000 A 
ATOM      6  C   UNL     1       1.251  13.717  19.714  0.00  0.00    +0.000 A 
ATOM      7  C   UNL     1       1.881  14.301  18.635  0.00  0.00    +0.000 A 
ATOM      8  C   UNL     1       2.621  13.483  17.784  0.00  0.00    +0.000 A 
ATOM      9  C   UNL     1       2.622  12.066  17.943  0.00  0.00    +0.000 A 
ATOM     10  C   UNL     1       1.867  11.423  18.973  0.00  0.00    +0.000 A 
ENDROOT
BRANCH   3  11
ATOM     11  C   UNL     1      -1.219  10.957  19.921  0.00  0.00    +0.000 A 
ATOM     12  C   UNL     1      -1.455  12.036  19.080  0.00  0.00    +0.000 A 
ATOM     13  C   UNL     1      -2.013  11.489  17.900  0.00  0.00    +0.000 A 
ATOM     14  C   UNL     1      -2.174  11.951  16.585  0.00  0.00    +0.000 A 
ATOM     15  C   UNL     1      -2.770  11.107  15.644  0.00  0.00    +0.000 A 
ATOM     16  C   UNL     1      -3.201   9.826  16.004  0.00  0.00    +0.000 A 
ATOM     17  C   UNL     1      -2.987   9.318  17.296  0.00  0.00    +0.000 A 
ATOM     18  C   UNL     1      -2.358  10.173  18.199  0.00  0.00    +0.000 A 
ATOM     19  O   UNL     1      -1.906   9.855  19.453  0.00  0.00    +0.000 OA
ENDBRANCH   3  11
BRANCH   1  21
ATOM     20  O   UNL     1       1.422   8.586  17.416  0.00  0.00    +0.000 OA
ATOM     21  C   UNL     1       1.701   8.643  18.620  0.00  0.00    +0.000 C 
ATOM     22  N   UNL     1       2.258   7.524  19.227  0.00  0.00    +0.000 N 
ATOM     23  H   UNL     1       2.581   7.569  20.180  0.00  0.00    +0.000 HD
BRANCH  22  24
ATOM     24  C   UNL     1       2.688   6.341  18.386  0.00  0.00    +0.000 C 
BRANCH  24  25
ATOM     25  C   UNL     1       4.219   6.250  18.269  0.00  0.00    +0.000 A 
ATOM     26  C   UNL     1       4.891   6.948  17.253  0.00  0.00    +0.000 A 
ATOM     27  C   UNL     1       6.281   6.872  17.120  0.00  0.00    +0.000 A 
ATOM     28  C   UNL     1       7.035   6.121  18.018  0.00  0.00    +0.000 A 
ATOM     29  C   UNL     1       6.403   5.467  19.066  0.00  0.00    +0.000 A 
ATOM     30  C   UNL     1       5.005   5.531  19.196  0.00  0.00    +0.000 A 
ENDBRANCH  24  25
BRANCH  24  31
ATOM     31  C   UNL     1       2.085   4.995  18.846  0.00  0.00    +0.000 A 
ATOM     32  C   UNL     1       1.999   3.886  17.972  0.00  0.00    +0.000 A 
ATOM     33  C   UNL     1       1.442   2.667  18.385  0.00  0.00    +0.000 A 
ATOM     34  C   UNL     1       0.956   2.548  19.685  0.00  0.00    +0.000 A 
ATOM     35  C   UNL     1       1.033   3.621  20.563  0.00  0.00    +0.000 A 
ATOM     36  C   UNL     1       1.608   4.834  20.151  0.00  0.00    +0.000 A 
ENDBRANCH  24  31
ENDBRANCH  22  24
ENDBRANCH   1  21
TORSDOF 5
ENDMDL
MODEL 8
REMARK VINA RESULT:      -8.9      5.998      9.749
REMARK  Name = 
REMARK  5 active torsions:
REMARK  status: ('A' for Active; 'I' for Inactive)
REMARK    1  A    between atoms: C_2  and  C_17
REMARK    2  A    between atoms: N_3  and  C_4
REMARK    3  A    between atoms: C_4  and  C_5
REMARK    4  A    between atoms: C_4  and  C_11
REMARK    5  A    between atoms: C_19  and  C_20
REMARK                            x       y       z     vdW  Elec       q    Type
REMARK                         _______ _______ _______ _____ _____    ______ ____
ROOT
ATOM      1  C   UNL     1      -6.541  13.538  20.602  0.00  0.00    +0.000 A 
ATOM      2  C   UNL     1      -6.841  12.225  20.218  0.00  0.00    +0.000 A 
ATOM      3  C   UNL     1      -6.754  12.004  18.883  0.00  0.00    +0.000 A 
ATOM      4  N   UNL     1      -7.610  12.746  18.187  0.00  0.00    +0.000 NA
ATOM      5  C   UNL     1      -7.503  14.055  18.430  0.00  0.00    +0.000 A 
ATOM      6  C   UNL     1      -7.800  14.840  17.329  0.00  0.00    +0.000 A 
ATOM      7  C   UNL     1      -7.651  16.211  17.365  0.00  0.00    +0.000 A 
ATOM      8  C   UNL     1      -7.285  16.800  18.573  0.00  0.00    +0.000 A 
ATOM      9  C   UNL     1      -6.943  16.004  19.706  0.00  0.00    +0.000 A 
ATOM     10  C   UNL     1      -6.958  14.575  19.655  0.00  0.00    +0.000 A 
ENDROOT
BRANCH   3  11
ATOM     11  C   UNL     1      -5.456  12.089  18.171  0.00  0.00    +0.000 A 
ATOM     12  C   UNL     1      -4.196  11.908  18.727  0.00  0.00    +0.000 A 
ATOM     13  C   UNL     1      -3.465  11.146  17.783  0.00  0.00    +0.000 A 
ATOM     14  C   UNL     1      -2.300  10.369  17.843  0.00  0.00    +0.000 A 
ATOM     15  C   UNL     1      -1.864   9.721  16.683  0.00  0.00    +0.000 A 
ATOM     16  C   UNL     1      -2.574   9.846  15.485  0.00  0.00    +0.000 A 
ATOM     17  C   UNL     1      -3.781  10.561  15.420  0.00  0.00    +0.000 A 
ATOM     18  C   UNL     1      -4.205  11.165  16.603  0.00  0.00    +0.000 A 
ATOM     19  O   UNL     1      -5.411  11.777  16.827  0.00  0.00    +0.000 OA
ENDBRANCH   3  11
BRANCH   1  21
ATOM     20  O   UNL     1      -6.023  12.459  22.630  0.00  0.00    +0.000 OA
ATOM     21  C   UNL     1      -5.721  13.399  21.883  0.00  0.00    +0.000 C 
ATOM     22  N   UNL     1      -4.569  14.125  22.163  0.00  0.00    +0.000 N 
ATOM     23  H   UNL     1      -4.247  14.833  21.524  0.00  0.00    +0.000 HD
BRANCH  22  24
ATOM     24  C   UNL     1      -3.617  13.651  23.239  0.00  0.00    +0.000 C 
BRANCH  24  25
ATOM     25  C   UNL     1      -2.515  12.742  22.666  0.00  0.00    +0.000 A 
ATOM     26  C   UNL     1      -2.084  11.617  23.388  0.00  0.00    +0.000 A 
ATOM     27  C   UNL     1      -1.078  10.783  22.893  0.00  0.00    +0.000 A 
ATOM     28  C   UNL     1      -0.500  11.034  21.651  0.00  0.00    +0.000 A 
ATOM     29  C   UNL     1      -0.948  12.105  20.890  0.00  0.00    +0.000 A 
ATOM     30  C   UNL     1      -1.950  12.954  21.390  0.00  0.00    +0.000 A 
ENDBRANCH  24  25
BRANCH  24  31
ATOM     31  C   UNL     1      -3.010  14.793  24.084  0.00  0.00    +0.000 A 
ATOM     32  C   UNL     1      -3.794  15.886  24.522  0.00  0.00    +0.000 A 
ATOM     33  C   UNL     1      -3.242  16.928  25.281  0.00  0.00    +0.000 A 
ATOM     34  C   UNL     1      -1.887  16.890  25.603  0.00  0.00    +0.000 A 
ATOM     35  C   UNL     1      -1.098  15.826  25.188  0.00  0.00    +0.000 A 
ATOM     36  C   UNL     1      -1.659  14.775  24.445  0.00  0.00    +0.000 A 
ENDBRANCH  24  31
ENDBRANCH  22  24
ENDBRANCH   1  21
TORSDOF 5
ENDMDL
MODEL 9
REMARK VINA RESULT:      -8.6      4.512      7.740
REMARK  Name = 
REMARK  5 active torsions:
REMARK  status: ('A' for Active; 'I' for Inactive)
REMARK    1  A    between atoms: C_2  and  C_17
REMARK    2  A    between atoms: N_3  and  C_4
REMARK    3  A    between atoms: C_4  and  C_5
REMARK    4  A    between atoms: C_4  and  C_11
REMARK    5  A    between atoms: C_19  and  C_20
REMARK                            x       y       z     vdW  Elec       q    Type
REMARK                         _______ _______ _______ _____ _____    ______ ____
ROOT
ATOM      1  C   UNL     1      -1.661  13.588  23.123  0.00  0.00    +0.000 A 
ATOM      2  C   UNL     1      -2.339  12.389  23.375  0.00  0.00    +0.000 A 
ATOM      3  C   UNL     1      -3.690  12.495  23.332  0.00  0.00    +0.000 A 
ATOM      4  N   UNL     1      -4.164  13.332  24.249  0.00  0.00    +0.000 NA
ATOM      5  C   UNL     1      -3.619  14.550  24.194  0.00  0.00    +0.000 A 
ATOM      6  C   UNL     1      -4.493  15.556  24.572  0.00  0.00    +0.000 A 
ATOM      7  C   UNL     1      -4.135  16.885  24.487  0.00  0.00    +0.000 A 
ATOM      8  C   UNL     1      -2.831  17.191  24.101  0.00  0.00    +0.000 A 
ATOM      9  C   UNL     1      -1.931  16.170  23.677  0.00  0.00    +0.000 A 
ATOM     10  C   UNL     1      -2.321  14.795  23.626  0.00  0.00    +0.000 A 
ENDROOT
BRANCH   3  11
ATOM     11  C   UNL     1      -4.397  12.819  22.070  0.00  0.00    +0.000 A 
ATOM     12  C   UNL     1      -3.833  12.883  20.802  0.00  0.00    +0.000 A 
ATOM     13  C   UNL     1      -4.766  12.266  19.934  0.00  0.00    +0.000 A 
ATOM     14  C   UNL     1      -4.695  11.723  18.643  0.00  0.00    +0.000 A 
ATOM     15  C   UNL     1      -5.846  11.161  18.085  0.00  0.00    +0.000 A 
ATOM     16  C   UNL     1      -7.049  11.140  18.798  0.00  0.00    +0.000 A 
ATOM     17  C   UNL     1      -7.126  11.613  20.119  0.00  0.00    +0.000 A 
ATOM     18  C   UNL     1      -5.950  12.135  20.656  0.00  0.00    +0.000 A 
ATOM     19  O   UNL     1      -5.738  12.510  21.957  0.00  0.00    +0.000 OA
ENDBRANCH   3  11
BRANCH   1  21
ATOM     20  O   UNL     1       0.039  12.093  22.479  0.00  0.00    +0.000 OA
ATOM     21  C   UNL     1      -0.473  13.195  22.247  0.00  0.00    +0.000 C 
ATOM     22  N   UNL     1      -0.064  13.893  21.117  0.00  0.00    +0.000 N 
ATOM     23  H   UNL     1      -0.528  14.747  20.851  0.00  0.00    +0.000 HD
BRANCH  22  24
ATOM     24  C   UNL     1       0.842  13.230  20.102  0.00  0.00    +0.000 C 
BRANCH  24  25
ATOM     25  C   UNL     1       0.070  12.246  19.204  0.00  0.00    +0.000 A 
ATOM     26  C   UNL     1       0.346  10.871  19.265  0.00  0.00    +0.000 A 
ATOM     27  C   UNL     1      -0.335   9.960  18.452  0.00  0.00    +0.000 A 
ATOM     28  C   UNL     1      -1.329  10.398  17.581  0.00  0.00    +0.000 A 
ATOM     29  C   UNL     1      -1.663  11.745  17.542  0.00  0.00    +0.000 A 
ATOM     30  C   UNL     1      -0.973  12.666  18.348  0.00  0.00    +0.000 A 
ENDBRANCH  24  25
BRANCH  24  31
ATOM     31  C   UNL     1       1.666  14.224  19.255  0.00  0.00    +0.000 A 
ATOM     32  C   UNL     1       1.263  15.570  19.095  0.00  0.00    +0.000 A 
ATOM     33  C   UNL     1       2.005  16.471  18.318  0.00  0.00    +0.000 A 
ATOM     34  C   UNL     1       3.162  16.028  17.682  0.00  0.00    +0.000 A 
ATOM     35  C   UNL     1       3.580  14.712  17.827  0.00  0.00    +0.000 A 
ATOM     36  C   UNL     1       2.845  13.818  18.621  0.00  0.00    +0.000 A 
ENDBRANCH  24  31
ENDBRANCH  22  24
ENDBRANCH   1  21
TORSDOF 5
ENDMDL
