MODEL 1
REMARK VINA RESULT:      -8.5      0.000      0.000
REMARK  Name = 
REMARK  4 active torsions:
REMARK  status: ('A' for Active; 'I' for Inactive)
REMARK    1  A    between atoms: C_1  and  C_2
REMARK    2  A    between atoms: C_2  and  N_3
REMARK    3  A    between atoms: C_9  and  C_10
REMARK    4  A    between atoms: N_15  and  C_16
REMARK                            x       y       z     vdW  Elec       q    Type
REMARK                         _______ _______ _______ _____ _____    ______ ____
ROOT
ATOM      1  N   UNL     1       3.194   4.200  19.022  0.00  0.00    +0.000 N 
ATOM      2  C   UNL     1       2.800   4.120  20.349  0.00  0.00    +0.000 A 
ATOM      3  O   UNL     1       2.873   3.097  21.027  0.00  0.00    +0.000 OA
ATOM      4  N   UNL     1       2.297   5.267  20.914  0.00  0.00    +0.000 N 
ATOM      5  C   UNL     1       2.123   6.462  20.215  0.00  0.00    +0.000 A 
ATOM      6  C   UNL     1       1.504   7.567  20.811  0.00  0.00    +0.000 A 
ATOM      7  C   UNL     1       1.310   8.736  20.053  0.00  0.00    +0.000 A 
ATOM      8  C   UNL     1       1.797   8.800  18.739  0.00  0.00    +0.000 A 
ATOM      9  C   UNL     1       2.398   7.699  18.151  0.00  0.00    +0.000 A 
ATOM     10  C   UNL     1       2.568   6.541  18.899  0.00  0.00    +0.000 A 
ATOM     11  C   UNL     1       3.234   5.383  18.298  0.00  0.00    +0.000 A 
ATOM     12  O   UNL     1       3.779   5.512  17.203  0.00  0.00    +0.000 OA
ATOM     13  H   UNL     1       2.003   5.183  21.880  0.00  0.00    +0.000 HD
ENDROOT
BRANCH   7  14
ATOM     14  C   UNL     1       0.698   9.943  20.680  0.00  0.00    +0.000 C 
ATOM     15  O   UNL     1       0.112   9.795  21.745  0.00  0.00    +0.000 OA
ATOM     16  N   UNL     1       0.888  11.187  20.080  0.00  0.00    +0.000 N 
ATOM     17  C   UNL     1       0.633  12.409  20.852  0.00  0.00    +0.000 C 
ATOM     18  C   UNL     1       1.782  13.433  20.678  0.00  0.00    +0.000 C 
ATOM     19  N   UNL     1       2.075  13.642  19.246  0.00  0.00    +0.000 N 
ATOM     20  C   UNL     1       2.312  12.420  18.465  0.00  0.00    +0.000 C 
ATOM     21  C   UNL     1       1.135  11.445  18.651  0.00  0.00    +0.000 C 
BRANCH  19  22
ATOM     22  C   UNL     1       2.100  14.896  18.673  0.00  0.00    +0.000 A 
ATOM     23  C   UNL     1       1.067  15.822  18.883  0.00  0.00    +0.000 A 
ATOM     24  C   UNL     1       1.072  17.082  18.279  0.00  0.00    +0.000 A 
ATOM     25  C   UNL     1       2.122  17.455  17.447  0.00  0.00    +0.000 A 
ATOM     26  C   UNL     1       3.170  16.569  17.235  0.00  0.00    +0.000 A 
ATOM     27  C   UNL     1       3.155  15.309  17.842  0.00  0.00    +0.000 A 
ENDBRANCH  19  22
ENDBRANCH   7  14
BRANCH   1  29
ATOM     28  C   UNL     1       2.601   2.202  17.689  0.00  0.00    +0.000 C 
ATOM     29  C   UNL     1       3.704   3.011  18.356  0.00  0.00    +0.000 C 
ENDBRANCH   1  29
TORSDOF 3
ENDMDL
MODEL 2
REMARK VINA RESULT:      -8.4      3.486      4.597
REMARK  Name = 
REMARK  4 active torsions:
REMARK  status: ('A' for Active; 'I' for Inactive)
REMARK    1  A    between atoms: C_1  and  C_2
REMARK    2  A    between atoms: C_2  and  N_3
REMARK    3  A    between atoms: C_9  and  C_10
REMARK    4  A    between atoms: N_15  and  C_16
REMARK                            x       y       z     vdW  Elec       q    Type
REMARK                         _______ _______ _______ _____ _____    ______ ____
ROOT
ATOM      1  N   UNL     1       2.911   4.413  19.469  0.00  0.00    +0.000 N 
ATOM      2  C   UNL     1       2.397   4.795  20.699  0.00  0.00    +0.000 A 
ATOM      3  O   UNL     1       2.245   4.029  21.648  0.00  0.00    +0.000 OA
ATOM      4  N   UNL     1       2.039   6.115  20.836  0.00  0.00    +0.000 N 
ATOM      5  C   UNL     1       2.120   7.050  19.804  0.00  0.00    +0.000 A 
ATOM      6  C   UNL     1       1.639   8.354  19.966  0.00  0.00    +0.000 A 
ATOM      7  C   UNL     1       1.702   9.249  18.883  0.00  0.00    +0.000 A 
ATOM      8  C   UNL     1       2.304   8.844  17.683  0.00  0.00    +0.000 A 
ATOM      9  C   UNL     1       2.768   7.548  17.524  0.00  0.00    +0.000 A 
ATOM     10  C   UNL     1       2.683   6.663  18.591  0.00  0.00    +0.000 A 
ATOM     11  C   UNL     1       3.203   5.302  18.445  0.00  0.00    +0.000 A 
ATOM     12  O   UNL     1       3.854   5.017  17.440  0.00  0.00    +0.000 OA
ATOM     13  H   UNL     1       1.653   6.369  21.738  0.00  0.00    +0.000 HD
ENDROOT
BRANCH   7  14
ATOM     14  C   UNL     1       1.241  10.658  19.047  0.00  0.00    +0.000 C 
ATOM     15  O   UNL     1       2.097  11.530  19.139  0.00  0.00    +0.000 OA
ATOM     16  N   UNL     1      -0.126  10.931  19.004  0.00  0.00    +0.000 N 
ATOM     17  C   UNL     1      -0.581  12.309  18.784  0.00  0.00    +0.000 C 
ATOM     18  C   UNL     1      -1.704  12.366  17.720  0.00  0.00    +0.000 C 
ATOM     19  N   UNL     1      -2.769  11.393  18.040  0.00  0.00    +0.000 N 
ATOM     20  C   UNL     1      -2.316  10.017  18.281  0.00  0.00    +0.000 C 
ATOM     21  C   UNL     1      -1.218  10.009  19.360  0.00  0.00    +0.000 C 
BRANCH  19  22
ATOM     22  C   UNL     1      -4.096  11.757  18.133  0.00  0.00    +0.000 A 
ATOM     23  C   UNL     1      -4.919  11.834  17.000  0.00  0.00    +0.000 A 
ATOM     24  C   UNL     1      -6.256  12.233  17.084  0.00  0.00    +0.000 A 
ATOM     25  C   UNL     1      -6.811  12.562  18.316  0.00  0.00    +0.000 A 
ATOM     26  C   UNL     1      -6.029  12.476  19.460  0.00  0.00    +0.000 A 
ATOM     27  C   UNL     1      -4.691  12.078  19.364  0.00  0.00    +0.000 A 
ENDBRANCH  19  22
ENDBRANCH   7  14
BRANCH   1  29
ATOM     28  C   UNL     1       2.142   2.213  18.640  0.00  0.00    +0.000 C 
ATOM     29  C   UNL     1       3.277   3.022  19.250  0.00  0.00    +0.000 C 
ENDBRANCH   1  29
TORSDOF 3
ENDMDL
MODEL 3
REMARK VINA RESULT:      -8.3      3.503      4.544
REMARK  Name = 
REMARK  4 active torsions:
REMARK  status: ('A' for Active; 'I' for Inactive)
REMARK    1  A    between atoms: C_1  and  C_2
REMARK    2  A    between atoms: C_2  and  N_3
REMARK    3  A    between atoms: C_9  and  C_10
REMARK    4  A    between atoms: N_15  and  C_16
REMARK                            x       y       z     vdW  Elec       q    Type
REMARK                         _______ _______ _______ _____ _____    ______ ____
ROOT
ATOM      1  N   UNL     1       3.178   4.625  18.966  0.00  0.00    +0.000 N 
ATOM      2  C   UNL     1       2.695   4.693  20.263  0.00  0.00    +0.000 A 
ATOM      3  O   UNL     1       2.667   3.738  21.037  0.00  0.00    +0.000 OA
ATOM      4  N   UNL     1       2.222   5.913  20.683  0.00  0.00    +0.000 N 
ATOM      5  C   UNL     1       2.160   7.042  19.866  0.00  0.00    +0.000 A 
ATOM      6  C   UNL     1       1.567   8.229  20.311  0.00  0.00    +0.000 A 
ATOM      7  C   UNL     1       1.488   9.327  19.436  0.00  0.00    +0.000 A 
ATOM      8  C   UNL     1       2.062   9.240  18.160  0.00  0.00    +0.000 A 
ATOM      9  C   UNL     1       2.637   8.059  17.720  0.00  0.00    +0.000 A 
ATOM     10  C   UNL     1       2.693   6.971  18.582  0.00  0.00    +0.000 A 
ATOM     11  C   UNL     1       3.331   5.729  18.140  0.00  0.00    +0.000 A 
ATOM     12  O   UNL     1       3.952   5.724  17.078  0.00  0.00    +0.000 OA
ATOM     13  H   UNL     1       1.861   5.937  21.630  0.00  0.00    +0.000 HD
ENDROOT
BRANCH   7  14
ATOM     14  C   UNL     1       0.905  10.618  19.904  0.00  0.00    +0.000 C 
ATOM     15  O   UNL     1       1.664  11.435  20.411  0.00  0.00    +0.000 OA
ATOM     16  N   UNL     1      -0.446  10.873  19.671  0.00  0.00    +0.000 N 
ATOM     17  C   UNL     1      -0.950  12.248  19.772  0.00  0.00    +0.000 C 
ATOM     18  C   UNL     1      -1.857  12.602  18.568  0.00  0.00    +0.000 C 
ATOM     19  N   UNL     1      -2.891  11.564  18.377  0.00  0.00    +0.000 N 
ATOM     20  C   UNL     1      -2.393  10.185  18.296  0.00  0.00    +0.000 C 
ATOM     21  C   UNL     1      -1.517   9.872  19.523  0.00  0.00    +0.000 C 
BRANCH  19  22
ATOM     22  C   UNL     1      -4.235  11.865  18.305  0.00  0.00    +0.000 A 
ATOM     23  C   UNL     1      -4.973  12.212  19.447  0.00  0.00    +0.000 A 
ATOM     24  C   UNL     1      -6.343  12.486  19.385  0.00  0.00    +0.000 A 
ATOM     25  C   UNL     1      -7.013  12.426  18.168  0.00  0.00    +0.000 A 
ATOM     26  C   UNL     1      -6.306  12.106  17.016  0.00  0.00    +0.000 A 
ATOM     27  C   UNL     1      -4.937  11.831  17.089  0.00  0.00    +0.000 A 
ENDBRANCH  19  22
ENDBRANCH   7  14
BRANCH   1  29
ATOM     28  C   UNL     1       2.586   2.585  17.698  0.00  0.00    +0.000 C 
ATOM     29  C   UNL     1       3.663   3.353  18.450  0.00  0.00    +0.000 C 
ENDBRANCH   1  29
TORSDOF 3
ENDMDL
MODEL 4
REMARK VINA RESULT:      -8.1      2.915      4.373
REMARK  Name = 
REMARK  4 active torsions:
REMARK  status: ('A' for Active; 'I' for Inactive)
REMARK    1  A    between atoms: C_1  and  C_2
REMARK    2  A    between atoms: C_2  and  N_3
REMARK    3  A    between atoms: C_9  and  C_10
REMARK    4  A    between atoms: N_15  and  C_16
REMARK                            x       y       z     vdW  Elec       q    Type
REMARK                         _______ _______ _______ _____ _____    ______ ____
ROOT
ATOM      1  N   UNL     1       3.834   3.841  19.042  0.00  0.00    +0.000 N 
ATOM      2  C   UNL     1       4.128   4.350  17.787  0.00  0.00    +0.000 A 
ATOM      3  O   UNL     1       4.789   3.751  16.940  0.00  0.00    +0.000 OA
ATOM      4  N   UNL     1       3.642   5.603  17.499  0.00  0.00    +0.000 N 
ATOM      5  C   UNL     1       2.930   6.384  18.408  0.00  0.00    +0.000 A 
ATOM      6  C   UNL     1       2.554   7.697  18.099  0.00  0.00    +0.000 A 
ATOM      7  C   UNL     1       1.875   8.462  19.064  0.00  0.00    +0.000 A 
ATOM      8  C   UNL     1       1.527   7.879  20.292  0.00  0.00    +0.000 A 
ATOM      9  C   UNL     1       1.913   6.584  20.597  0.00  0.00    +0.000 A 
ATOM     10  C   UNL     1       2.601   5.841  19.646  0.00  0.00    +0.000 A 
ATOM     11  C   UNL     1       2.982   4.459  19.945  0.00  0.00    +0.000 A 
ATOM     12  O   UNL     1       2.541   3.926  20.964  0.00  0.00    +0.000 OA
ATOM     13  H   UNL     1       3.880   5.960  16.580  0.00  0.00    +0.000 HD
ENDROOT
BRANCH   7  14
ATOM     14  C   UNL     1       1.421   9.845  18.741  0.00  0.00    +0.000 C 
ATOM     15  O   UNL     1       1.573  10.239  17.591  0.00  0.00    +0.000 OA
ATOM     16  N   UNL     1       0.774  10.592  19.725  0.00  0.00    +0.000 N 
ATOM     17  C   UNL     1      -0.004  11.775  19.339  0.00  0.00    +0.000 C 
ATOM     18  C   UNL     1      -1.384  11.792  20.041  0.00  0.00    +0.000 C 
ATOM     19  N   UNL     1      -1.227  11.587  21.495  0.00  0.00    +0.000 N 
ATOM     20  C   UNL     1      -0.433  10.415  21.885  0.00  0.00    +0.000 C 
ATOM     21  C   UNL     1       0.936  10.454  21.182  0.00  0.00    +0.000 C 
BRANCH  19  22
ATOM     22  C   UNL     1      -1.767  12.451  22.425  0.00  0.00    +0.000 A 
ATOM     23  C   UNL     1      -3.117  12.379  22.799  0.00  0.00    +0.000 A 
ATOM     24  C   UNL     1      -3.678  13.273  23.716  0.00  0.00    +0.000 A 
ATOM     25  C   UNL     1      -2.893  14.266  24.292  0.00  0.00    +0.000 A 
ATOM     26  C   UNL     1      -1.548  14.351  23.958  0.00  0.00    +0.000 A 
ATOM     27  C   UNL     1      -0.998  13.454  23.037  0.00  0.00    +0.000 A 
ENDBRANCH  19  22
ENDBRANCH   7  14
BRANCH   1  29
ATOM     28  C   UNL     1       3.573   1.395  18.774  0.00  0.00    +0.000 C 
ATOM     29  C   UNL     1       4.349   2.533  19.421  0.00  0.00    +0.000 C 
ENDBRANCH   1  29
TORSDOF 3
ENDMDL
MODEL 5
REMARK VINA RESULT:      -8.0      3.546      4.566
REMARK  Name = 
REMARK  4 active torsions:
REMARK  status: ('A' for Active; 'I' for Inactive)
REMARK    1  A    between atoms: C_1  and  C_2
REMARK    2  A    between atoms: C_2  and  N_3
REMARK    3  A    between atoms: C_9  and  C_10
REMARK    4  A    between atoms: N_15  and  C_16
REMARK                            x       y       z     vdW  Elec       q    Type
REMARK                         _______ _______ _______ _____ _____    ______ ____
ROOT
ATOM      1  N   UNL     1       4.002   5.273  17.924  0.00  0.00    +0.000 N 
ATOM      2  C   UNL     1       3.670   4.883  19.212  0.00  0.00    +0.000 A 
ATOM      3  O   UNL     1       3.942   3.782  19.687  0.00  0.00    +0.000 OA
ATOM      4  N   UNL     1       2.995   5.800  19.981  0.00  0.00    +0.000 N 
ATOM      5  C   UNL     1       2.593   7.053  19.517  0.00  0.00    +0.000 A 
ATOM      6  C   UNL     1       1.812   7.903  20.307  0.00  0.00    +0.000 A 
ATOM      7  C   UNL     1       1.394   9.139  19.780  0.00  0.00    +0.000 A 
ATOM      8  C   UNL     1       1.820   9.527  18.502  0.00  0.00    +0.000 A 
ATOM      9  C   UNL     1       2.583   8.676  17.719  0.00  0.00    +0.000 A 
ATOM     10  C   UNL     1       2.975   7.449  18.238  0.00  0.00    +0.000 A 
ATOM     11  C   UNL     1       3.812   6.556  17.433  0.00  0.00    +0.000 A 
ATOM     12  O   UNL     1       4.291   6.978  16.381  0.00  0.00    +0.000 OA
ATOM     13  H   UNL     1       2.751   5.489  20.914  0.00  0.00    +0.000 HD
ENDROOT
BRANCH   7  14
ATOM     14  C   UNL     1       0.602  10.082  20.621  0.00  0.00    +0.000 C 
ATOM     15  O   UNL     1       1.148  10.560  21.608  0.00  0.00    +0.000 OA
ATOM     16  N   UNL     1      -0.679  10.444  20.207  0.00  0.00    +0.000 N 
ATOM     17  C   UNL     1      -1.319  11.630  20.789  0.00  0.00    +0.000 C 
ATOM     18  C   UNL     1      -1.962  12.515  19.693  0.00  0.00    +0.000 C 
ATOM     19  N   UNL     1      -2.824  11.701  18.812  0.00  0.00    +0.000 N 
ATOM     20  C   UNL     1      -2.194  10.503  18.243  0.00  0.00    +0.000 C 
ATOM     21  C   UNL     1      -1.591   9.645  19.370  0.00  0.00    +0.000 C 
BRANCH  19  22
ATOM     22  C   UNL     1      -4.140  12.030  18.559  0.00  0.00    +0.000 A 
ATOM     23  C   UNL     1      -4.966  12.575  19.553  0.00  0.00    +0.000 A 
ATOM     24  C   UNL     1      -6.309  12.879  19.312  0.00  0.00    +0.000 A 
ATOM     25  C   UNL     1      -6.863  12.649  18.058  0.00  0.00    +0.000 A 
ATOM     26  C   UNL     1      -6.067  12.128  17.046  0.00  0.00    +0.000 A 
ATOM     27  C   UNL     1      -4.725  11.825  17.299  0.00  0.00    +0.000 A 
ENDBRANCH  19  22
ENDBRANCH   7  14
BRANCH   1  29
ATOM     28  C   UNL     1       6.202   4.456  17.140  0.00  0.00    +0.000 C 
ATOM     29  C   UNL     1       4.688   4.335  17.048  0.00  0.00    +0.000 C 
ENDBRANCH   1  29
TORSDOF 3
ENDMDL
MODEL 6
REMARK VINA RESULT:      -8.0      1.867      2.462
REMARK  Name = 
REMARK  4 active torsions:
REMARK  status: ('A' for Active; 'I' for Inactive)
REMARK    1  A    between atoms: C_1  and  C_2
REMARK    2  A    between atoms: C_2  and  N_3
REMARK    3  A    between atoms: C_9  and  C_10
REMARK    4  A    between atoms: N_15  and  C_16
REMARK                            x       y       z     vdW  Elec       q    Type
REMARK                         _______ _______ _______ _____ _____    ______ ____
ROOT
ATOM      1  N   UNL     1       4.836   5.144  17.756  0.00  0.00    +0.000 N 
ATOM      2  C   UNL     1       4.588   4.646  19.026  0.00  0.00    +0.000 A 
ATOM      3  O   UNL     1       5.084   3.610  19.467  0.00  0.00    +0.000 OA
ATOM      4  N   UNL     1       3.730   5.370  19.817  0.00  0.00    +0.000 N 
ATOM      5  C   UNL     1       3.074   6.526  19.392  0.00  0.00    +0.000 A 
ATOM      6  C   UNL     1       2.126   7.162  20.201  0.00  0.00    +0.000 A 
ATOM      7  C   UNL     1       1.459   8.300  19.712  0.00  0.00    +0.000 A 
ATOM      8  C   UNL     1       1.799   8.816  18.453  0.00  0.00    +0.000 A 
ATOM      9  C   UNL     1       2.729   8.174  17.652  0.00  0.00    +0.000 A 
ATOM     10  C   UNL     1       3.370   7.040  18.133  0.00  0.00    +0.000 A 
ATOM     11  C   UNL     1       4.381   6.375  17.308  0.00  0.00    +0.000 A 
ATOM     12  O   UNL     1       4.765   6.927  16.277  0.00  0.00    +0.000 OA
ATOM     13  H   UNL     1       3.553   4.981  20.737  0.00  0.00    +0.000 HD
ENDROOT
BRANCH   7  14
ATOM     14  C   UNL     1       0.481   9.023  20.574  0.00  0.00    +0.000 C 
ATOM     15  O   UNL     1       0.060   8.443  21.568  0.00  0.00    +0.000 OA
ATOM     16  N   UNL     1       0.155  10.344  20.266  0.00  0.00    +0.000 N 
ATOM     17  C   UNL     1      -0.489  11.186  21.282  0.00  0.00    +0.000 C 
ATOM     18  C   UNL     1       0.181  12.579  21.363  0.00  0.00    +0.000 C 
ATOM     19  N   UNL     1       0.286  13.181  20.018  0.00  0.00    +0.000 N 
ATOM     20  C   UNL     1       0.912  12.335  18.994  0.00  0.00    +0.000 C 
ATOM     21  C   UNL     1       0.198  10.972  18.934  0.00  0.00    +0.000 C 
BRANCH  19  22
ATOM     22  C   UNL     1      -0.195  14.443  19.735  0.00  0.00    +0.000 A 
ATOM     23  C   UNL     1       0.394  15.251  18.752  0.00  0.00    +0.000 A 
ATOM     24  C   UNL     1      -0.068  16.543  18.484  0.00  0.00    +0.000 A 
ATOM     25  C   UNL     1      -1.145  17.061  19.194  0.00  0.00    +0.000 A 
ATOM     26  C   UNL     1      -1.763  16.279  20.160  0.00  0.00    +0.000 A 
ATOM     27  C   UNL     1      -1.291  14.988  20.423  0.00  0.00    +0.000 A 
ENDBRANCH  19  22
ENDBRANCH   7  14
BRANCH   1  29
ATOM     28  C   UNL     1       7.182   4.686  17.118  0.00  0.00    +0.000 C 
ATOM     29  C   UNL     1       5.710   4.404  16.858  0.00  0.00    +0.000 C 
ENDBRANCH   1  29
TORSDOF 3
ENDMDL
MODEL 7
REMARK VINA RESULT:      -7.9      3.298      8.792
REMARK  Name = 
REMARK  4 active torsions:
REMARK  status: ('A' for Active; 'I' for Inactive)
REMARK    1  A    between atoms: C_1  and  C_2
REMARK    2  A    between atoms: C_2  and  N_3
REMARK    3  A    between atoms: C_9  and  C_10
REMARK    4  A    between atoms: N_15  and  C_16
REMARK                            x       y       z     vdW  Elec       q    Type
REMARK                         _______ _______ _______ _____ _____    ______ ____
ROOT
ATOM      1  N   UNL     1      -0.056  10.740  21.212  0.00  0.00    +0.000 N 
ATOM      2  C   UNL     1       0.155   9.950  22.332  0.00  0.00    +0.000 A 
ATOM      3  O   UNL     1      -0.228  10.244  23.462  0.00  0.00    +0.000 OA
ATOM      4  N   UNL     1       0.841   8.775  22.139  0.00  0.00    +0.000 N 
ATOM      5  C   UNL     1       1.364   8.378  20.908  0.00  0.00    +0.000 A 
ATOM      6  C   UNL     1       2.148   7.224  20.791  0.00  0.00    +0.000 A 
ATOM      7  C   UNL     1       2.691   6.887  19.537  0.00  0.00    +0.000 A 
ATOM      8  C   UNL     1       2.384   7.671  18.416  0.00  0.00    +0.000 A 
ATOM      9  C   UNL     1       1.618   8.818  18.540  0.00  0.00    +0.000 A 
ATOM     10  C   UNL     1       1.102   9.156  19.785  0.00  0.00    +0.000 A 
ATOM     11  C   UNL     1       0.260  10.347  19.920  0.00  0.00    +0.000 A 
ATOM     12  O   UNL     1      -0.112  10.932  18.903  0.00  0.00    +0.000 OA
ATOM     13  H   UNL     1       0.995   8.220  22.972  0.00  0.00    +0.000 HD
ENDROOT
BRANCH   7  14
ATOM     14  C   UNL     1       3.489   5.638  19.378  0.00  0.00    +0.000 C 
ATOM     15  O   UNL     1       3.383   4.780  20.246  0.00  0.00    +0.000 OA
ATOM     16  N   UNL     1       4.246   5.463  18.220  0.00  0.00    +0.000 N 
ATOM     17  C   UNL     1       4.724   4.121  17.866  0.00  0.00    +0.000 C 
ATOM     18  C   UNL     1       4.474   3.813  16.369  0.00  0.00    +0.000 C 
ATOM     19  N   UNL     1       4.988   4.910  15.523  0.00  0.00    +0.000 N 
ATOM     20  C   UNL     1       4.527   6.257  15.887  0.00  0.00    +0.000 C 
ATOM     21  C   UNL     1       4.818   6.525  17.375  0.00  0.00    +0.000 C 
BRANCH  19  22
ATOM     22  C   UNL     1       5.861   4.690  14.478  0.00  0.00    +0.000 A 
ATOM     23  C   UNL     1       7.090   5.361  14.393  0.00  0.00    +0.000 A 
ATOM     24  C   UNL     1       7.964   5.166  13.319  0.00  0.00    +0.000 A 
ATOM     25  C   UNL     1       7.631   4.282  12.299  0.00  0.00    +0.000 A 
ATOM     26  C   UNL     1       6.431   3.587  12.365  0.00  0.00    +0.000 A 
ATOM     27  C   UNL     1       5.562   3.791  13.442  0.00  0.00    +0.000 A 
ENDBRANCH  19  22
ENDBRANCH   7  14
BRANCH   1  29
ATOM     28  C   UNL     1       0.211  13.196  21.352  0.00  0.00    +0.000 C 
ATOM     29  C   UNL     1      -0.746  12.013  21.357  0.00  0.00    +0.000 C 
ENDBRANCH   1  29
TORSDOF 3
ENDMDL
MODEL 8
REMARK VINA RESULT:      -7.9      1.537      1.839
REMARK  Name = 
REMARK  4 active torsions:
REMARK  status: ('A' for Active; 'I' for Inactive)
REMARK    1  A    between atoms: C_1  and  C_2
REMARK    2  A    between atoms: C_2  and  N_3
REMARK    3  A    between atoms: C_9  and  C_10
REMARK    4  A    between atoms: N_15  and  C_16
REMARK                            x       y       z     vdW  Elec       q    Type
REMARK                         _______ _______ _______ _____ _____    ______ ____
ROOT
ATOM      1  N   UNL     1       4.781   4.971  17.782  0.00  0.00    +0.000 N 
ATOM      2  C   UNL     1       4.518   4.609  19.094  0.00  0.00    +0.000 A 
ATOM      3  O   UNL     1       4.964   3.596  19.630  0.00  0.00    +0.000 OA
ATOM      4  N   UNL     1       3.704   5.450  19.815  0.00  0.00    +0.000 N 
ATOM      5  C   UNL     1       3.106   6.592  19.283  0.00  0.00    +0.000 A 
ATOM      6  C   UNL     1       2.199   7.351  20.031  0.00  0.00    +0.000 A 
ATOM      7  C   UNL     1       1.587   8.470  19.437  0.00  0.00    +0.000 A 
ATOM      8  C   UNL     1       1.943   8.845  18.134  0.00  0.00    +0.000 A 
ATOM      9  C   UNL     1       2.833   8.083  17.394  0.00  0.00    +0.000 A 
ATOM     10  C   UNL     1       3.418   6.967  17.980  0.00  0.00    +0.000 A 
ATOM     11  C   UNL     1       4.387   6.175  17.219  0.00  0.00    +0.000 A 
ATOM     12  O   UNL     1       4.791   6.605  16.139  0.00  0.00    +0.000 OA
ATOM     13  H   UNL     1       3.515   5.160  20.768  0.00  0.00    +0.000 HD
ENDROOT
BRANCH   7  14
ATOM     14  C   UNL     1       0.654   9.322  20.230  0.00  0.00    +0.000 C 
ATOM     15  O   UNL     1       0.074   8.804  21.176  0.00  0.00    +0.000 OA
ATOM     16  N   UNL     1       0.548  10.678  19.918  0.00  0.00    +0.000 N 
ATOM     17  C   UNL     1      -0.051  11.598  20.893  0.00  0.00    +0.000 C 
ATOM     18  C   UNL     1       0.803  12.880  21.051  0.00  0.00    +0.000 C 
ATOM     19  N   UNL     1       1.103  13.468  19.730  0.00  0.00    +0.000 N 
ATOM     20  C   UNL     1       1.684  12.545  18.746  0.00  0.00    +0.000 C 
ATOM     21  C   UNL     1       0.791  11.300  18.605  0.00  0.00    +0.000 C 
BRANCH  19  22
ATOM     22  C   UNL     1       0.833  14.787  19.430  0.00  0.00    +0.000 A 
ATOM     23  C   UNL     1      -0.480  15.279  19.394  0.00  0.00    +0.000 A 
ATOM     24  C   UNL     1      -0.762  16.607  19.059  0.00  0.00    +0.000 A 
ATOM     25  C   UNL     1       0.272  17.485  18.755  0.00  0.00    +0.000 A 
ATOM     26  C   UNL     1       1.585  17.034  18.802  0.00  0.00    +0.000 A 
ATOM     27  C   UNL     1       1.856  15.703  19.135  0.00  0.00    +0.000 A 
ENDBRANCH  19  22
ENDBRANCH   7  14
BRANCH   1  29
ATOM     28  C   UNL     1       7.077   4.499  16.990  0.00  0.00    +0.000 C 
ATOM     29  C   UNL     1       5.608   4.104  16.955  0.00  0.00    +0.000 C 
ENDBRANCH   1  29
TORSDOF 3
ENDMDL
MODEL 9
REMARK VINA RESULT:      -7.8      3.802      5.248
REMARK  Name = 
REMARK  4 active torsions:
REMARK  status: ('A' for Active; 'I' for Inactive)
REMARK    1  A    between atoms: C_1  and  C_2
REMARK    2  A    between atoms: C_2  and  N_3
REMARK    3  A    between atoms: C_9  and  C_10
REMARK    4  A    between atoms: N_15  and  C_16
REMARK                            x       y       z     vdW  Elec       q    Type
REMARK                         _______ _______ _______ _____ _____    ______ ____
ROOT
ATOM      1  N   UNL     1       3.587   4.712  19.078  0.00  0.00    +0.000 N 
ATOM      2  C   UNL     1       3.791   5.191  17.793  0.00  0.00    +0.000 A 
ATOM      3  O   UNL     1       4.421   4.587  16.927  0.00  0.00    +0.000 OA
ATOM      4  N   UNL     1       3.248   6.418  17.498  0.00  0.00    +0.000 N 
ATOM      5  C   UNL     1       2.564   7.205  18.425  0.00  0.00    +0.000 A 
ATOM      6  C   UNL     1       2.128   8.495  18.100  0.00  0.00    +0.000 A 
ATOM      7  C   UNL     1       1.481   9.268  19.082  0.00  0.00    +0.000 A 
ATOM      8  C   UNL     1       1.225   8.713  20.344  0.00  0.00    +0.000 A 
ATOM      9  C   UNL     1       1.669   7.440  20.663  0.00  0.00    +0.000 A 
ATOM     10  C   UNL     1       2.326   6.690  19.695  0.00  0.00    +0.000 A 
ATOM     11  C   UNL     1       2.768   5.330  20.011  0.00  0.00    +0.000 A 
ATOM     12  O   UNL     1       2.405   4.816  21.069  0.00  0.00    +0.000 OA
ATOM     13  H   UNL     1       3.421   6.755  16.558  0.00  0.00    +0.000 HD
ENDROOT
BRANCH   7  14
ATOM     14  C   UNL     1       0.964  10.625  18.745  0.00  0.00    +0.000 C 
ATOM     15  O   UNL     1       1.783  11.492  18.463  0.00  0.00    +0.000 OA
ATOM     16  N   UNL     1      -0.414  10.828  18.684  0.00  0.00    +0.000 N 
ATOM     17  C   UNL     1      -0.940  12.016  18.001  0.00  0.00    +0.000 C 
ATOM     18  C   UNL     1      -2.111  11.647  17.057  0.00  0.00    +0.000 C 
ATOM     19  N   UNL     1      -3.115  10.834  17.772  0.00  0.00    +0.000 N 
ATOM     20  C   UNL     1      -2.590   9.654  18.472  0.00  0.00    +0.000 C 
ATOM     21  C   UNL     1      -1.447  10.073  19.415  0.00  0.00    +0.000 C 
BRANCH  19  22
ATOM     22  C   UNL     1      -4.453  11.171  17.801  0.00  0.00    +0.000 A 
ATOM     23  C   UNL     1      -4.964  12.222  17.025  0.00  0.00    +0.000 A 
ATOM     24  C   UNL     1      -6.312  12.589  17.076  0.00  0.00    +0.000 A 
ATOM     25  C   UNL     1      -7.192  11.904  17.907  0.00  0.00    +0.000 A 
ATOM     26  C   UNL     1      -6.721  10.845  18.673  0.00  0.00    +0.000 A 
ATOM     27  C   UNL     1      -5.370  10.488  18.617  0.00  0.00    +0.000 A 
ENDBRANCH  19  22
ENDBRANCH   7  14
BRANCH   1  29
ATOM     28  C   UNL     1       3.315   2.253  19.016  0.00  0.00    +0.000 C 
ATOM     29  C   UNL     1       4.165   3.433  19.463  0.00  0.00    +0.000 C 
ENDBRANCH   1  29
TORSDOF 3
ENDMDL
