MODEL 1
REMARK VINA RESULT:      -7.6      0.000      0.000
REMARK  Name = 
REMARK  6 active torsions:
REMARK  status: ('A' for Active; 'I' for Inactive)
REMARK    1  A    between atoms: C_1  and  C_2
REMARK    2  A    between atoms: N_4  and  C_5
REMARK    3  A    between atoms: C_7  and  C_8
REMARK    4  A    between atoms: N_10  and  C_11
REMARK    5  A    between atoms: C_20  and  C_22
REMARK    6  A    between atoms: C_26  and  C_27
REMARK                            x       y       z     vdW  Elec       q    Type
REMARK                         _______ _______ _______ _____ _____    ______ ____
ROOT
ATOM      1  C   UNL     1      -0.649  15.362  21.767  0.00  0.00    +0.000 C 
ATOM      2  C   UNL     1       0.327  14.250  21.361  0.00  0.00    +0.000 C 
ATOM      3  C   UNL     1      -0.358  13.065  20.645  0.00  0.00    +0.000 C 
ATOM      4  C   UNL     1      -1.556  12.595  21.459  0.00  0.00    +0.000 C 
ATOM      5  N   UNL     1      -2.477  13.689  21.761  0.00  0.00    +0.000 N 
ATOM      6  C   UNL     1      -3.773  13.885  21.273  0.00  0.00    +0.000 C 
ATOM      7  O   UNL     1      -4.408  14.916  21.498  0.00  0.00    +0.000 OA
ATOM      8  C   UNL     1      -1.856  14.778  22.531  0.00  0.00    +0.000 C 
ENDROOT
BRANCH   6   9
ATOM      9  C   UNL     1      -4.434  12.888  20.386  0.00  0.00    +0.000 A 
ATOM     10  C   UNL     1      -5.753  12.520  20.684  0.00  0.00    +0.000 A 
ATOM     11  C   UNL     1      -6.435  11.608  19.878  0.00  0.00    +0.000 A 
ATOM     12  C   UNL     1      -5.808  11.073  18.751  0.00  0.00    +0.000 A 
ATOM     13  C   UNL     1      -4.480  11.402  18.458  0.00  0.00    +0.000 A 
ATOM     14  C   UNL     1      -3.788  12.261  19.321  0.00  0.00    +0.000 A 
BRANCH  13  15
ATOM     15  C   UNL     1      -3.797  10.839  17.306  0.00  0.00    +0.000 A 
ATOM     16  C   UNL     1      -2.814   9.890  17.145  0.00  0.00    +0.000 A 
ATOM     17  C   UNL     1      -2.524   9.840  15.759  0.00  0.00    +0.000 A 
ATOM     18  C   UNL     1      -3.380  10.732  15.155  0.00  0.00    +0.000 A 
ATOM     19  O   UNL     1      -4.162  11.340  16.086  0.00  0.00    +0.000 OA
ENDBRANCH  13  15
ENDBRANCH   6   9
BRANCH   1  23
ATOM     20  C   UNL     1      -1.037  17.982  19.063  0.00  0.00    +0.000 C 
ATOM     21  C   UNL     1      -0.460  17.325  20.287  0.00  0.00    +0.000 C 
ATOM     22  O   UNL     1       0.488  17.793  20.906  0.00  0.00    +0.000 OA
ATOM     23  N   UNL     1      -1.064  16.124  20.593  0.00  0.00    +0.000 N 
ATOM     24  H   UNL     1      -2.002  15.984  20.243  0.00  0.00    +0.000 HD
ENDBRANCH   1  23
BRANCH   3  25
ATOM     25  C   UNL     1       0.613  11.899  20.485  0.00  0.00    +0.000 C 
ATOM     26  O   UNL     1       1.719  11.938  21.018  0.00  0.00    +0.000 OA
ATOM     27  N   UNL     1       0.157  10.866  19.673  0.00  0.00    +0.000 N 
ATOM     28  H   UNL     1      -0.620  11.051  19.056  0.00  0.00    +0.000 HD
BRANCH  27  29
ATOM     29  C   UNL     1       0.844   9.645  19.481  0.00  0.00    +0.000 A 
ATOM     30  C   UNL     1       1.078   8.741  20.522  0.00  0.00    +0.000 A 
ATOM     31  C   UNL     1       1.871   7.611  20.321  0.00  0.00    +0.000 A 
ATOM     32  C   UNL     1       2.416   7.367  19.068  0.00  0.00    +0.000 A 
ATOM     33 CL   UNL     1       3.465   6.023  18.842  0.00  0.00    +0.000 Cl
ATOM     34  C   UNL     1       2.123   8.214  17.998  0.00  0.00    +0.000 A 
ATOM     35  C   UNL     1       1.322   9.345  18.202  0.00  0.00    +0.000 A 
ENDBRANCH  27  29
ENDBRANCH   3  25
TORSDOF 5
ENDMDL
MODEL 2
REMARK VINA RESULT:      -7.6      5.635     10.890
REMARK  Name = 
REMARK  6 active torsions:
REMARK  status: ('A' for Active; 'I' for Inactive)
REMARK    1  A    between atoms: C_1  and  C_2
REMARK    2  A    between atoms: N_4  and  C_5
REMARK    3  A    between atoms: C_7  and  C_8
REMARK    4  A    between atoms: N_10  and  C_11
REMARK    5  A    between atoms: C_20  and  C_22
REMARK    6  A    between atoms: C_26  and  C_27
REMARK                            x       y       z     vdW  Elec       q    Type
REMARK                         _______ _______ _______ _____ _____    ______ ____
ROOT
ATOM      1  C   UNL     1       1.656   4.996  20.333  0.00  0.00    +0.000 C 
ATOM      2  C   UNL     1       1.267   6.399  19.850  0.00  0.00    +0.000 C 
ATOM      3  C   UNL     1       2.225   6.965  18.779  0.00  0.00    +0.000 C 
ATOM      4  C   UNL     1       3.666   6.832  19.254  0.00  0.00    +0.000 C 
ATOM      5  N   UNL     1       3.990   5.460  19.641  0.00  0.00    +0.000 N 
ATOM      6  C   UNL     1       4.855   4.565  19.003  0.00  0.00    +0.000 C 
ATOM      7  O   UNL     1       4.950   3.387  19.350  0.00  0.00    +0.000 OA
ATOM      8  C   UNL     1       3.146   4.948  20.732  0.00  0.00    +0.000 C 
ENDROOT
BRANCH   6   9
ATOM      9  C   UNL     1       5.658   4.966  17.815  0.00  0.00    +0.000 A 
ATOM     10  C   UNL     1       6.676   5.911  18.001  0.00  0.00    +0.000 A 
ATOM     11  C   UNL     1       7.478   6.310  16.931  0.00  0.00    +0.000 A 
ATOM     12  C   UNL     1       7.283   5.747  15.669  0.00  0.00    +0.000 A 
ATOM     13  C   UNL     1       6.249   4.828  15.457  0.00  0.00    +0.000 A 
ATOM     14  C   UNL     1       5.407   4.497  16.526  0.00  0.00    +0.000 A 
BRANCH  13  15
ATOM     15  C   UNL     1       6.010   4.248  14.147  0.00  0.00    +0.000 A 
ATOM     16  C   UNL     1       4.926   3.647  13.550  0.00  0.00    +0.000 A 
ATOM     17  C   UNL     1       5.354   3.222  12.268  0.00  0.00    +0.000 A 
ATOM     18  C   UNL     1       6.662   3.631  12.146  0.00  0.00    +0.000 A 
ATOM     19  O   UNL     1       7.068   4.261  13.280  0.00  0.00    +0.000 OA
ENDBRANCH  13  15
ENDBRANCH   6   9
BRANCH   1  23
ATOM     20  C   UNL     1       0.990   1.785  18.441  0.00  0.00    +0.000 C 
ATOM     21  C   UNL     1       1.311   2.660  19.622  0.00  0.00    +0.000 C 
ATOM     22  O   UNL     1       1.477   2.214  20.751  0.00  0.00    +0.000 OA
ATOM     23  N   UNL     1       1.333   4.003  19.313  0.00  0.00    +0.000 N 
ATOM     24  H   UNL     1       1.501   4.244  18.345  0.00  0.00    +0.000 HD
ENDBRANCH   1  23
BRANCH   3  25
ATOM     25  C   UNL     1       1.930   8.440  18.520  0.00  0.00    +0.000 C 
ATOM     26  O   UNL     1       2.376   8.993  17.518  0.00  0.00    +0.000 OA
ATOM     27  N   UNL     1       1.185   9.070  19.512  0.00  0.00    +0.000 N 
ATOM     28  H   UNL     1       1.119   8.624  20.415  0.00  0.00    +0.000 HD
BRANCH  27  29
ATOM     29  C   UNL     1       0.704  10.396  19.421  0.00  0.00    +0.000 A 
ATOM     30  C   UNL     1      -0.381  10.750  18.613  0.00  0.00    +0.000 A 
ATOM     31  C   UNL     1      -0.743  12.087  18.449  0.00  0.00    +0.000 A 
ATOM     32  C   UNL     1      -0.034  13.079  19.114  0.00  0.00    +0.000 A 
ATOM     33 CL   UNL     1      -0.423  14.731  18.844  0.00  0.00    +0.000 Cl
ATOM     34  C   UNL     1       0.997  12.736  19.990  0.00  0.00    +0.000 A 
ATOM     35  C   UNL     1       1.355  11.392  20.156  0.00  0.00    +0.000 A 
ENDBRANCH  27  29
ENDBRANCH   3  25
TORSDOF 5
ENDMDL
MODEL 3
REMARK VINA RESULT:      -7.4      2.371      3.435
REMARK  Name = 
REMARK  6 active torsions:
REMARK  status: ('A' for Active; 'I' for Inactive)
REMARK    1  A    between atoms: C_1  and  C_2
REMARK    2  A    between atoms: N_4  and  C_5
REMARK    3  A    between atoms: C_7  and  C_8
REMARK    4  A    between atoms: N_10  and  C_11
REMARK    5  A    between atoms: C_20  and  C_22
REMARK    6  A    between atoms: C_26  and  C_27
REMARK                            x       y       z     vdW  Elec       q    Type
REMARK                         _______ _______ _______ _____ _____    ______ ____
ROOT
ATOM      1  C   UNL     1       1.452  14.084  19.740  0.00  0.00    +0.000 C 
ATOM      2  C   UNL     1       1.318  12.612  19.327  0.00  0.00    +0.000 C 
ATOM      3  C   UNL     1       0.065  11.924  19.913  0.00  0.00    +0.000 C 
ATOM      4  C   UNL     1      -0.005  12.173  21.414  0.00  0.00    +0.000 C 
ATOM      5  N   UNL     1       0.067  13.597  21.737  0.00  0.00    +0.000 N 
ATOM      6  C   UNL     1      -0.939  14.414  22.262  0.00  0.00    +0.000 C 
ATOM      7  O   UNL     1      -0.801  15.633  22.372  0.00  0.00    +0.000 OA
ATOM      8  C   UNL     1       1.306  14.239  21.268  0.00  0.00    +0.000 C 
ENDROOT
BRANCH   6   9
ATOM      9  C   UNL     1      -2.268  13.866  22.650  0.00  0.00    +0.000 A 
ATOM     10  C   UNL     1      -2.593  13.841  24.014  0.00  0.00    +0.000 A 
ATOM     11  C   UNL     1      -3.833  13.362  24.439  0.00  0.00    +0.000 A 
ATOM     12  C   UNL     1      -4.768  12.925  23.499  0.00  0.00    +0.000 A 
ATOM     13  C   UNL     1      -4.448  12.909  22.137  0.00  0.00    +0.000 A 
ATOM     14  C   UNL     1      -3.171  13.324  21.736  0.00  0.00    +0.000 A 
BRANCH  13  15
ATOM     15  C   UNL     1      -5.394  12.435  21.143  0.00  0.00    +0.000 A 
ATOM     16  C   UNL     1      -5.452  12.497  19.769  0.00  0.00    +0.000 A 
ATOM     17  C   UNL     1      -6.682  11.905  19.389  0.00  0.00    +0.000 A 
ATOM     18  C   UNL     1      -7.278  11.480  20.553  0.00  0.00    +0.000 A 
ATOM     19  O   UNL     1      -6.502  11.791  21.624  0.00  0.00    +0.000 OA
ENDBRANCH  13  15
ENDBRANCH   6   9
BRANCH   1  23
ATOM     20  C   UNL     1      -0.452  16.948  18.158  0.00  0.00    +0.000 C 
ATOM     21  C   UNL     1       0.656  16.266  18.913  0.00  0.00    +0.000 C 
ATOM     22  O   UNL     1       1.634  16.868  19.341  0.00  0.00    +0.000 OA
ATOM     23  N   UNL     1       0.485  14.902  19.014  0.00  0.00    +0.000 N 
ATOM     24  H   UNL     1      -0.460  14.554  18.925  0.00  0.00    +0.000 HD
ENDBRANCH   1  23
BRANCH   3  25
ATOM     25  C   UNL     1       0.116  10.418  19.669  0.00  0.00    +0.000 C 
ATOM     26  O   UNL     1      -0.873   9.827  19.243  0.00  0.00    +0.000 OA
ATOM     27  N   UNL     1       1.321   9.810  20.011  0.00  0.00    +0.000 N 
ATOM     28  H   UNL     1       1.954  10.313  20.614  0.00  0.00    +0.000 HD
BRANCH  27  29
ATOM     29  C   UNL     1       1.622   8.452  19.762  0.00  0.00    +0.000 A 
ATOM     30  C   UNL     1       1.417   7.449  20.714  0.00  0.00    +0.000 A 
ATOM     31  C   UNL     1       1.847   6.143  20.479  0.00  0.00    +0.000 A 
ATOM     32  C   UNL     1       2.465   5.828  19.276  0.00  0.00    +0.000 A 
ATOM     33 CL   UNL     1       3.075   4.240  19.021  0.00  0.00    +0.000 Cl
ATOM     34  C   UNL     1       2.601   6.798  18.282  0.00  0.00    +0.000 A 
ATOM     35  C   UNL     1       2.163   8.108  18.520  0.00  0.00    +0.000 A 
ENDBRANCH  27  29
ENDBRANCH   3  25
TORSDOF 5
ENDMDL
MODEL 4
REMARK VINA RESULT:      -7.2      2.353      3.180
REMARK  Name = 
REMARK  6 active torsions:
REMARK  status: ('A' for Active; 'I' for Inactive)
REMARK    1  A    between atoms: C_1  and  C_2
REMARK    2  A    between atoms: N_4  and  C_5
REMARK    3  A    between atoms: C_7  and  C_8
REMARK    4  A    between atoms: N_10  and  C_11
REMARK    5  A    between atoms: C_20  and  C_22
REMARK    6  A    between atoms: C_26  and  C_27
REMARK                            x       y       z     vdW  Elec       q    Type
REMARK                         _______ _______ _______ _____ _____    ______ ____
ROOT
ATOM      1  C   UNL     1       0.859  14.619  20.349  0.00  0.00    +0.000 C 
ATOM      2  C   UNL     1       0.865  13.205  19.754  0.00  0.00    +0.000 C 
ATOM      3  C   UNL     1      -0.375  12.371  20.145  0.00  0.00    +0.000 C 
ATOM      4  C   UNL     1      -0.579  12.426  21.653  0.00  0.00    +0.000 C 
ATOM      5  N   UNL     1      -0.637  13.801  22.148  0.00  0.00    +0.000 N 
ATOM      6  C   UNL     1      -1.737  14.480  22.679  0.00  0.00    +0.000 C 
ATOM      7  O   UNL     1      -1.697  15.683  22.945  0.00  0.00    +0.000 OA
ATOM      8  C   UNL     1       0.585  14.573  21.866  0.00  0.00    +0.000 C 
ENDROOT
BRANCH   6   9
ATOM      9  C   UNL     1      -3.048  13.806  22.885  0.00  0.00    +0.000 A 
ATOM     10  C   UNL     1      -3.394  13.432  24.190  0.00  0.00    +0.000 A 
ATOM     11  C   UNL     1      -4.620  12.818  24.451  0.00  0.00    +0.000 A 
ATOM     12  C   UNL     1      -5.520  12.594  23.409  0.00  0.00    +0.000 A 
ATOM     13  C   UNL     1      -5.177  12.928  22.094  0.00  0.00    +0.000 A 
ATOM     14  C   UNL     1      -3.913  13.475  21.841  0.00  0.00    +0.000 A 
BRANCH  13  15
ATOM     15  C   UNL     1      -6.087  12.681  20.988  0.00  0.00    +0.000 A 
ATOM     16  C   UNL     1      -6.752  11.569  20.526  0.00  0.00    +0.000 A 
ATOM     17  C   UNL     1      -7.434  11.966  19.350  0.00  0.00    +0.000 A 
ATOM     18  C   UNL     1      -7.177  13.308  19.192  0.00  0.00    +0.000 A 
ATOM     19  O   UNL     1      -6.363  13.753  20.185  0.00  0.00    +0.000 OA
ENDBRANCH  13  15
ENDBRANCH   6   9
BRANCH   1  23
ATOM     20  C   UNL     1      -0.812  17.252  18.203  0.00  0.00    +0.000 C 
ATOM     21  C   UNL     1       0.319  16.474  18.817  0.00  0.00    +0.000 C 
ATOM     22  O   UNL     1       1.495  16.695  18.552  0.00  0.00    +0.000 OA
ATOM     23  N   UNL     1      -0.107  15.458  19.646  0.00  0.00    +0.000 N 
ATOM     24  H   UNL     1      -1.032  15.552  20.042  0.00  0.00    +0.000 HD
ENDBRANCH   1  23
BRANCH   3  25
ATOM     25  C   UNL     1      -0.196  10.913  19.729  0.00  0.00    +0.000 C 
ATOM     26  O   UNL     1      -1.141  10.283  19.261  0.00  0.00    +0.000 OA
ATOM     27  N   UNL     1       1.070  10.388  19.970  0.00  0.00    +0.000 N 
ATOM     28  H   UNL     1       1.675  10.878  20.612  0.00  0.00    +0.000 HD
BRANCH  27  29
ATOM     29  C   UNL     1       1.485   9.100  19.560  0.00  0.00    +0.000 A 
ATOM     30  C   UNL     1       1.561   8.018  20.441  0.00  0.00    +0.000 A 
ATOM     31  C   UNL     1       2.099   6.798  20.029  0.00  0.00    +0.000 A 
ATOM     32  C   UNL     1       2.542   6.648  18.722  0.00  0.00    +0.000 A 
ATOM     33 CL   UNL     1       3.285   5.175  18.238  0.00  0.00    +0.000 Cl
ATOM     34  C   UNL     1       2.395   7.691  17.807  0.00  0.00    +0.000 A 
ATOM     35  C   UNL     1       1.850   8.913  18.223  0.00  0.00    +0.000 A 
ENDBRANCH  27  29
ENDBRANCH   3  25
TORSDOF 5
ENDMDL
MODEL 5
REMARK VINA RESULT:      -7.2      3.483      6.686
REMARK  Name = 
REMARK  6 active torsions:
REMARK  status: ('A' for Active; 'I' for Inactive)
REMARK    1  A    between atoms: C_1  and  C_2
REMARK    2  A    between atoms: N_4  and  C_5
REMARK    3  A    between atoms: C_7  and  C_8
REMARK    4  A    between atoms: N_10  and  C_11
REMARK    5  A    between atoms: C_20  and  C_22
REMARK    6  A    between atoms: C_26  and  C_27
REMARK                            x       y       z     vdW  Elec       q    Type
REMARK                         _______ _______ _______ _____ _____    ______ ____
ROOT
ATOM      1  C   UNL     1      -1.881  11.522  18.914  0.00  0.00    +0.000 C 
ATOM      2  C   UNL     1      -1.091  10.279  19.345  0.00  0.00    +0.000 C 
ATOM      3  C   UNL     1       0.319  10.607  19.883  0.00  0.00    +0.000 C 
ATOM      4  C   UNL     1       1.048  11.514  18.901  0.00  0.00    +0.000 C 
ATOM      5  N   UNL     1       0.269  12.709  18.579  0.00  0.00    +0.000 N 
ATOM      6  C   UNL     1       0.541  14.036  18.925  0.00  0.00    +0.000 C 
ATOM      7  O   UNL     1      -0.259  14.946  18.706  0.00  0.00    +0.000 OA
ATOM      8  C   UNL     1      -1.037  12.406  17.972  0.00  0.00    +0.000 C 
ENDROOT
BRANCH   6   9
ATOM      9  C   UNL     1       1.785  14.415  19.649  0.00  0.00    +0.000 A 
ATOM     10  C   UNL     1       1.710  14.581  21.039  0.00  0.00    +0.000 A 
ATOM     11  C   UNL     1       2.847  14.913  21.777  0.00  0.00    +0.000 A 
ATOM     12  C   UNL     1       4.076  15.060  21.131  0.00  0.00    +0.000 A 
ATOM     13  C   UNL     1       4.163  14.935  19.740  0.00  0.00    +0.000 A 
ATOM     14  C   UNL     1       2.997  14.674  19.009  0.00  0.00    +0.000 A 
BRANCH  13  15
ATOM     15  C   UNL     1       5.425  15.109  19.042  0.00  0.00    +0.000 A 
ATOM     16  C   UNL     1       5.931  14.648  17.849  0.00  0.00    +0.000 A 
ATOM     17  C   UNL     1       7.265  15.117  17.766  0.00  0.00    +0.000 A 
ATOM     18  C   UNL     1       7.475  15.873  18.896  0.00  0.00    +0.000 A 
ATOM     19  O   UNL     1       6.362  15.879  19.676  0.00  0.00    +0.000 OA
ENDBRANCH  13  15
ENDBRANCH   6   9
BRANCH   1  23
ATOM     20  C   UNL     1      -3.943  13.432  21.449  0.00  0.00    +0.000 C 
ATOM     21  C   UNL     1      -3.657  12.658  20.191  0.00  0.00    +0.000 C 
ATOM     22  O   UNL     1      -4.528  12.369  19.379  0.00  0.00    +0.000 OA
ATOM     23  N   UNL     1      -2.342  12.259  20.086  0.00  0.00    +0.000 N 
ATOM     24  H   UNL     1      -1.661  12.793  20.609  0.00  0.00    +0.000 HD
ENDBRANCH   1  23
BRANCH   3  25
ATOM     25  C   UNL     1       1.135   9.329  20.066  0.00  0.00    +0.000 C 
ATOM     26  O   UNL     1       1.280   8.843  21.185  0.00  0.00    +0.000 OA
ATOM     27  N   UNL     1       1.708   8.830  18.900  0.00  0.00    +0.000 N 
ATOM     28  H   UNL     1       1.778   9.444  18.103  0.00  0.00    +0.000 HD
BRANCH  27  29
ATOM     29  C   UNL     1       2.405   7.602  18.822  0.00  0.00    +0.000 A 
ATOM     30  C   UNL     1       2.234   6.579  19.760  0.00  0.00    +0.000 A 
ATOM     31  C   UNL     1       3.034   5.437  19.722  0.00  0.00    +0.000 A 
ATOM     32  C   UNL     1       3.994   5.300  18.729  0.00  0.00    +0.000 A 
ATOM     33 CL   UNL     1       5.039   3.935  18.735  0.00  0.00    +0.000 Cl
ATOM     34  C   UNL     1       4.119   6.274  17.737  0.00  0.00    +0.000 A 
ATOM     35  C   UNL     1       3.311   7.417  17.774  0.00  0.00    +0.000 A 
ENDBRANCH  27  29
ENDBRANCH   3  25
TORSDOF 5
ENDMDL
MODEL 6
REMARK VINA RESULT:      -7.2      1.928      2.222
REMARK  Name = 
REMARK  6 active torsions:
REMARK  status: ('A' for Active; 'I' for Inactive)
REMARK    1  A    between atoms: C_1  and  C_2
REMARK    2  A    between atoms: N_4  and  C_5
REMARK    3  A    between atoms: C_7  and  C_8
REMARK    4  A    between atoms: N_10  and  C_11
REMARK    5  A    between atoms: C_20  and  C_22
REMARK    6  A    between atoms: C_26  and  C_27
REMARK                            x       y       z     vdW  Elec       q    Type
REMARK                         _______ _______ _______ _____ _____    ______ ____
ROOT
ATOM      1  C   UNL     1      -3.097  14.467  23.666  0.00  0.00    +0.000 C 
ATOM      2  C   UNL     1      -1.856  13.748  23.121  0.00  0.00    +0.000 C 
ATOM      3  C   UNL     1      -2.062  13.156  21.709  0.00  0.00    +0.000 C 
ATOM      4  C   UNL     1      -3.341  12.331  21.677  0.00  0.00    +0.000 C 
ATOM      5  N   UNL     1      -4.496  13.093  22.151  0.00  0.00    +0.000 N 
ATOM      6  C   UNL     1      -5.596  13.540  21.413  0.00  0.00    +0.000 C 
ATOM      7  O   UNL     1      -6.448  14.286  21.896  0.00  0.00    +0.000 OA
ATOM      8  C   UNL     1      -4.348  13.575  23.534  0.00  0.00    +0.000 C 
ENDROOT
BRANCH   6   9
ATOM      9  C   UNL     1      -5.763  13.199  19.973  0.00  0.00    +0.000 A 
ATOM     10  C   UNL     1      -6.826  13.791  19.278  0.00  0.00    +0.000 A 
ATOM     11  C   UNL     1      -7.021  13.530  17.922  0.00  0.00    +0.000 A 
ATOM     12  C   UNL     1      -6.137  12.690  17.242  0.00  0.00    +0.000 A 
ATOM     13  C   UNL     1      -5.090  12.062  17.927  0.00  0.00    +0.000 A 
ATOM     14  C   UNL     1      -4.956  12.278  19.305  0.00  0.00    +0.000 A 
BRANCH  13  15
ATOM     15  C   UNL     1      -4.173  11.164  17.248  0.00  0.00    +0.000 A 
ATOM     16  C   UNL     1      -3.501  10.022  17.619  0.00  0.00    +0.000 A 
ATOM     17  C   UNL     1      -2.693   9.652  16.515  0.00  0.00    +0.000 A 
ATOM     18  C   UNL     1      -2.957  10.568  15.523  0.00  0.00    +0.000 A 
ATOM     19  O   UNL     1      -3.859  11.488  15.956  0.00  0.00    +0.000 OA
ENDBRANCH  13  15
ENDBRANCH   6   9
BRANCH   1  23
ATOM     20  C   UNL     1      -3.144  18.147  22.780  0.00  0.00    +0.000 C 
ATOM     21  C   UNL     1      -2.857  16.920  23.602  0.00  0.00    +0.000 C 
ATOM     22  O   UNL     1      -2.264  16.964  24.673  0.00  0.00    +0.000 OA
ATOM     23  N   UNL     1      -3.270  15.752  22.997  0.00  0.00    +0.000 N 
ATOM     24  H   UNL     1      -4.003  15.832  22.305  0.00  0.00    +0.000 HD
ENDBRANCH   1  23
BRANCH   3  25
ATOM     25  C   UNL     1      -0.890  12.257  21.327  0.00  0.00    +0.000 C 
ATOM     26  O   UNL     1       0.186  12.362  21.910  0.00  0.00    +0.000 OA
ATOM     27  N   UNL     1      -1.141  11.387  20.269  0.00  0.00    +0.000 N 
ATOM     28  H   UNL     1      -1.935  11.576  19.676  0.00  0.00    +0.000 HD
BRANCH  27  29
ATOM     29  C   UNL     1      -0.238  10.393  19.829  0.00  0.00    +0.000 A 
ATOM     30  C   UNL     1       0.310   9.439  20.691  0.00  0.00    +0.000 A 
ATOM     31  C   UNL     1       1.296   8.557  20.245  0.00  0.00    +0.000 A 
ATOM     32  C   UNL     1       1.721   8.610  18.925  0.00  0.00    +0.000 A 
ATOM     33 CL   UNL     1       2.997   7.585  18.399  0.00  0.00    +0.000 Cl
ATOM     34  C   UNL     1       1.123   9.500  18.031  0.00  0.00    +0.000 A 
ATOM     35  C   UNL     1       0.130  10.380  18.480  0.00  0.00    +0.000 A 
ENDBRANCH  27  29
ENDBRANCH   3  25
TORSDOF 5
ENDMDL
MODEL 7
REMARK VINA RESULT:      -7.1      1.128      1.248
REMARK  Name = 
REMARK  6 active torsions:
REMARK  status: ('A' for Active; 'I' for Inactive)
REMARK    1  A    between atoms: C_1  and  C_2
REMARK    2  A    between atoms: N_4  and  C_5
REMARK    3  A    between atoms: C_7  and  C_8
REMARK    4  A    between atoms: N_10  and  C_11
REMARK    5  A    between atoms: C_20  and  C_22
REMARK    6  A    between atoms: C_26  and  C_27
REMARK                            x       y       z     vdW  Elec       q    Type
REMARK                         _______ _______ _______ _____ _____    ______ ____
ROOT
ATOM      1  C   UNL     1      -1.067  14.634  22.976  0.00  0.00    +0.000 C 
ATOM      2  C   UNL     1      -0.041  13.825  22.172  0.00  0.00    +0.000 C 
ATOM      3  C   UNL     1      -0.664  13.042  20.996  0.00  0.00    +0.000 C 
ATOM      4  C   UNL     1      -1.863  12.242  21.487  0.00  0.00    +0.000 C 
ATOM      5  N   UNL     1      -2.831  13.082  22.190  0.00  0.00    +0.000 N 
ATOM      6  C   UNL     1      -4.121  13.437  21.783  0.00  0.00    +0.000 C 
ATOM      7  O   UNL     1      -4.799  14.259  22.402  0.00  0.00    +0.000 OA
ATOM      8  C   UNL     1      -2.269  13.753  23.373  0.00  0.00    +0.000 C 
ENDROOT
BRANCH   6   9
ATOM      9  C   UNL     1      -4.723  12.897  20.533  0.00  0.00    +0.000 A 
ATOM     10  C   UNL     1      -6.101  13.071  20.342  0.00  0.00    +0.000 A 
ATOM     11  C   UNL     1      -6.720  12.608  19.180  0.00  0.00    +0.000 A 
ATOM     12  C   UNL     1      -5.960  11.988  18.188  0.00  0.00    +0.000 A 
ATOM     13  C   UNL     1      -4.589  11.774  18.377  0.00  0.00    +0.000 A 
ATOM     14  C   UNL     1      -4.000  12.179  19.581  0.00  0.00    +0.000 A 
BRANCH  13  15
ATOM     15  C   UNL     1      -3.782  11.108  17.370  0.00  0.00    +0.000 A 
ATOM     16  C   UNL     1      -3.924  10.890  16.019  0.00  0.00    +0.000 A 
ATOM     17  C   UNL     1      -2.816  10.102  15.618  0.00  0.00    +0.000 A 
ATOM     18  C   UNL     1      -2.044   9.925  16.743  0.00  0.00    +0.000 A 
ATOM     19  O   UNL     1      -2.619  10.537  17.812  0.00  0.00    +0.000 OA
ENDBRANCH  13  15
ENDBRANCH   6   9
BRANCH   1  23
ATOM     20  C   UNL     1      -1.506  18.152  21.647  0.00  0.00    +0.000 C 
ATOM     21  C   UNL     1      -0.938  17.051  22.500  0.00  0.00    +0.000 C 
ATOM     22  O   UNL     1      -0.043  17.239  23.316  0.00  0.00    +0.000 OA
ATOM     23  N   UNL     1      -1.481  15.814  22.222  0.00  0.00    +0.000 N 
ATOM     24  H   UNL     1      -2.395  15.805  21.790  0.00  0.00    +0.000 HD
ENDBRANCH   1  23
BRANCH   3  25
ATOM     25  C   UNL     1       0.353  12.078  20.392  0.00  0.00    +0.000 C 
ATOM     26  O   UNL     1       1.509  12.444  20.193  0.00  0.00    +0.000 OA
ATOM     27  N   UNL     1      -0.154  10.825  20.061  0.00  0.00    +0.000 N 
ATOM     28  H   UNL     1      -1.155  10.720  19.988  0.00  0.00    +0.000 HD
BRANCH  27  29
ATOM     29  C   UNL     1       0.635   9.748  19.597  0.00  0.00    +0.000 A 
ATOM     30  C   UNL     1       1.056   8.709  20.433  0.00  0.00    +0.000 A 
ATOM     31  C   UNL     1       1.940   7.734  19.969  0.00  0.00    +0.000 A 
ATOM     32  C   UNL     1       2.389   7.780  18.656  0.00  0.00    +0.000 A 
ATOM     33 CL   UNL     1       3.546   6.631  18.111  0.00  0.00    +0.000 Cl
ATOM     34  C   UNL     1       1.912   8.761  17.786  0.00  0.00    +0.000 A 
ATOM     35  C   UNL     1       1.021   9.736  18.253  0.00  0.00    +0.000 A 
ENDBRANCH  27  29
ENDBRANCH   3  25
TORSDOF 5
ENDMDL
MODEL 8
REMARK VINA RESULT:      -7.1      1.687      2.219
REMARK  Name = 
REMARK  6 active torsions:
REMARK  status: ('A' for Active; 'I' for Inactive)
REMARK    1  A    between atoms: C_1  and  C_2
REMARK    2  A    between atoms: N_4  and  C_5
REMARK    3  A    between atoms: C_7  and  C_8
REMARK    4  A    between atoms: N_10  and  C_11
REMARK    5  A    between atoms: C_20  and  C_22
REMARK    6  A    between atoms: C_26  and  C_27
REMARK                            x       y       z     vdW  Elec       q    Type
REMARK                         _______ _______ _______ _____ _____    ______ ____
ROOT
ATOM      1  C   UNL     1       1.519  13.899  20.650  0.00  0.00    +0.000 C 
ATOM      2  C   UNL     1       2.051  12.650  19.934  0.00  0.00    +0.000 C 
ATOM      3  C   UNL     1       0.937  11.790  19.297  0.00  0.00    +0.000 C 
ATOM      4  C   UNL     1      -0.156  11.520  20.321  0.00  0.00    +0.000 C 
ATOM      5  N   UNL     1      -0.662  12.753  20.921  0.00  0.00    +0.000 N 
ATOM      6  C   UNL     1      -1.924  13.335  20.764  0.00  0.00    +0.000 C 
ATOM      7  O   UNL     1      -2.192  14.447  21.219  0.00  0.00    +0.000 OA
ATOM      8  C   UNL     1       0.376  13.530  21.618  0.00  0.00    +0.000 C 
ENDROOT
BRANCH   6   9
ATOM      9  C   UNL     1      -2.996  12.673  19.972  0.00  0.00    +0.000 A 
ATOM     10  C   UNL     1      -4.307  12.732  20.466  0.00  0.00    +0.000 A 
ATOM     11  C   UNL     1      -5.359  12.151  19.757  0.00  0.00    +0.000 A 
ATOM     12  C   UNL     1      -5.112  11.526  18.534  0.00  0.00    +0.000 A 
ATOM     13  C   UNL     1      -3.805  11.427  18.042  0.00  0.00    +0.000 A 
ATOM     14  C   UNL     1      -2.753  11.950  18.804  0.00  0.00    +0.000 A 
BRANCH  13  15
ATOM     15  C   UNL     1      -3.519  10.759  16.784  0.00  0.00    +0.000 A 
ATOM     16  C   UNL     1      -2.564   9.857  16.376  0.00  0.00    +0.000 A 
ATOM     17  C   UNL     1      -2.777   9.643  14.991  0.00  0.00    +0.000 A 
ATOM     18  C   UNL     1      -3.877  10.395  14.652  0.00  0.00    +0.000 A 
ATOM     19  O   UNL     1      -4.339  11.073  15.735  0.00  0.00    +0.000 OA
ENDBRANCH  13  15
ENDBRANCH   6   9
BRANCH   1  23
ATOM     20  C   UNL     1       1.319  16.916  18.373  0.00  0.00    +0.000 C 
ATOM     21  C   UNL     1       1.923  15.970  19.374  0.00  0.00    +0.000 C 
ATOM     22  O   UNL     1       3.052  16.116  19.827  0.00  0.00    +0.000 OA
ATOM     23  N   UNL     1       1.105  14.902  19.674  0.00  0.00    +0.000 N 
ATOM     24  H   UNL     1       0.114  15.029  19.515  0.00  0.00    +0.000 HD
ENDBRANCH   1  23
BRANCH   3  25
ATOM     25  C   UNL     1       1.499  10.455  18.816  0.00  0.00    +0.000 C 
ATOM     26  O   UNL     1       2.042  10.372  17.718  0.00  0.00    +0.000 OA
ATOM     27  N   UNL     1       1.294   9.387  19.686  0.00  0.00    +0.000 N 
ATOM     28  H   UNL     1       0.596   9.488  20.407  0.00  0.00    +0.000 HD
BRANCH  27  29
ATOM     29  C   UNL     1       1.828   8.093  19.492  0.00  0.00    +0.000 A 
ATOM     30  C   UNL     1       2.463   7.710  18.307  0.00  0.00    +0.000 A 
ATOM     31  C   UNL     1       2.860   6.388  18.105  0.00  0.00    +0.000 A 
ATOM     32  C   UNL     1       2.645   5.445  19.100  0.00  0.00    +0.000 A 
ATOM     33 CL   UNL     1       3.053   3.799  18.818  0.00  0.00    +0.000 Cl
ATOM     34  C   UNL     1       2.089   5.829  20.322  0.00  0.00    +0.000 A 
ATOM     35  C   UNL     1       1.696   7.158  20.523  0.00  0.00    +0.000 A 
ENDBRANCH  27  29
ENDBRANCH   3  25
TORSDOF 5
ENDMDL
MODEL 9
REMARK VINA RESULT:      -7.1      1.970      2.674
REMARK  Name = 
REMARK  6 active torsions:
REMARK  status: ('A' for Active; 'I' for Inactive)
REMARK    1  A    between atoms: C_1  and  C_2
REMARK    2  A    between atoms: N_4  and  C_5
REMARK    3  A    between atoms: C_7  and  C_8
REMARK    4  A    between atoms: N_10  and  C_11
REMARK    5  A    between atoms: C_20  and  C_22
REMARK    6  A    between atoms: C_26  and  C_27
REMARK                            x       y       z     vdW  Elec       q    Type
REMARK                         _______ _______ _______ _____ _____    ______ ____
ROOT
ATOM      1  C   UNL     1       1.069  12.782  20.827  0.00  0.00    +0.000 C 
ATOM      2  C   UNL     1       1.550  11.553  20.045  0.00  0.00    +0.000 C 
ATOM      3  C   UNL     1       0.451  10.919  19.164  0.00  0.00    +0.000 C 
ATOM      4  C   UNL     1      -0.808  10.695  19.992  0.00  0.00    +0.000 C 
ATOM      5  N   UNL     1      -1.248  11.919  20.661  0.00  0.00    +0.000 N 
ATOM      6  C   UNL     1      -2.395  12.677  20.405  0.00  0.00    +0.000 C 
ATOM      7  O   UNL     1      -2.595  13.764  20.949  0.00  0.00    +0.000 OA
ATOM      8  C   UNL     1      -0.242  12.474  21.580  0.00  0.00    +0.000 C 
ENDROOT
BRANCH   6   9
ATOM      9  C   UNL     1      -3.408  12.249  19.401  0.00  0.00    +0.000 A 
ATOM     10  C   UNL     1      -4.759  12.474  19.697  0.00  0.00    +0.000 A 
ATOM     11  C   UNL     1      -5.754  12.117  18.786  0.00  0.00    +0.000 A 
ATOM     12  C   UNL     1      -5.402  11.552  17.560  0.00  0.00    +0.000 A 
ATOM     13  C   UNL     1      -4.061  11.287  17.262  0.00  0.00    +0.000 A 
ATOM     14  C   UNL     1      -3.082  11.584  18.219  0.00  0.00    +0.000 A 
BRANCH  13  15
ATOM     15  C   UNL     1      -3.672  10.675  16.003  0.00  0.00    +0.000 A 
ATOM     16  C   UNL     1      -2.521  10.077  15.545  0.00  0.00    +0.000 A 
ATOM     17  C   UNL     1      -2.751   9.746  14.186  0.00  0.00    +0.000 A 
ATOM     18  C   UNL     1      -4.045  10.124  13.913  0.00  0.00    +0.000 A 
ATOM     19  O   UNL     1      -4.615  10.685  15.012  0.00  0.00    +0.000 OA
ENDBRANCH  13  15
ENDBRANCH   6   9
BRANCH   1  23
ATOM     20  C   UNL     1       1.626  15.948  18.827  0.00  0.00    +0.000 C 
ATOM     21  C   UNL     1       1.964  14.818  19.760  0.00  0.00    +0.000 C 
ATOM     22  O   UNL     1       3.072  14.685  20.266  0.00  0.00    +0.000 OA
ATOM     23  N   UNL     1       0.926  13.926  19.931  0.00  0.00    +0.000 N 
ATOM     24  H   UNL     1      -0.006  14.272  19.747  0.00  0.00    +0.000 HD
ENDBRANCH   1  23
BRANCH   3  25
ATOM     25  C   UNL     1       0.916   9.576  18.608  0.00  0.00    +0.000 C 
ATOM     26  O   UNL     1       0.542   9.204  17.498  0.00  0.00    +0.000 OA
ATOM     27  N   UNL     1       1.723   8.836  19.466  0.00  0.00    +0.000 N 
ATOM     28  H   UNL     1       1.732   9.083  20.444  0.00  0.00    +0.000 HD
BRANCH  27  29
ATOM     29  C   UNL     1       2.354   7.622  19.111  0.00  0.00    +0.000 A 
ATOM     30  C   UNL     1       3.196   7.507  18.001  0.00  0.00    +0.000 A 
ATOM     31  C   UNL     1       3.695   6.265  17.609  0.00  0.00    +0.000 A 
ATOM     32  C   UNL     1       3.374   5.131  18.342  0.00  0.00    +0.000 A 
ATOM     33 CL   UNL     1       3.916   3.589  17.809  0.00  0.00    +0.000 Cl
ATOM     34  C   UNL     1       2.604   5.241  19.501  0.00  0.00    +0.000 A 
ATOM     35  C   UNL     1       2.108   6.490  19.895  0.00  0.00    +0.000 A 
ENDBRANCH  27  29
ENDBRANCH   3  25
TORSDOF 5
ENDMDL
