MODEL 1
REMARK VINA RESULT:      -7.6      0.000      0.000
REMARK  Name = 
REMARK  6 active torsions:
REMARK  status: ('A' for Active; 'I' for Inactive)
REMARK    1  A    between atoms: C_2  and  C_3
REMARK    2  A    between atoms: C_7  and  O_8
REMARK    3  A    between atoms: O_8  and  C_9
REMARK    4  A    between atoms: N_14  and  C_15
REMARK    5  A    between atoms: C_15  and  C_16
REMARK    6  A    between atoms: C_15  and  C_22
REMARK                            x       y       z     vdW  Elec       q    Type
REMARK                         _______ _______ _______ _____ _____    ______ ____
ROOT
ATOM      1  C   UNL     1       1.771   9.685  18.147  0.00  0.00    +0.000 C 
ATOM      2  O   UNL     1       2.096  10.612  17.414  0.00  0.00    +0.000 OA
ATOM      3  N   UNL     1       2.435   8.474  18.208  0.00  0.00    +0.000 N 
ATOM      4  C   UNL     1       3.585   8.222  17.345  0.00  0.00    +0.000 C 
ATOM      5  C   UNL     1       4.611   7.295  18.035  0.00  0.00    +0.000 C 
ATOM      6  N   UNL     1       4.042   6.036  18.606  0.00  0.00    +0.000 NA
ATOM      7  C   UNL     1       2.938   6.436  19.510  0.00  0.00    +0.000 C 
ATOM      8  C   UNL     1       1.854   7.298  18.855  0.00  0.00    +0.000 C 
ENDROOT
BRANCH   1   9
ATOM      9  O   UNL     1       0.690   9.721  19.025  0.00  0.00    +0.000 OA
BRANCH   9  14
ATOM     10  C   UNL     1      -2.429  10.751  17.324  0.00  0.00    +0.000 A 
ATOM     11  C   UNL     1      -2.974  11.582  18.314  0.00  0.00    +0.000 A 
ATOM     12  C   UNL     1      -2.270  11.826  19.495  0.00  0.00    +0.000 A 
ATOM     13  C   UNL     1      -1.023  11.236  19.693  0.00  0.00    +0.000 A 
ATOM     14  C   UNL     1      -0.489  10.411  18.702  0.00  0.00    +0.000 A 
ATOM     15  C   UNL     1      -1.181  10.157  17.521  0.00  0.00    +0.000 A 
BRANCH  10  17
ATOM     16  N   UNL     1      -3.768  10.267  15.156  0.00  0.00    +0.000 NA
ATOM     17  C   UNL     1      -3.162  10.487  16.124  0.00  0.00    +0.000 C 
ENDBRANCH  10  17
ENDBRANCH   9  14
ENDBRANCH   1   9
BRANCH   6  18
ATOM     18  C   UNL     1       3.643   5.066  17.536  0.00  0.00    +0.000 C 
BRANCH  18  19
ATOM     19  C   UNL     1       4.859   4.705  16.671  0.00  0.00    +0.000 A 
ATOM     20  C   UNL     1       6.147   4.638  17.230  0.00  0.00    +0.000 A 
ATOM     21  C   UNL     1       7.270   4.485  16.415  0.00  0.00    +0.000 A 
ATOM     22  C   UNL     1       7.122   4.392  15.033  0.00  0.00    +0.000 A 
ATOM     23  C   UNL     1       5.849   4.420  14.465  0.00  0.00    +0.000 A 
ATOM     24  C   UNL     1       4.723   4.566  15.278  0.00  0.00    +0.000 A 
ENDBRANCH  18  19
BRANCH  18  25
ATOM     25  C   UNL     1       2.920   3.796  18.020  0.00  0.00    +0.000 A 
ATOM     26  C   UNL     1       3.677   2.657  18.355  0.00  0.00    +0.000 A 
ATOM     27  C   UNL     1       3.060   1.482  18.794  0.00  0.00    +0.000 A 
ATOM     28  C   UNL     1       1.673   1.423  18.902  0.00  0.00    +0.000 A 
ATOM     29  C   UNL     1       0.906   2.542  18.591  0.00  0.00    +0.000 A 
ATOM     30  C   UNL     1       1.524   3.724  18.173  0.00  0.00    +0.000 A 
ENDBRANCH  18  25
ENDBRANCH   6  18
TORSDOF 6
ENDMDL
MODEL 2
REMARK VINA RESULT:      -7.5      0.646      1.149
REMARK  Name = 
REMARK  6 active torsions:
REMARK  status: ('A' for Active; 'I' for Inactive)
REMARK    1  A    between atoms: C_2  and  C_3
REMARK    2  A    between atoms: C_7  and  O_8
REMARK    3  A    between atoms: O_8  and  C_9
REMARK    4  A    between atoms: N_14  and  C_15
REMARK    5  A    between atoms: C_15  and  C_16
REMARK    6  A    between atoms: C_15  and  C_22
REMARK                            x       y       z     vdW  Elec       q    Type
REMARK                         _______ _______ _______ _____ _____    ______ ____
ROOT
ATOM      1  C   UNL     1       1.723   9.566  18.245  0.00  0.00    +0.000 C 
ATOM      2  O   UNL     1       1.929  10.512  17.494  0.00  0.00    +0.000 OA
ATOM      3  N   UNL     1       2.450   8.390  18.233  0.00  0.00    +0.000 N 
ATOM      4  C   UNL     1       3.523   8.201  17.262  0.00  0.00    +0.000 C 
ATOM      5  C   UNL     1       4.655   7.324  17.843  0.00  0.00    +0.000 C 
ATOM      6  N   UNL     1       4.207   6.036  18.454  0.00  0.00    +0.000 NA
ATOM      7  C   UNL     1       3.176   6.375  19.462  0.00  0.00    +0.000 C 
ATOM      8  C   UNL     1       1.992   7.184  18.921  0.00  0.00    +0.000 C 
ENDROOT
BRANCH   1   9
ATOM      9  O   UNL     1       0.730   9.543  19.223  0.00  0.00    +0.000 OA
BRANCH   9  14
ATOM     10  C   UNL     1      -2.419  11.349  18.507  0.00  0.00    +0.000 A 
ATOM     11  C   UNL     1      -2.427  12.246  19.584  0.00  0.00    +0.000 A 
ATOM     12  C   UNL     1      -1.362  12.271  20.488  0.00  0.00    +0.000 A 
ATOM     13  C   UNL     1      -0.291  11.395  20.321  0.00  0.00    +0.000 A 
ATOM     14  C   UNL     1      -0.292  10.506  19.246  0.00  0.00    +0.000 A 
ATOM     15  C   UNL     1      -1.348  10.468  18.339  0.00  0.00    +0.000 A 
BRANCH  10  17
ATOM     16  N   UNL     1      -4.423  11.291  16.861  0.00  0.00    +0.000 NA
ATOM     17  C   UNL     1      -3.521  11.312  17.595  0.00  0.00    +0.000 C 
ENDBRANCH  10  17
ENDBRANCH   9  14
ENDBRANCH   1   9
BRANCH   6  18
ATOM     18  C   UNL     1       3.758   5.051  17.417  0.00  0.00    +0.000 C 
BRANCH  18  19
ATOM     19  C   UNL     1       4.930   4.682  16.497  0.00  0.00    +0.000 A 
ATOM     20  C   UNL     1       6.252   4.691  16.974  0.00  0.00    +0.000 A 
ATOM     21  C   UNL     1       7.326   4.529  16.098  0.00  0.00    +0.000 A 
ATOM     22  C   UNL     1       7.095   4.351  14.736  0.00  0.00    +0.000 A 
ATOM     23  C   UNL     1       5.789   4.304  14.251  0.00  0.00    +0.000 A 
ATOM     24  C   UNL     1       4.711   4.459  15.126  0.00  0.00    +0.000 A 
ENDBRANCH  18  19
BRANCH  18  25
ATOM     25  C   UNL     1       3.064   3.786  17.953  0.00  0.00    +0.000 A 
ATOM     26  C   UNL     1       1.658   3.754  18.036  0.00  0.00    +0.000 A 
ATOM     27  C   UNL     1       0.988   2.627  18.521  0.00  0.00    +0.000 A 
ATOM     28  C   UNL     1       1.711   1.512  18.936  0.00  0.00    +0.000 A 
ATOM     29  C   UNL     1       3.100   1.517  18.849  0.00  0.00    +0.000 A 
ATOM     30  C   UNL     1       3.770   2.635  18.343  0.00  0.00    +0.000 A 
ENDBRANCH  18  25
ENDBRANCH   6  18
TORSDOF 6
ENDMDL
MODEL 3
REMARK VINA RESULT:      -7.4      2.342      2.888
REMARK  Name = 
REMARK  6 active torsions:
REMARK  status: ('A' for Active; 'I' for Inactive)
REMARK    1  A    between atoms: C_2  and  C_3
REMARK    2  A    between atoms: C_7  and  O_8
REMARK    3  A    between atoms: O_8  and  C_9
REMARK    4  A    between atoms: N_14  and  C_15
REMARK    5  A    between atoms: C_15  and  C_16
REMARK    6  A    between atoms: C_15  and  C_22
REMARK                            x       y       z     vdW  Elec       q    Type
REMARK                         _______ _______ _______ _____ _____    ______ ____
ROOT
ATOM      1  C   UNL     1       1.340   9.050  19.203  0.00  0.00    +0.000 C 
ATOM      2  O   UNL     1       1.106  10.055  18.542  0.00  0.00    +0.000 OA
ATOM      3  N   UNL     1       2.246   8.073  18.838  0.00  0.00    +0.000 N 
ATOM      4  C   UNL     1       2.977   8.182  17.579  0.00  0.00    +0.000 C 
ATOM      5  C   UNL     1       4.386   7.558  17.694  0.00  0.00    +0.000 C 
ATOM      6  N   UNL     1       4.420   6.172  18.253  0.00  0.00    +0.000 NA
ATOM      7  C   UNL     1       3.710   6.216  19.551  0.00  0.00    +0.000 C 
ATOM      8  C   UNL     1       2.280   6.760  19.483  0.00  0.00    +0.000 C 
ENDROOT
BRANCH   1   9
ATOM      9  O   UNL     1       0.728   8.752  20.420  0.00  0.00    +0.000 OA
BRANCH   9  14
ATOM     10  C   UNL     1      -0.261  12.069  21.727  0.00  0.00    +0.000 A 
ATOM     11  C   UNL     1      -0.954  11.672  22.879  0.00  0.00    +0.000 A 
ATOM     12  C   UNL     1      -1.027  10.320  23.226  0.00  0.00    +0.000 A 
ATOM     13  C   UNL     1      -0.414   9.363  22.419  0.00  0.00    +0.000 A 
ATOM     14  C   UNL     1       0.273   9.769  21.274  0.00  0.00    +0.000 A 
ATOM     15  C   UNL     1       0.351  11.112  20.915  0.00  0.00    +0.000 A 
BRANCH  10  17
ATOM     16  N   UNL     1      -0.172  14.578  21.073  0.00  0.00    +0.000 NA
ATOM     17  C   UNL     1      -0.206  13.452  21.364  0.00  0.00    +0.000 C 
ENDBRANCH  10  17
ENDBRANCH   9  14
ENDBRANCH   1   9
BRANCH   6  18
ATOM     18  C   UNL     1       3.876   5.165  17.285  0.00  0.00    +0.000 C 
BRANCH  18  19
ATOM     19  C   UNL     1       4.964   4.753  16.284  0.00  0.00    +0.000 A 
ATOM     20  C   UNL     1       6.326   4.930  16.586  0.00  0.00    +0.000 A 
ATOM     21  C   UNL     1       7.304   4.721  15.612  0.00  0.00    +0.000 A 
ATOM     22  C   UNL     1       6.937   4.330  14.327  0.00  0.00    +0.000 A 
ATOM     23  C   UNL     1       5.595   4.116  14.020  0.00  0.00    +0.000 A 
ATOM     24  C   UNL     1       4.613   4.316  14.994  0.00  0.00    +0.000 A 
ENDBRANCH  18  19
BRANCH  18  25
ATOM     25  C   UNL     1       3.212   3.926  17.912  0.00  0.00    +0.000 A 
ATOM     26  C   UNL     1       1.811   3.798  17.866  0.00  0.00    +0.000 A 
ATOM     27  C   UNL     1       1.167   2.692  18.428  0.00  0.00    +0.000 A 
ATOM     28  C   UNL     1       1.913   1.693  19.048  0.00  0.00    +0.000 A 
ATOM     29  C   UNL     1       3.300   1.792  19.092  0.00  0.00    +0.000 A 
ATOM     30  C   UNL     1       3.946   2.887  18.511  0.00  0.00    +0.000 A 
ENDBRANCH  18  25
ENDBRANCH   6  18
TORSDOF 6
ENDMDL
MODEL 4
REMARK VINA RESULT:      -7.3      1.730      2.666
REMARK  Name = 
REMARK  6 active torsions:
REMARK  status: ('A' for Active; 'I' for Inactive)
REMARK    1  A    between atoms: C_2  and  C_3
REMARK    2  A    between atoms: C_7  and  O_8
REMARK    3  A    between atoms: O_8  and  C_9
REMARK    4  A    between atoms: N_14  and  C_15
REMARK    5  A    between atoms: C_15  and  C_16
REMARK    6  A    between atoms: C_15  and  C_22
REMARK                            x       y       z     vdW  Elec       q    Type
REMARK                         _______ _______ _______ _____ _____    ______ ____
ROOT
ATOM      1  C   UNL     1       1.562   9.386  18.659  0.00  0.00    +0.000 C 
ATOM      2  O   UNL     1       1.607  10.374  17.935  0.00  0.00    +0.000 OA
ATOM      3  N   UNL     1       2.364   8.272  18.504  0.00  0.00    +0.000 N 
ATOM      4  C   UNL     1       3.323   8.204  17.406  0.00  0.00    +0.000 C 
ATOM      5  C   UNL     1       4.578   7.395  17.808  0.00  0.00    +0.000 C 
ATOM      6  N   UNL     1       4.301   6.053  18.404  0.00  0.00    +0.000 NA
ATOM      7  C   UNL     1       3.377   6.271  19.541  0.00  0.00    +0.000 C 
ATOM      8  C   UNL     1       2.081   7.007  19.182  0.00  0.00    +0.000 C 
ENDROOT
BRANCH   1   9
ATOM      9  O   UNL     1       0.698   9.248  19.744  0.00  0.00    +0.000 OA
BRANCH   9  14
ATOM     10  C   UNL     1      -0.992  12.108  21.372  0.00  0.00    +0.000 A 
ATOM     11  C   UNL     1      -1.968  12.388  20.405  0.00  0.00    +0.000 A 
ATOM     12  C   UNL     1      -2.079  11.588  19.264  0.00  0.00    +0.000 A 
ATOM     13  C   UNL     1      -1.212  10.512  19.086  0.00  0.00    +0.000 A 
ATOM     14  C   UNL     1      -0.245  10.241  20.055  0.00  0.00    +0.000 A 
ATOM     15  C   UNL     1      -0.121  11.031  21.194  0.00  0.00    +0.000 A 
BRANCH  10  17
ATOM     16  N   UNL     1      -0.779  13.617  23.471  0.00  0.00    +0.000 NA
ATOM     17  C   UNL     1      -0.868  12.942  22.528  0.00  0.00    +0.000 C 
ENDBRANCH  10  17
ENDBRANCH   9  14
ENDBRANCH   1   9
BRANCH   6  18
ATOM     18  C   UNL     1       3.802   5.078  17.381  0.00  0.00    +0.000 C 
BRANCH  18  19
ATOM     19  C   UNL     1       4.935   4.695  16.419  0.00  0.00    +0.000 A 
ATOM     20  C   UNL     1       6.278   4.736  16.835  0.00  0.00    +0.000 A 
ATOM     21  C   UNL     1       7.313   4.560  15.915  0.00  0.00    +0.000 A 
ATOM     22  C   UNL     1       7.023   4.337  14.571  0.00  0.00    +0.000 A 
ATOM     23  C   UNL     1       5.697   4.258  14.149  0.00  0.00    +0.000 A 
ATOM     24  C   UNL     1       4.658   4.427  15.067  0.00  0.00    +0.000 A 
ENDBRANCH  18  19
BRANCH  18  25
ATOM     25  C   UNL     1       3.108   3.822  17.937  0.00  0.00    +0.000 A 
ATOM     26  C   UNL     1       1.701   3.764  17.959  0.00  0.00    +0.000 A 
ATOM     27  C   UNL     1       1.031   2.644  18.460  0.00  0.00    +0.000 A 
ATOM     28  C   UNL     1       1.756   1.562  18.952  0.00  0.00    +0.000 A 
ATOM     29  C   UNL     1       3.147   1.592  18.927  0.00  0.00    +0.000 A 
ATOM     30  C   UNL     1       3.818   2.702  18.405  0.00  0.00    +0.000 A 
ENDBRANCH  18  25
ENDBRANCH   6  18
TORSDOF 6
ENDMDL
MODEL 5
REMARK VINA RESULT:      -7.3      1.380      2.049
REMARK  Name = 
REMARK  6 active torsions:
REMARK  status: ('A' for Active; 'I' for Inactive)
REMARK    1  A    between atoms: C_2  and  C_3
REMARK    2  A    between atoms: C_7  and  O_8
REMARK    3  A    between atoms: O_8  and  C_9
REMARK    4  A    between atoms: N_14  and  C_15
REMARK    5  A    between atoms: C_15  and  C_16
REMARK    6  A    between atoms: C_15  and  C_22
REMARK                            x       y       z     vdW  Elec       q    Type
REMARK                         _______ _______ _______ _____ _____    ______ ____
ROOT
ATOM      1  C   UNL     1       1.742   9.567  18.303  0.00  0.00    +0.000 C 
ATOM      2  O   UNL     1       1.938  10.516  17.553  0.00  0.00    +0.000 OA
ATOM      3  N   UNL     1       2.466   8.390  18.274  0.00  0.00    +0.000 N 
ATOM      4  C   UNL     1       3.524   8.203  17.286  0.00  0.00    +0.000 C 
ATOM      5  C   UNL     1       4.664   7.322  17.846  0.00  0.00    +0.000 C 
ATOM      6  N   UNL     1       4.223   6.032  18.458  0.00  0.00    +0.000 NA
ATOM      7  C   UNL     1       3.208   6.368  19.483  0.00  0.00    +0.000 C 
ATOM      8  C   UNL     1       2.018   7.181  18.964  0.00  0.00    +0.000 C 
ENDROOT
BRANCH   1   9
ATOM      9  O   UNL     1       0.764   9.541  19.296  0.00  0.00    +0.000 OA
BRANCH   9  14
ATOM     10  C   UNL     1      -1.868  12.126  19.579  0.00  0.00    +0.000 A 
ATOM     11  C   UNL     1      -2.710  11.721  18.534  0.00  0.00    +0.000 A 
ATOM     12  C   UNL     1      -2.416  10.570  17.798  0.00  0.00    +0.000 A 
ATOM     13  C   UNL     1      -1.278   9.826  18.101  0.00  0.00    +0.000 A 
ATOM     14  C   UNL     1      -0.447  10.236  19.144  0.00  0.00    +0.000 A 
ATOM     15  C   UNL     1      -0.726  11.383  19.883  0.00  0.00    +0.000 A 
BRANCH  10  17
ATOM     16  N   UNL     1      -2.387  14.287  20.916  0.00  0.00    +0.000 NA
ATOM     17  C   UNL     1      -2.161  13.316  20.317  0.00  0.00    +0.000 C 
ENDBRANCH  10  17
ENDBRANCH   9  14
ENDBRANCH   1   9
BRANCH   6  18
ATOM     18  C   UNL     1       3.756   5.052  17.424  0.00  0.00    +0.000 C 
BRANCH  18  19
ATOM     19  C   UNL     1       4.916   4.673  16.494  0.00  0.00    +0.000 A 
ATOM     20  C   UNL     1       6.241   4.650  16.966  0.00  0.00    +0.000 A 
ATOM     21  C   UNL     1       7.308   4.479  16.083  0.00  0.00    +0.000 A 
ATOM     22  C   UNL     1       7.068   4.324  14.719  0.00  0.00    +0.000 A 
ATOM     23  C   UNL     1       5.760   4.309  14.239  0.00  0.00    +0.000 A 
ATOM     24  C   UNL     1       4.688   4.473  15.121  0.00  0.00    +0.000 A 
ENDBRANCH  18  19
BRANCH  18  25
ATOM     25  C   UNL     1       3.054   3.794  17.965  0.00  0.00    +0.000 A 
ATOM     26  C   UNL     1       1.648   3.763  18.032  0.00  0.00    +0.000 A 
ATOM     27  C   UNL     1       0.971   2.643  18.520  0.00  0.00    +0.000 A 
ATOM     28  C   UNL     1       1.688   1.531  18.955  0.00  0.00    +0.000 A 
ATOM     29  C   UNL     1       3.078   1.533  18.884  0.00  0.00    +0.000 A 
ATOM     30  C   UNL     1       3.754   2.645  18.374  0.00  0.00    +0.000 A 
ENDBRANCH  18  25
ENDBRANCH   6  18
TORSDOF 6
ENDMDL
MODEL 6
REMARK VINA RESULT:      -7.3      0.174      1.257
REMARK  Name = 
REMARK  6 active torsions:
REMARK  status: ('A' for Active; 'I' for Inactive)
REMARK    1  A    between atoms: C_2  and  C_3
REMARK    2  A    between atoms: C_7  and  O_8
REMARK    3  A    between atoms: O_8  and  C_9
REMARK    4  A    between atoms: N_14  and  C_15
REMARK    5  A    between atoms: C_15  and  C_16
REMARK    6  A    between atoms: C_15  and  C_22
REMARK                            x       y       z     vdW  Elec       q    Type
REMARK                         _______ _______ _______ _____ _____    ______ ____
ROOT
ATOM      1  C   UNL     1       1.730   9.787  18.132  0.00  0.00    +0.000 C 
ATOM      2  O   UNL     1       2.081  10.723  17.425  0.00  0.00    +0.000 OA
ATOM      3  N   UNL     1       2.392   8.575  18.203  0.00  0.00    +0.000 N 
ATOM      4  C   UNL     1       3.573   8.334  17.379  0.00  0.00    +0.000 C 
ATOM      5  C   UNL     1       4.573   7.398  18.095  0.00  0.00    +0.000 C 
ATOM      6  N   UNL     1       3.984   6.132  18.629  0.00  0.00    +0.000 NA
ATOM      7  C   UNL     1       2.848   6.520  19.496  0.00  0.00    +0.000 C 
ATOM      8  C   UNL     1       1.788   7.391  18.813  0.00  0.00    +0.000 C 
ENDROOT
BRANCH   1   9
ATOM      9  O   UNL     1       0.618   9.811  18.971  0.00  0.00    +0.000 OA
BRANCH   9  14
ATOM     10  C   UNL     1      -2.471  10.676  17.128  0.00  0.00    +0.000 A 
ATOM     11  C   UNL     1      -3.082  11.516  18.070  0.00  0.00    +0.000 A 
ATOM     12  C   UNL     1      -2.430  11.821  19.268  0.00  0.00    +0.000 A 
ATOM     13  C   UNL     1      -1.171  11.283  19.529  0.00  0.00    +0.000 A 
ATOM     14  C   UNL     1      -0.572  10.449  18.584  0.00  0.00    +0.000 A 
ATOM     15  C   UNL     1      -1.211  10.134  17.388  0.00  0.00    +0.000 A 
BRANCH  10  17
ATOM     16  N   UNL     1      -3.713  10.087  14.928  0.00  0.00    +0.000 NA
ATOM     17  C   UNL     1      -3.150  10.350  15.911  0.00  0.00    +0.000 C 
ENDBRANCH  10  17
ENDBRANCH   9  14
ENDBRANCH   1   9
BRANCH   6  18
ATOM     18  C   UNL     1       3.625   5.176  17.532  0.00  0.00    +0.000 C 
BRANCH  18  19
ATOM     19  C   UNL     1       4.840   4.931  16.626  0.00  0.00    +0.000 A 
ATOM     20  C   UNL     1       4.674   4.637  15.261  0.00  0.00    +0.000 A 
ATOM     21  C   UNL     1       5.762   4.242  14.481  0.00  0.00    +0.000 A 
ATOM     22  C   UNL     1       7.029   4.139  15.050  0.00  0.00    +0.000 A 
ATOM     23  C   UNL     1       7.217   4.461  16.393  0.00  0.00    +0.000 A 
ATOM     24  C   UNL     1       6.132   4.863  17.176  0.00  0.00    +0.000 A 
ENDBRANCH  18  19
BRANCH  18  25
ATOM     25  C   UNL     1       3.003   3.843  17.984  0.00  0.00    +0.000 A 
ATOM     26  C   UNL     1       1.604   3.742  18.110  0.00  0.00    +0.000 A 
ATOM     27  C   UNL     1       0.998   2.552  18.522  0.00  0.00    +0.000 A 
ATOM     28  C   UNL     1       1.781   1.440  18.821  0.00  0.00    +0.000 A 
ATOM     29  C   UNL     1       3.164   1.512  18.689  0.00  0.00    +0.000 A 
ATOM     30  C   UNL     1       3.769   2.695  18.255  0.00  0.00    +0.000 A 
ENDBRANCH  18  25
ENDBRANCH   6  18
TORSDOF 6
ENDMDL
MODEL 7
REMARK VINA RESULT:      -7.1      3.247      7.865
REMARK  Name = 
REMARK  6 active torsions:
REMARK  status: ('A' for Active; 'I' for Inactive)
REMARK    1  A    between atoms: C_2  and  C_3
REMARK    2  A    between atoms: C_7  and  O_8
REMARK    3  A    between atoms: O_8  and  C_9
REMARK    4  A    between atoms: N_14  and  C_15
REMARK    5  A    between atoms: C_15  and  C_16
REMARK    6  A    between atoms: C_15  and  C_22
REMARK                            x       y       z     vdW  Elec       q    Type
REMARK                         _______ _______ _______ _____ _____    ______ ____
ROOT
ATOM      1  C   UNL     1       6.528   6.042  16.550  0.00  0.00    +0.000 C 
ATOM      2  O   UNL     1       7.393   6.906  16.465  0.00  0.00    +0.000 OA
ATOM      3  N   UNL     1       5.290   6.237  17.135  0.00  0.00    +0.000 N 
ATOM      4  C   UNL     1       4.954   7.526  17.731  0.00  0.00    +0.000 C 
ATOM      5  C   UNL     1       3.445   7.830  17.593  0.00  0.00    +0.000 C 
ATOM      6  N   UNL     1       2.535   6.736  18.053  0.00  0.00    +0.000 NA
ATOM      7  C   UNL     1       2.937   5.510  17.326  0.00  0.00    +0.000 C 
ATOM      8  C   UNL     1       4.411   5.123  17.488  0.00  0.00    +0.000 C 
ENDROOT
BRANCH   1   9
ATOM      9  O   UNL     1       6.666   4.743  16.065  0.00  0.00    +0.000 OA
BRANCH   9  14
ATOM     10  C   UNL     1       5.876   3.785  12.580  0.00  0.00    +0.000 A 
ATOM     11  C   UNL     1       6.988   4.334  11.926  0.00  0.00    +0.000 A 
ATOM     12  C   UNL     1       8.000   4.957  12.661  0.00  0.00    +0.000 A 
ATOM     13  C   UNL     1       7.900   5.038  14.048  0.00  0.00    +0.000 A 
ATOM     14  C   UNL     1       6.789   4.489  14.690  0.00  0.00    +0.000 A 
ATOM     15  C   UNL     1       5.772   3.868  13.970  0.00  0.00    +0.000 A 
BRANCH  10  17
ATOM     16  N   UNL     1       3.988   2.666  11.197  0.00  0.00    +0.000 NA
ATOM     17  C   UNL     1       4.831   3.166  11.823  0.00  0.00    +0.000 C 
ENDBRANCH  10  17
ENDBRANCH   9  14
ENDBRANCH   1   9
BRANCH   6  18
ATOM     18  C   UNL     1       2.536   6.598  19.545  0.00  0.00    +0.000 C 
BRANCH  18  19
ATOM     19  C   UNL     1       1.707   7.723  20.180  0.00  0.00    +0.000 A 
ATOM     20  C   UNL     1       1.354   8.866  19.440  0.00  0.00    +0.000 A 
ATOM     21  C   UNL     1       0.757   9.961  20.064  0.00  0.00    +0.000 A 
ATOM     22  C   UNL     1       0.498   9.931  21.432  0.00  0.00    +0.000 A 
ATOM     23  C   UNL     1       0.809   8.793  22.175  0.00  0.00    +0.000 A 
ATOM     24  C   UNL     1       1.401   7.691  21.553  0.00  0.00    +0.000 A 
ENDBRANCH  18  19
BRANCH  18  25
ATOM     25  C   UNL     1       2.103   5.226  20.090  0.00  0.00    +0.000 A 
ATOM     26  C   UNL     1       1.076   4.517  19.436  0.00  0.00    +0.000 A 
ATOM     27  C   UNL     1       0.649   3.270  19.900  0.00  0.00    +0.000 A 
ATOM     28  C   UNL     1       1.239   2.709  21.030  0.00  0.00    +0.000 A 
ATOM     29  C   UNL     1       2.265   3.384  21.683  0.00  0.00    +0.000 A 
ATOM     30  C   UNL     1       2.708   4.621  21.206  0.00  0.00    +0.000 A 
ENDBRANCH  18  25
ENDBRANCH   6  18
TORSDOF 6
ENDMDL
MODEL 8
REMARK VINA RESULT:      -7.0      2.955      9.354
REMARK  Name = 
REMARK  6 active torsions:
REMARK  status: ('A' for Active; 'I' for Inactive)
REMARK    1  A    between atoms: C_2  and  C_3
REMARK    2  A    between atoms: C_7  and  O_8
REMARK    3  A    between atoms: O_8  and  C_9
REMARK    4  A    between atoms: N_14  and  C_15
REMARK    5  A    between atoms: C_15  and  C_16
REMARK    6  A    between atoms: C_15  and  C_22
REMARK                            x       y       z     vdW  Elec       q    Type
REMARK                         _______ _______ _______ _____ _____    ______ ____
ROOT
ATOM      1  C   UNL     1       2.198   8.473  18.303  0.00  0.00    +0.000 C 
ATOM      2  O   UNL     1       2.625   8.765  17.193  0.00  0.00    +0.000 OA
ATOM      3  N   UNL     1       1.319   9.255  19.029  0.00  0.00    +0.000 N 
ATOM      4  C   UNL     1       0.863  10.535  18.495  0.00  0.00    +0.000 C 
ATOM      5  C   UNL     1      -0.580  10.850  18.952  0.00  0.00    +0.000 C 
ATOM      6  N   UNL     1      -0.817  10.730  20.423  0.00  0.00    +0.000 NA
ATOM      7  C   UNL     1      -0.379   9.372  20.819  0.00  0.00    +0.000 C 
ATOM      8  C   UNL     1       1.070   9.033  20.453  0.00  0.00    +0.000 C 
ENDROOT
BRANCH   1   9
ATOM      9  O   UNL     1       2.533   7.309  18.991  0.00  0.00    +0.000 OA
BRANCH   9  14
ATOM     10  C   UNL     1       4.922   4.871  17.562  0.00  0.00    +0.000 A 
ATOM     11  C   UNL     1       4.045   3.810  17.295  0.00  0.00    +0.000 A 
ATOM     12  C   UNL     1       2.676   3.948  17.541  0.00  0.00    +0.000 A 
ATOM     13  C   UNL     1       2.183   5.144  18.059  0.00  0.00    +0.000 A 
ATOM     14  C   UNL     1       3.064   6.194  18.322  0.00  0.00    +0.000 A 
ATOM     15  C   UNL     1       4.430   6.069  18.084  0.00  0.00    +0.000 A 
BRANCH  10  17
ATOM     16  N   UNL     1       7.467   4.607  17.133  0.00  0.00    +0.000 NA
ATOM     17  C   UNL     1       6.325   4.719  17.328  0.00  0.00    +0.000 C 
ENDBRANCH  10  17
ENDBRANCH   9  14
ENDBRANCH   1   9
BRANCH   6  18
ATOM     18  C   UNL     1      -0.160  11.839  21.188  0.00  0.00    +0.000 C 
BRANCH  18  19
ATOM     19  C   UNL     1       0.432  12.872  20.219  0.00  0.00    +0.000 A 
ATOM     20  C   UNL     1       1.821  13.071  20.137  0.00  0.00    +0.000 A 
ATOM     21  C   UNL     1       2.346  14.126  19.390  0.00  0.00    +0.000 A 
ATOM     22  C   UNL     1       1.493  14.994  18.711  0.00  0.00    +0.000 A 
ATOM     23  C   UNL     1       0.115  14.789  18.753  0.00  0.00    +0.000 A 
ATOM     24  C   UNL     1      -0.414  13.730  19.494  0.00  0.00    +0.000 A 
ENDBRANCH  18  19
BRANCH  18  25
ATOM     25  C   UNL     1      -1.034  12.526  22.252  0.00  0.00    +0.000 A 
ATOM     26  C   UNL     1      -2.254  11.933  22.630  0.00  0.00    +0.000 A 
ATOM     27  C   UNL     1      -3.080  12.527  23.589  0.00  0.00    +0.000 A 
ATOM     28  C   UNL     1      -2.704  13.727  24.186  0.00  0.00    +0.000 A 
ATOM     29  C   UNL     1      -1.495  14.323  23.839  0.00  0.00    +0.000 A 
ATOM     30  C   UNL     1      -0.658  13.718  22.896  0.00  0.00    +0.000 A 
ENDBRANCH  18  25
ENDBRANCH   6  18
TORSDOF 6
ENDMDL
MODEL 9
REMARK VINA RESULT:      -7.0      2.467      9.445
REMARK  Name = 
REMARK  6 active torsions:
REMARK  status: ('A' for Active; 'I' for Inactive)
REMARK    1  A    between atoms: C_2  and  C_3
REMARK    2  A    between atoms: C_7  and  O_8
REMARK    3  A    between atoms: O_8  and  C_9
REMARK    4  A    between atoms: N_14  and  C_15
REMARK    5  A    between atoms: C_15  and  C_16
REMARK    6  A    between atoms: C_15  and  C_22
REMARK                            x       y       z     vdW  Elec       q    Type
REMARK                         _______ _______ _______ _____ _____    ______ ____
ROOT
ATOM      1  C   UNL     1       2.183   6.978  19.751  0.00  0.00    +0.000 C 
ATOM      2  O   UNL     1       2.266   6.018  20.507  0.00  0.00    +0.000 OA
ATOM      3  N   UNL     1       1.624   8.194  20.097  0.00  0.00    +0.000 N 
ATOM      4  C   UNL     1       1.056   8.389  21.427  0.00  0.00    +0.000 C 
ATOM      5  C   UNL     1       1.226   9.851  21.900  0.00  0.00    +0.000 C 
ATOM      6  N   UNL     1       0.765  10.888  20.927  0.00  0.00    +0.000 NA
ATOM      7  C   UNL     1       1.463  10.618  19.649  0.00  0.00    +0.000 C 
ATOM      8  C   UNL     1       1.268   9.201  19.098  0.00  0.00    +0.000 C 
ENDROOT
BRANCH   1   9
ATOM      9  O   UNL     1       2.643   6.983  18.436  0.00  0.00    +0.000 OA
BRANCH   9  14
ATOM     10  C   UNL     1       5.237   4.608  17.286  0.00  0.00    +0.000 A 
ATOM     11  C   UNL     1       4.444   3.470  17.088  0.00  0.00    +0.000 A 
ATOM     12  C   UNL     1       3.062   3.531  17.285  0.00  0.00    +0.000 A 
ATOM     13  C   UNL     1       2.472   4.728  17.685  0.00  0.00    +0.000 A 
ATOM     14  C   UNL     1       3.270   5.856  17.879  0.00  0.00    +0.000 A 
ATOM     15  C   UNL     1       4.648   5.808  17.690  0.00  0.00    +0.000 A 
BRANCH  10  17
ATOM     16  N   UNL     1       7.809   4.487  16.966  0.00  0.00    +0.000 NA
ATOM     17  C   UNL     1       6.655   4.537  17.104  0.00  0.00    +0.000 C 
ENDBRANCH  10  17
ENDBRANCH   9  14
ENDBRANCH   1   9
BRANCH   6  18
ATOM     18  C   UNL     1      -0.730  10.927  20.818  0.00  0.00    +0.000 C 
BRANCH  18  19
ATOM     19  C   UNL     1      -1.295  12.051  21.697  0.00  0.00    +0.000 A 
ATOM     20  C   UNL     1      -2.679  12.170  21.914  0.00  0.00    +0.000 A 
ATOM     21  C   UNL     1      -3.204  13.288  22.563  0.00  0.00    +0.000 A 
ATOM     22  C   UNL     1      -2.356  14.300  23.008  0.00  0.00    +0.000 A 
ATOM     23  C   UNL     1      -0.978  14.181  22.832  0.00  0.00    +0.000 A 
ATOM     24  C   UNL     1      -0.448  13.060  22.189  0.00  0.00    +0.000 A 
ENDBRANCH  18  19
BRANCH  18  25
ATOM     25  C   UNL     1      -1.293  11.015  19.388  0.00  0.00    +0.000 A 
ATOM     26  C   UNL     1      -2.022   9.929  18.866  0.00  0.00    +0.000 A 
ATOM     27  C   UNL     1      -2.547   9.965  17.572  0.00  0.00    +0.000 A 
ATOM     28  C   UNL     1      -2.350  11.088  16.772  0.00  0.00    +0.000 A 
ATOM     29  C   UNL     1      -1.645  12.178  17.272  0.00  0.00    +0.000 A 
ATOM     30  C   UNL     1      -1.139  12.151  18.575  0.00  0.00    +0.000 A 
ENDBRANCH  18  25
ENDBRANCH   6  18
TORSDOF 6
ENDMDL
