MODEL 1
REMARK VINA RESULT:      -7.8      0.000      0.000
REMARK  Name = 
REMARK  11 active torsions:
REMARK  status: ('A' for Active; 'I' for Inactive)
REMARK    1  A    between atoms: C_1  and  O_2
REMARK    2  A    between atoms: O_2  and  C_3
REMARK    3  A    between atoms: C_3  and  C_5
REMARK    4  A    between atoms: C_7  and  N_8
REMARK    5  A    between atoms: C_9  and  C_11
REMARK    6  A    between atoms: C_11  and  C_12
REMARK    7  A    between atoms: C_12  and  C_14
REMARK    8  A    between atoms: C_18  and  N_19
REMARK    9  A    between atoms: C_22  and  C_23
REMARK   10  A    between atoms: C_23  and  O_25
REMARK   11  A    between atoms: O_25  and  C_26
REMARK                            x       y       z     vdW  Elec       q    Type
REMARK                         _______ _______ _______ _____ _____    ______ ____
ROOT
ATOM      1  N   UNL     1       4.779   5.009  17.867  0.00  0.00    +0.000 N 
ATOM      2  C   UNL     1       6.108   4.724  18.112  0.00  0.00    +0.000 C 
ATOM      3  O   UNL     1       6.611   4.536  19.220  0.00  0.00    +0.000 OA
ATOM      4  H   UNL     1       4.485   4.957  16.889  0.00  0.00    +0.000 HD
ENDROOT
BRANCH   1   7
ATOM      5  C   UNL     1       2.196   6.540  20.090  0.00  0.00    +0.000 A 
ATOM      6  C   UNL     1       3.225   6.417  19.145  0.00  0.00    +0.000 A 
ATOM      7  C   UNL     1       3.749   5.174  18.813  0.00  0.00    +0.000 A 
ATOM      8  C   UNL     1       3.219   4.030  19.417  0.00  0.00    +0.000 A 
ATOM      9  C   UNL     1       2.181   4.131  20.358  0.00  0.00    +0.000 A 
ATOM     10  C   UNL     1       1.675   5.393  20.702  0.00  0.00    +0.000 A 
BRANCH   5  11
ATOM     11  C   UNL     1       1.647   7.880  20.431  0.00  0.00    +0.000 C 
ATOM     12  O   UNL     1       1.146   8.158  21.507  0.00  0.00    +0.000 OA
BRANCH  11  14
ATOM     13  C   UNL     1       0.715   9.635  19.157  0.00  0.00    +0.000 C 
ATOM     14  O   UNL     1       1.780   8.712  19.368  0.00  0.00    +0.000 OA
ENDBRANCH  11  14
ENDBRANCH   5  11
BRANCH   9  15
ATOM     15  C   UNL     1       1.648   2.862  20.930  0.00  0.00    +0.000 C 
ATOM     16  O   UNL     1       1.414   2.715  22.121  0.00  0.00    +0.000 OA
BRANCH  15  17
ATOM     17  O   UNL     1       1.502   1.913  19.974  0.00  0.00    +0.000 OA
ATOM     18  C   UNL     1       0.599   2.285  18.930  0.00  0.00    +0.000 C 
ENDBRANCH  15  17
ENDBRANCH   9  15
ENDBRANCH   1   7
BRANCH   2  19
ATOM     19  C   UNL     1       7.014   4.719  16.899  0.00  0.00    +0.000 C 
BRANCH  19  20
ATOM     20  C   UNL     1       6.555   5.515  15.705  0.00  0.00    +0.000 C 
ATOM     21  O   UNL     1       6.045   6.631  15.824  0.00  0.00    +0.000 OA
BRANCH  20  22
ATOM     22  C   UNL     1       6.750   4.962  14.337  0.00  0.00    +0.000 A 
ATOM     23  C   UNL     1       7.703   5.585  13.522  0.00  0.00    +0.000 A 
ATOM     24  C   UNL     1       7.943   5.111  12.238  0.00  0.00    +0.000 A 
ATOM     25  C   UNL     1       7.215   4.025  11.755  0.00  0.00    +0.000 A 
ATOM     26  C   UNL     1       6.219   3.425  12.532  0.00  0.00    +0.000 A 
ATOM     27  C   UNL     1       6.034   3.860  13.850  0.00  0.00    +0.000 A 
BRANCH  26  28
ATOM     28  N   UNL     1       5.586   2.263  12.078  0.00  0.00    +0.000 N 
ATOM     29  H   UNL     1       5.673   1.475  12.716  0.00  0.00    +0.000 HD
ATOM     30  H   UNL     1       5.817   2.002  11.123  0.00  0.00    +0.000 HD
ENDBRANCH  26  28
ENDBRANCH  20  22
ENDBRANCH  19  20
ENDBRANCH   2  19
TORSDOF 9
ENDMDL
MODEL 2
REMARK VINA RESULT:      -7.8      3.117      8.042
REMARK  Name = 
REMARK  11 active torsions:
REMARK  status: ('A' for Active; 'I' for Inactive)
REMARK    1  A    between atoms: C_1  and  O_2
REMARK    2  A    between atoms: O_2  and  C_3
REMARK    3  A    between atoms: C_3  and  C_5
REMARK    4  A    between atoms: C_7  and  N_8
REMARK    5  A    between atoms: C_9  and  C_11
REMARK    6  A    between atoms: C_11  and  C_12
REMARK    7  A    between atoms: C_12  and  C_14
REMARK    8  A    between atoms: C_18  and  N_19
REMARK    9  A    between atoms: C_22  and  C_23
REMARK   10  A    between atoms: C_23  and  O_25
REMARK   11  A    between atoms: O_25  and  C_26
REMARK                            x       y       z     vdW  Elec       q    Type
REMARK                         _______ _______ _______ _____ _____    ______ ____
ROOT
ATOM      1  N   UNL     1       2.083   7.885  19.306  0.00  0.00    +0.000 N 
ATOM      2  C   UNL     1       2.149   8.602  18.127  0.00  0.00    +0.000 C 
ATOM      3  O   UNL     1       2.659   8.213  17.077  0.00  0.00    +0.000 OA
ATOM      4  H   UNL     1       1.470   8.271  20.028  0.00  0.00    +0.000 HD
ENDROOT
BRANCH   1   7
ATOM      5  C   UNL     1       2.399   4.307  20.333  0.00  0.00    +0.000 A 
ATOM      6  C   UNL     1       1.844   5.574  20.101  0.00  0.00    +0.000 A 
ATOM      7  C   UNL     1       2.605   6.602  19.558  0.00  0.00    +0.000 A 
ATOM      8  C   UNL     1       3.938   6.354  19.218  0.00  0.00    +0.000 A 
ATOM      9  C   UNL     1       4.510   5.088  19.433  0.00  0.00    +0.000 A 
ATOM     10  C   UNL     1       3.738   4.065  20.002  0.00  0.00    +0.000 A 
BRANCH   5  11
ATOM     11  C   UNL     1       1.567   3.218  20.913  0.00  0.00    +0.000 C 
ATOM     12  O   UNL     1       1.822   2.649  21.960  0.00  0.00    +0.000 OA
BRANCH  11  14
ATOM     13  C   UNL     1       0.831   2.427  18.815  0.00  0.00    +0.000 C 
ATOM     14  O   UNL     1       0.515   2.963  20.096  0.00  0.00    +0.000 OA
ENDBRANCH  11  14
ENDBRANCH   5  11
BRANCH   9  15
ATOM     15  C   UNL     1       5.926   4.895  19.012  0.00  0.00    +0.000 C 
ATOM     16  O   UNL     1       6.873   5.042  19.771  0.00  0.00    +0.000 OA
BRANCH  15  17
ATOM     17  O   UNL     1       6.010   4.580  17.697  0.00  0.00    +0.000 OA
ATOM     18  C   UNL     1       7.340   4.651  17.174  0.00  0.00    +0.000 C 
ENDBRANCH  15  17
ENDBRANCH   9  15
ENDBRANCH   1   7
BRANCH   2  19
ATOM     19  C   UNL     1       1.598  10.011  18.184  0.00  0.00    +0.000 C 
BRANCH  19  20
ATOM     20  C   UNL     1       0.429  10.248  19.104  0.00  0.00    +0.000 C 
ATOM     21  O   UNL     1       0.560  10.273  20.329  0.00  0.00    +0.000 OA
BRANCH  20  22
ATOM     22  C   UNL     1      -0.920  10.494  18.525  0.00  0.00    +0.000 A 
ATOM     23  C   UNL     1      -1.274   9.761  17.386  0.00  0.00    +0.000 A 
ATOM     24  C   UNL     1      -2.524   9.934  16.803  0.00  0.00    +0.000 A 
ATOM     25  C   UNL     1      -3.416  10.858  17.344  0.00  0.00    +0.000 A 
ATOM     26  C   UNL     1      -3.060  11.641  18.447  0.00  0.00    +0.000 A 
ATOM     27  C   UNL     1      -1.830  11.408  19.072  0.00  0.00    +0.000 A 
BRANCH  26  28
ATOM     28  N   UNL     1      -4.012  12.471  19.048  0.00  0.00    +0.000 N 
ATOM     29  H   UNL     1      -4.005  13.424  18.691  0.00  0.00    +0.000 HD
ATOM     30  H   UNL     1      -4.011  12.449  20.064  0.00  0.00    +0.000 HD
ENDBRANCH  26  28
ENDBRANCH  20  22
ENDBRANCH  19  20
ENDBRANCH   2  19
TORSDOF 9
ENDMDL
MODEL 3
REMARK VINA RESULT:      -7.8      3.228      8.275
REMARK  Name = 
REMARK  11 active torsions:
REMARK  status: ('A' for Active; 'I' for Inactive)
REMARK    1  A    between atoms: C_1  and  O_2
REMARK    2  A    between atoms: O_2  and  C_3
REMARK    3  A    between atoms: C_3  and  C_5
REMARK    4  A    between atoms: C_7  and  N_8
REMARK    5  A    between atoms: C_9  and  C_11
REMARK    6  A    between atoms: C_11  and  C_12
REMARK    7  A    between atoms: C_12  and  C_14
REMARK    8  A    between atoms: C_18  and  N_19
REMARK    9  A    between atoms: C_22  and  C_23
REMARK   10  A    between atoms: C_23  and  O_25
REMARK   11  A    between atoms: O_25  and  C_26
REMARK                            x       y       z     vdW  Elec       q    Type
REMARK                         _______ _______ _______ _____ _____    ______ ____
ROOT
ATOM      1  N   UNL     1       2.451   7.777  17.798  0.00  0.00    +0.000 N 
ATOM      2  C   UNL     1       1.835   8.589  18.731  0.00  0.00    +0.000 C 
ATOM      3  O   UNL     1       1.680   8.326  19.923  0.00  0.00    +0.000 OA
ATOM      4  H   UNL     1       2.662   8.213  16.898  0.00  0.00    +0.000 HD
ENDROOT
BRANCH   1   7
ATOM      5  C   UNL     1       2.778   4.129  18.534  0.00  0.00    +0.000 A 
ATOM      6  C   UNL     1       2.206   5.395  18.344  0.00  0.00    +0.000 A 
ATOM      7  C   UNL     1       2.988   6.492  18.004  0.00  0.00    +0.000 A 
ATOM      8  C   UNL     1       4.364   6.316  17.827  0.00  0.00    +0.000 A 
ATOM      9  C   UNL     1       4.955   5.054  18.003  0.00  0.00    +0.000 A 
ATOM     10  C   UNL     1       4.158   3.959  18.368  0.00  0.00    +0.000 A 
BRANCH   5  11
ATOM     11  C   UNL     1       1.922   2.966  18.897  0.00  0.00    +0.000 C 
ATOM     12  O   UNL     1       1.016   2.543  18.200  0.00  0.00    +0.000 OA
BRANCH  11  14
ATOM     13  C   UNL     1       1.498   2.870  21.216  0.00  0.00    +0.000 C 
ATOM     14  O   UNL     1       2.300   2.481  20.106  0.00  0.00    +0.000 OA
ENDBRANCH  11  14
ENDBRANCH   5  11
BRANCH   9  15
ATOM     15  C   UNL     1       6.421   4.943  17.763  0.00  0.00    +0.000 C 
ATOM     16  O   UNL     1       7.184   4.391  18.542  0.00  0.00    +0.000 OA
BRANCH  15  17
ATOM     17  O   UNL     1       6.779   5.557  16.609  0.00  0.00    +0.000 OA
ATOM     18  C   UNL     1       6.917   4.663  15.502  0.00  0.00    +0.000 C 
ENDBRANCH  15  17
ENDBRANCH   9  15
ENDBRANCH   1   7
BRANCH   2  19
ATOM     19  C   UNL     1       1.248   9.878  18.194  0.00  0.00    +0.000 C 
BRANCH  19  20
ATOM     20  C   UNL     1       0.072  10.452  18.940  0.00  0.00    +0.000 C 
ATOM     21  O   UNL     1       0.176  10.872  20.095  0.00  0.00    +0.000 OA
BRANCH  20  22
ATOM     22  C   UNL     1      -1.248  10.553  18.261  0.00  0.00    +0.000 A 
ATOM     23  C   UNL     1      -1.462   9.730  17.149  0.00  0.00    +0.000 A 
ATOM     24  C   UNL     1      -2.678   9.766  16.476  0.00  0.00    +0.000 A 
ATOM     25  C   UNL     1      -3.676  10.642  16.899  0.00  0.00    +0.000 A 
ATOM     26  C   UNL     1      -3.461  11.513  17.972  0.00  0.00    +0.000 A 
ATOM     27  C   UNL     1      -2.263  11.419  18.690  0.00  0.00    +0.000 A 
BRANCH  26  28
ATOM     28  N   UNL     1      -4.515  12.294  18.457  0.00  0.00    +0.000 N 
ATOM     29  H   UNL     1      -5.422  12.037  18.076  0.00  0.00    +0.000 HD
ATOM     30  H   UNL     1      -4.356  13.297  18.406  0.00  0.00    +0.000 HD
ENDBRANCH  26  28
ENDBRANCH  20  22
ENDBRANCH  19  20
ENDBRANCH   2  19
TORSDOF 9
ENDMDL
MODEL 4
REMARK VINA RESULT:      -7.7      3.259      8.042
REMARK  Name = 
REMARK  11 active torsions:
REMARK  status: ('A' for Active; 'I' for Inactive)
REMARK    1  A    between atoms: C_1  and  O_2
REMARK    2  A    between atoms: O_2  and  C_3
REMARK    3  A    between atoms: C_3  and  C_5
REMARK    4  A    between atoms: C_7  and  N_8
REMARK    5  A    between atoms: C_9  and  C_11
REMARK    6  A    between atoms: C_11  and  C_12
REMARK    7  A    between atoms: C_12  and  C_14
REMARK    8  A    between atoms: C_18  and  N_19
REMARK    9  A    between atoms: C_22  and  C_23
REMARK   10  A    between atoms: C_23  and  O_25
REMARK   11  A    between atoms: O_25  and  C_26
REMARK                            x       y       z     vdW  Elec       q    Type
REMARK                         _______ _______ _______ _____ _____    ______ ____
ROOT
ATOM      1  N   UNL     1       2.056   8.332  18.719  0.00  0.00    +0.000 N 
ATOM      2  C   UNL     1       1.547   8.456  19.998  0.00  0.00    +0.000 C 
ATOM      3  O   UNL     1       1.618   7.607  20.885  0.00  0.00    +0.000 OA
ATOM      4  H   UNL     1       2.076   9.189  18.163  0.00  0.00    +0.000 HD
ENDROOT
BRANCH   1   7
ATOM      5  C   UNL     1       4.555   6.193  16.949  0.00  0.00    +0.000 A 
ATOM      6  C   UNL     1       3.923   7.325  17.482  0.00  0.00    +0.000 A 
ATOM      7  C   UNL     1       2.718   7.220  18.165  0.00  0.00    +0.000 A 
ATOM      8  C   UNL     1       2.145   5.956  18.341  0.00  0.00    +0.000 A 
ATOM      9  C   UNL     1       2.767   4.808  17.823  0.00  0.00    +0.000 A 
ATOM     10  C   UNL     1       3.972   4.930  17.116  0.00  0.00    +0.000 A 
BRANCH   5  11
ATOM     11  C   UNL     1       5.846   6.327  16.221  0.00  0.00    +0.000 C 
ATOM     12  O   UNL     1       6.087   5.786  15.155  0.00  0.00    +0.000 OA
BRANCH  11  14
ATOM     13  C   UNL     1       7.417   6.476  17.975  0.00  0.00    +0.000 C 
ATOM     14  O   UNL     1       6.690   7.116  16.931  0.00  0.00    +0.000 OA
ENDBRANCH  11  14
ENDBRANCH   5  11
BRANCH   9  15
ATOM     15  C   UNL     1       2.110   3.496  18.082  0.00  0.00    +0.000 C 
ATOM     16  O   UNL     1       2.203   2.543  17.322  0.00  0.00    +0.000 OA
BRANCH  15  17
ATOM     17  O   UNL     1       1.386   3.525  19.227  0.00  0.00    +0.000 OA
ATOM     18  C   UNL     1       1.543   2.355  20.035  0.00  0.00    +0.000 C 
ENDBRANCH  15  17
ENDBRANCH   9  15
ENDBRANCH   1   7
BRANCH   2  19
ATOM     19  C   UNL     1       0.779   9.730  20.278  0.00  0.00    +0.000 C 
BRANCH  19  20
ATOM     20  C   UNL     1       0.472  10.613  19.097  0.00  0.00    +0.000 C 
ATOM     21  O   UNL     1       1.350  11.262  18.523  0.00  0.00    +0.000 OA
BRANCH  20  22
ATOM     22  C   UNL     1      -0.920  10.683  18.577  0.00  0.00    +0.000 A 
ATOM     23  C   UNL     1      -1.269   9.795  17.552  0.00  0.00    +0.000 A 
ATOM     24  C   UNL     1      -2.557   9.799  17.031  0.00  0.00    +0.000 A 
ATOM     25  C   UNL     1      -3.496  10.708  17.516  0.00  0.00    +0.000 A 
ATOM     26  C   UNL     1      -3.151  11.641  18.500  0.00  0.00    +0.000 A 
ATOM     27  C   UNL     1      -1.875  11.582  19.071  0.00  0.00    +0.000 A 
BRANCH  26  28
ATOM     28  N   UNL     1      -4.138  12.460  19.059  0.00  0.00    +0.000 N 
ATOM     29  H   UNL     1      -4.643  13.017  18.373  0.00  0.00    +0.000 HD
ATOM     30  H   UNL     1      -3.824  13.024  19.844  0.00  0.00    +0.000 HD
ENDBRANCH  26  28
ENDBRANCH  20  22
ENDBRANCH  19  20
ENDBRANCH   2  19
TORSDOF 9
ENDMDL
MODEL 5
REMARK VINA RESULT:      -7.7      3.323      8.113
REMARK  Name = 
REMARK  11 active torsions:
REMARK  status: ('A' for Active; 'I' for Inactive)
REMARK    1  A    between atoms: C_1  and  O_2
REMARK    2  A    between atoms: O_2  and  C_3
REMARK    3  A    between atoms: C_3  and  C_5
REMARK    4  A    between atoms: C_7  and  N_8
REMARK    5  A    between atoms: C_9  and  C_11
REMARK    6  A    between atoms: C_11  and  C_12
REMARK    7  A    between atoms: C_12  and  C_14
REMARK    8  A    between atoms: C_18  and  N_19
REMARK    9  A    between atoms: C_22  and  C_23
REMARK   10  A    between atoms: C_23  and  O_25
REMARK   11  A    between atoms: O_25  and  C_26
REMARK                            x       y       z     vdW  Elec       q    Type
REMARK                         _______ _______ _______ _____ _____    ______ ____
ROOT
ATOM      1  N   UNL     1       2.318   8.103  17.843  0.00  0.00    +0.000 N 
ATOM      2  C   UNL     1       1.706   8.873  18.813  0.00  0.00    +0.000 C 
ATOM      3  O   UNL     1       1.530   8.545  19.986  0.00  0.00    +0.000 OA
ATOM      4  H   UNL     1       2.549   8.586  16.972  0.00  0.00    +0.000 HD
ENDROOT
BRANCH   1   7
ATOM      5  C   UNL     1       4.645   5.184  17.970  0.00  0.00    +0.000 A 
ATOM      6  C   UNL     1       4.174   6.496  17.819  0.00  0.00    +0.000 A 
ATOM      7  C   UNL     1       2.828   6.799  17.981  0.00  0.00    +0.000 A 
ATOM      8  C   UNL     1       1.939   5.775  18.323  0.00  0.00    +0.000 A 
ATOM      9  C   UNL     1       2.392   4.456  18.488  0.00  0.00    +0.000 A 
ATOM     10  C   UNL     1       3.749   4.159  18.301  0.00  0.00    +0.000 A 
BRANCH   5  11
ATOM     11  C   UNL     1       6.092   4.881  17.795  0.00  0.00    +0.000 C 
ATOM     12  O   UNL     1       6.786   4.356  18.648  0.00  0.00    +0.000 OA
BRANCH  11  14
ATOM     13  C   UNL     1       6.605   4.277  15.572  0.00  0.00    +0.000 C 
ATOM     14  O   UNL     1       6.498   5.290  16.568  0.00  0.00    +0.000 OA
ENDBRANCH  11  14
ENDBRANCH   5  11
BRANCH   9  15
ATOM     15  C   UNL     1       1.387   3.430  18.886  0.00  0.00    +0.000 C 
ATOM     16  O   UNL     1       1.069   2.494  18.166  0.00  0.00    +0.000 OA
BRANCH  15  17
ATOM     17  O   UNL     1       0.865   3.699  20.107  0.00  0.00    +0.000 OA
ATOM     18  C   UNL     1       1.357   2.844  21.142  0.00  0.00    +0.000 C 
ENDBRANCH  15  17
ENDBRANCH   9  15
ENDBRANCH   1   7
BRANCH   2  19
ATOM     19  C   UNL     1       1.150  10.201  18.344  0.00  0.00    +0.000 C 
BRANCH  19  20
ATOM     20  C   UNL     1      -0.067  10.722  19.064  0.00  0.00    +0.000 C 
ATOM     21  O   UNL     1      -0.003  11.168  20.212  0.00  0.00    +0.000 OA
BRANCH  20  22
ATOM     22  C   UNL     1      -1.381  10.735  18.365  0.00  0.00    +0.000 A 
ATOM     23  C   UNL     1      -1.546   9.854  17.290  0.00  0.00    +0.000 A 
ATOM     24  C   UNL     1      -2.753   9.807  16.603  0.00  0.00    +0.000 A 
ATOM     25  C   UNL     1      -3.792  10.659  16.973  0.00  0.00    +0.000 A 
ATOM     26  C   UNL     1      -3.628  11.586  18.007  0.00  0.00    +0.000 A 
ATOM     27  C   UNL     1      -2.437  11.576  18.742  0.00  0.00    +0.000 A 
BRANCH  26  28
ATOM     28  N   UNL     1      -4.720  12.344  18.443  0.00  0.00    +0.000 N 
ATOM     29  H   UNL     1      -4.749  12.474  19.452  0.00  0.00    +0.000 HD
ATOM     30  H   UNL     1      -5.617  12.041  18.076  0.00  0.00    +0.000 HD
ENDBRANCH  26  28
ENDBRANCH  20  22
ENDBRANCH  19  20
ENDBRANCH   2  19
TORSDOF 9
ENDMDL
MODEL 6
REMARK VINA RESULT:      -7.7      3.222      8.013
REMARK  Name = 
REMARK  11 active torsions:
REMARK  status: ('A' for Active; 'I' for Inactive)
REMARK    1  A    between atoms: C_1  and  O_2
REMARK    2  A    between atoms: O_2  and  C_3
REMARK    3  A    between atoms: C_3  and  C_5
REMARK    4  A    between atoms: C_7  and  N_8
REMARK    5  A    between atoms: C_9  and  C_11
REMARK    6  A    between atoms: C_11  and  C_12
REMARK    7  A    between atoms: C_12  and  C_14
REMARK    8  A    between atoms: C_18  and  N_19
REMARK    9  A    between atoms: C_22  and  C_23
REMARK   10  A    between atoms: C_23  and  O_25
REMARK   11  A    between atoms: O_25  and  C_26
REMARK                            x       y       z     vdW  Elec       q    Type
REMARK                         _______ _______ _______ _____ _____    ______ ____
ROOT
ATOM      1  N   UNL     1       2.477   7.649  17.708  0.00  0.00    +0.000 N 
ATOM      2  C   UNL     1       1.949   8.457  18.697  0.00  0.00    +0.000 C 
ATOM      3  O   UNL     1       1.917   8.194  19.898  0.00  0.00    +0.000 OA
ATOM      4  H   UNL     1       2.592   8.086  16.791  0.00  0.00    +0.000 HD
ENDROOT
BRANCH   1   7
ATOM      5  C   UNL     1       4.929   4.834  17.828  0.00  0.00    +0.000 A 
ATOM      6  C   UNL     1       4.399   6.122  17.662  0.00  0.00    +0.000 A 
ATOM      7  C   UNL     1       3.046   6.371  17.859  0.00  0.00    +0.000 A 
ATOM      8  C   UNL     1       2.213   5.320  18.254  0.00  0.00    +0.000 A 
ATOM      9  C   UNL     1       2.727   4.025  18.436  0.00  0.00    +0.000 A 
ATOM     10  C   UNL     1       4.089   3.781  18.211  0.00  0.00    +0.000 A 
BRANCH   5  11
ATOM     11  C   UNL     1       6.381   4.588  17.613  0.00  0.00    +0.000 C 
ATOM     12  O   UNL     1       6.898   4.469  16.516  0.00  0.00    +0.000 OA
BRANCH  11  14
ATOM     13  C   UNL     1       7.637   5.698  19.275  0.00  0.00    +0.000 C 
ATOM     14  O   UNL     1       7.012   4.504  18.811  0.00  0.00    +0.000 OA
ENDBRANCH  11  14
ENDBRANCH   5  11
BRANCH   9  15
ATOM     15  C   UNL     1       1.779   2.969  18.889  0.00  0.00    +0.000 C 
ATOM     16  O   UNL     1       0.773   2.664  18.267  0.00  0.00    +0.000 OA
BRANCH  15  17
ATOM     17  O   UNL     1       2.164   2.438  20.076  0.00  0.00    +0.000 OA
ATOM     18  C   UNL     1       1.454   2.967  21.198  0.00  0.00    +0.000 C 
ENDBRANCH  15  17
ENDBRANCH   9  15
ENDBRANCH   1   7
BRANCH   2  19
ATOM     19  C   UNL     1       1.297   9.738  18.220  0.00  0.00    +0.000 C 
BRANCH  19  20
ATOM     20  C   UNL     1       0.159  10.272  19.051  0.00  0.00    +0.000 C 
ATOM     21  O   UNL     1       0.305  10.570  20.239  0.00  0.00    +0.000 OA
BRANCH  20  22
ATOM     22  C   UNL     1      -1.172  10.482  18.421  0.00  0.00    +0.000 A 
ATOM     23  C   UNL     1      -1.482   9.706  17.298  0.00  0.00    +0.000 A 
ATOM     24  C   UNL     1      -2.713   9.845  16.669  0.00  0.00    +0.000 A 
ATOM     25  C   UNL     1      -3.632  10.777  17.147  0.00  0.00    +0.000 A 
ATOM     26  C   UNL     1      -3.320  11.602  18.233  0.00  0.00    +0.000 A 
ATOM     27  C   UNL     1      -2.109  11.406  18.906  0.00  0.00    +0.000 A 
BRANCH  26  28
ATOM     28  N   UNL     1      -4.299  12.443  18.773  0.00  0.00    +0.000 N 
ATOM     29  H   UNL     1      -3.964  13.383  18.973  0.00  0.00    +0.000 HD
ATOM     30  H   UNL     1      -4.807  12.049  19.560  0.00  0.00    +0.000 HD
ENDBRANCH  26  28
ENDBRANCH  20  22
ENDBRANCH  19  20
ENDBRANCH   2  19
TORSDOF 9
ENDMDL
MODEL 7
REMARK VINA RESULT:      -7.7      3.240      8.466
REMARK  Name = 
REMARK  11 active torsions:
REMARK  status: ('A' for Active; 'I' for Inactive)
REMARK    1  A    between atoms: C_1  and  O_2
REMARK    2  A    between atoms: O_2  and  C_3
REMARK    3  A    between atoms: C_3  and  C_5
REMARK    4  A    between atoms: C_7  and  N_8
REMARK    5  A    between atoms: C_9  and  C_11
REMARK    6  A    between atoms: C_11  and  C_12
REMARK    7  A    between atoms: C_12  and  C_14
REMARK    8  A    between atoms: C_18  and  N_19
REMARK    9  A    between atoms: C_22  and  C_23
REMARK   10  A    between atoms: C_23  and  O_25
REMARK   11  A    between atoms: O_25  and  C_26
REMARK                            x       y       z     vdW  Elec       q    Type
REMARK                         _______ _______ _______ _____ _____    ______ ____
ROOT
ATOM      1  N   UNL     1       1.846   8.175  18.773  0.00  0.00    +0.000 N 
ATOM      2  C   UNL     1       1.439   8.454  20.064  0.00  0.00    +0.000 C 
ATOM      3  O   UNL     1       1.676   7.766  21.057  0.00  0.00    +0.000 OA
ATOM      4  H   UNL     1       1.727   8.932  18.096  0.00  0.00    +0.000 HD
ENDROOT
BRANCH   1   7
ATOM      5  C   UNL     1       2.896   4.657  18.084  0.00  0.00    +0.000 A 
ATOM      6  C   UNL     1       2.149   5.749  18.550  0.00  0.00    +0.000 A 
ATOM      7  C   UNL     1       2.570   7.054  18.327  0.00  0.00    +0.000 A 
ATOM      8  C   UNL     1       3.747   7.274  17.604  0.00  0.00    +0.000 A 
ATOM      9  C   UNL     1       4.504   6.194  17.120  0.00  0.00    +0.000 A 
ATOM     10  C   UNL     1       4.081   4.881  17.371  0.00  0.00    +0.000 A 
BRANCH   5  11
ATOM     11  C   UNL     1       2.428   3.267  18.331  0.00  0.00    +0.000 C 
ATOM     12  O   UNL     1       1.860   2.580  17.499  0.00  0.00    +0.000 OA
BRANCH  11  14
ATOM     13  C   UNL     1       1.602   2.598  20.439  0.00  0.00    +0.000 C 
ATOM     14  O   UNL     1       2.716   2.908  19.607  0.00  0.00    +0.000 OA
ENDBRANCH  11  14
ENDBRANCH   5  11
BRANCH   9  15
ATOM     15  C   UNL     1       5.727   6.513  16.330  0.00  0.00    +0.000 C 
ATOM     16  O   UNL     1       6.637   7.206  16.762  0.00  0.00    +0.000 OA
BRANCH  15  17
ATOM     17  O   UNL     1       5.667   5.973  15.089  0.00  0.00    +0.000 OA
ATOM     18  C   UNL     1       6.665   4.977  14.848  0.00  0.00    +0.000 C 
ENDBRANCH  15  17
ENDBRANCH   9  15
ENDBRANCH   1   7
BRANCH   2  19
ATOM     19  C   UNL     1       0.570   9.682  20.228  0.00  0.00    +0.000 C 
BRANCH  19  20
ATOM     20  C   UNL     1       0.332  10.516  18.996  0.00  0.00    +0.000 C 
ATOM     21  O   UNL     1       1.254  11.080  18.404  0.00  0.00    +0.000 OA
BRANCH  20  22
ATOM     22  C   UNL     1      -1.048  10.640  18.451  0.00  0.00    +0.000 A 
ATOM     23  C   UNL     1      -1.394   9.803  17.384  0.00  0.00    +0.000 A 
ATOM     24  C   UNL     1      -2.670   9.859  16.836  0.00  0.00    +0.000 A 
ATOM     25  C   UNL     1      -3.598  10.770  17.338  0.00  0.00    +0.000 A 
ATOM     26  C   UNL     1      -3.254  11.654  18.366  0.00  0.00    +0.000 A 
ATOM     27  C   UNL     1      -1.992  11.541  18.961  0.00  0.00    +0.000 A 
BRANCH  26  28
ATOM     28  N   UNL     1      -4.233  12.473  18.937  0.00  0.00    +0.000 N 
ATOM     29  H   UNL     1      -4.445  13.301  18.385  0.00  0.00    +0.000 HD
ATOM     30  H   UNL     1      -4.073  12.704  19.914  0.00  0.00    +0.000 HD
ENDBRANCH  26  28
ENDBRANCH  20  22
ENDBRANCH  19  20
ENDBRANCH   2  19
TORSDOF 9
ENDMDL
MODEL 8
REMARK VINA RESULT:      -7.7      2.956      7.845
REMARK  Name = 
REMARK  11 active torsions:
REMARK  status: ('A' for Active; 'I' for Inactive)
REMARK    1  A    between atoms: C_1  and  O_2
REMARK    2  A    between atoms: O_2  and  C_3
REMARK    3  A    between atoms: C_3  and  C_5
REMARK    4  A    between atoms: C_7  and  N_8
REMARK    5  A    between atoms: C_9  and  C_11
REMARK    6  A    between atoms: C_11  and  C_12
REMARK    7  A    between atoms: C_12  and  C_14
REMARK    8  A    between atoms: C_18  and  N_19
REMARK    9  A    between atoms: C_22  and  C_23
REMARK   10  A    between atoms: C_23  and  O_25
REMARK   11  A    between atoms: O_25  and  C_26
REMARK                            x       y       z     vdW  Elec       q    Type
REMARK                         _______ _______ _______ _____ _____    ______ ____
ROOT
ATOM      1  N   UNL     1       2.001   8.098  18.672  0.00  0.00    +0.000 N 
ATOM      2  C   UNL     1       1.584   8.222  19.984  0.00  0.00    +0.000 C 
ATOM      3  O   UNL     1       1.813   7.422  20.890  0.00  0.00    +0.000 OA
ATOM      4  H   UNL     1       1.887   8.929  18.088  0.00  0.00    +0.000 HD
ENDROOT
BRANCH   1   7
ATOM      5  C   UNL     1       4.668   6.132  16.946  0.00  0.00    +0.000 A 
ATOM      6  C   UNL     1       3.968   7.216  17.497  0.00  0.00    +0.000 A 
ATOM      7  C   UNL     1       2.731   7.037  18.103  0.00  0.00    +0.000 A 
ATOM      8  C   UNL     1       2.193   5.749  18.181  0.00  0.00    +0.000 A 
ATOM      9  C   UNL     1       2.882   4.649  17.644  0.00  0.00    +0.000 A 
ATOM     10  C   UNL     1       4.120   4.845  17.015  0.00  0.00    +0.000 A 
BRANCH   5  11
ATOM     11  C   UNL     1       5.993   6.344  16.303  0.00  0.00    +0.000 C 
ATOM     12  O   UNL     1       6.913   6.953  16.821  0.00  0.00    +0.000 OA
BRANCH  11  14
ATOM     13  C   UNL     1       7.023   4.814  14.831  0.00  0.00    +0.000 C 
ATOM     14  O   UNL     1       5.999   5.775  15.072  0.00  0.00    +0.000 OA
ENDBRANCH  11  14
ENDBRANCH   5  11
BRANCH   9  15
ATOM     15  C   UNL     1       2.256   3.306  17.798  0.00  0.00    +0.000 C 
ATOM     16  O   UNL     1       1.061   3.146  17.994  0.00  0.00    +0.000 OA
BRANCH  15  17
ATOM     17  O   UNL     1       3.184   2.320  17.730  0.00  0.00    +0.000 OA
ATOM     18  C   UNL     1       3.635   1.868  19.009  0.00  0.00    +0.000 C 
ENDBRANCH  15  17
ENDBRANCH   9  15
ENDBRANCH   1   7
BRANCH   2  19
ATOM     19  C   UNL     1       0.711   9.422  20.284  0.00  0.00    +0.000 C 
BRANCH  19  20
ATOM     20  C   UNL     1       0.535  10.429  19.177  0.00  0.00    +0.000 C 
ATOM     21  O   UNL     1       1.487  11.063  18.717  0.00  0.00    +0.000 OA
BRANCH  20  22
ATOM     22  C   UNL     1      -0.816  10.644  18.591  0.00  0.00    +0.000 A 
ATOM     23  C   UNL     1      -1.678  11.515  19.267  0.00  0.00    +0.000 A 
ATOM     24  C   UNL     1      -2.950  11.770  18.767  0.00  0.00    +0.000 A 
ATOM     25  C   UNL     1      -3.373  11.136  17.600  0.00  0.00    +0.000 A 
ATOM     26  C   UNL     1      -2.548  10.219  16.941  0.00  0.00    +0.000 A 
ATOM     27  C   UNL     1      -1.243  10.024  17.409  0.00  0.00    +0.000 A 
BRANCH  26  28
ATOM     28  N   UNL     1      -2.942   9.689  15.708  0.00  0.00    +0.000 N 
ATOM     29  H   UNL     1      -2.176   9.281  15.176  0.00  0.00    +0.000 HD
ATOM     30  H   UNL     1      -3.504  10.315  15.139  0.00  0.00    +0.000 HD
ENDBRANCH  26  28
ENDBRANCH  20  22
ENDBRANCH  19  20
ENDBRANCH   2  19
TORSDOF 9
ENDMDL
MODEL 9
REMARK VINA RESULT:      -7.7      3.399      8.250
REMARK  Name = 
REMARK  11 active torsions:
REMARK  status: ('A' for Active; 'I' for Inactive)
REMARK    1  A    between atoms: C_1  and  O_2
REMARK    2  A    between atoms: O_2  and  C_3
REMARK    3  A    between atoms: C_3  and  C_5
REMARK    4  A    between atoms: C_7  and  N_8
REMARK    5  A    between atoms: C_9  and  C_11
REMARK    6  A    between atoms: C_11  and  C_12
REMARK    7  A    between atoms: C_12  and  C_14
REMARK    8  A    between atoms: C_18  and  N_19
REMARK    9  A    between atoms: C_22  and  C_23
REMARK   10  A    between atoms: C_23  and  O_25
REMARK   11  A    between atoms: O_25  and  C_26
REMARK                            x       y       z     vdW  Elec       q    Type
REMARK                         _______ _______ _______ _____ _____    ______ ____
ROOT
ATOM      1  N   UNL     1       2.116   7.751  18.960  0.00  0.00    +0.000 N 
ATOM      2  C   UNL     1       1.761   8.972  18.419  0.00  0.00    +0.000 C 
ATOM      3  O   UNL     1       1.969   9.334  17.262  0.00  0.00    +0.000 OA
ATOM      4  H   UNL     1       1.713   7.534  19.874  0.00  0.00    +0.000 HD
ENDROOT
BRANCH   1   7
ATOM      5  C   UNL     1       4.704   5.800  17.101  0.00  0.00    +0.000 A 
ATOM      6  C   UNL     1       4.046   6.873  17.720  0.00  0.00    +0.000 A 
ATOM      7  C   UNL     1       2.806   6.701  18.324  0.00  0.00    +0.000 A 
ATOM      8  C   UNL     1       2.225   5.430  18.331  0.00  0.00    +0.000 A 
ATOM      9  C   UNL     1       2.873   4.340  17.725  0.00  0.00    +0.000 A 
ATOM     10  C   UNL     1       4.113   4.531  17.099  0.00  0.00    +0.000 A 
BRANCH   5  11
ATOM     11  C   UNL     1       6.033   6.004  16.462  0.00  0.00    +0.000 C 
ATOM     12  O   UNL     1       6.609   7.077  16.415  0.00  0.00    +0.000 OA
BRANCH  11  14
ATOM     13  C   UNL     1       6.898   4.871  14.581  0.00  0.00    +0.000 C 
ATOM     14  O   UNL     1       6.473   4.833  15.940  0.00  0.00    +0.000 OA
ENDBRANCH  11  14
ENDBRANCH   5  11
BRANCH   9  15
ATOM     15  C   UNL     1       2.203   3.012  17.805  0.00  0.00    +0.000 C 
ATOM     16  O   UNL     1       1.008   2.881  18.030  0.00  0.00    +0.000 OA
BRANCH  15  17
ATOM     17  O   UNL     1       3.090   2.002  17.637  0.00  0.00    +0.000 OA
ATOM     18  C   UNL     1       3.676   1.543  18.858  0.00  0.00    +0.000 C 
ENDBRANCH  15  17
ENDBRANCH   9  15
ENDBRANCH   1   7
BRANCH   2  19
ATOM     19  C   UNL     1       1.124   9.954  19.379  0.00  0.00    +0.000 C 
BRANCH  19  20
ATOM     20  C   UNL     1       0.409  11.133  18.772  0.00  0.00    +0.000 C 
ATOM     21  O   UNL     1       0.995  12.186  18.513  0.00  0.00    +0.000 OA
BRANCH  20  22
ATOM     22  C   UNL     1      -1.037  11.020  18.438  0.00  0.00    +0.000 A 
ATOM     23  C   UNL     1      -1.416   9.995  17.563  0.00  0.00    +0.000 A 
ATOM     24  C   UNL     1      -2.753   9.827  17.220  0.00  0.00    +0.000 A 
ATOM     25  C   UNL     1      -3.712  10.699  17.732  0.00  0.00    +0.000 A 
ATOM     26  C   UNL     1      -3.346  11.764  18.562  0.00  0.00    +0.000 A 
ATOM     27  C   UNL     1      -2.010  11.882  18.962  0.00  0.00    +0.000 A 
BRANCH  26  28
ATOM     28  N   UNL     1      -4.335  12.551  19.162  0.00  0.00    +0.000 N 
ATOM     29  H   UNL     1      -4.579  13.379  18.624  0.00  0.00    +0.000 HD
ATOM     30  H   UNL     1      -4.162  12.773  20.139  0.00  0.00    +0.000 HD
ENDBRANCH  26  28
ENDBRANCH  20  22
ENDBRANCH  19  20
ENDBRANCH   2  19
TORSDOF 9
ENDMDL
