MODEL 1
REMARK VINA RESULT:      -5.7      0.000      0.000
REMARK  Name = 
REMARK  8 active torsions:
REMARK  status: ('A' for Active; 'I' for Inactive)
REMARK    1  A    between atoms: C_1  and  S_2
REMARK    2  A    between atoms: S_2  and  C_3
REMARK    3  A    between atoms: C_4  and  C_5
REMARK    4  A    between atoms: N_7  and  C_8
REMARK    5  A    between atoms: C_11  and  C_12
REMARK    6  A    between atoms: C_15  and  N_16
REMARK    7  A    between atoms: N_17  and  N_18
REMARK    8  A    between atoms: C_21  and  C_22
REMARK                            x       y       z     vdW  Elec       q    Type
REMARK                         _______ _______ _______ _____ _____    ______ ____
ROOT
ATOM      1  C   UNL     1       0.384  10.930  20.326  0.00  0.00    +0.000 A 
ATOM      2  C   UNL     1       1.231  10.794  19.122  0.00  0.00    +0.000 A 
ATOM      3  C   UNL     1       1.780  11.899  18.550  0.00  0.00    +0.000 A 
ATOM      4  N   UNL     1       1.553  13.128  19.154  0.00  0.00    +0.000 N 
ATOM      5  C   UNL     1       0.848  13.337  20.343  0.00  0.00    +0.000 A 
ATOM      6  O   UNL     1       0.723  14.444  20.863  0.00  0.00    +0.000 OA
ATOM      7  C   UNL     1       0.237  12.130  20.941  0.00  0.00    +0.000 A 
ENDROOT
BRANCH   2   8
ATOM      8  C   UNL     1       1.411   9.462  18.425  0.00  0.00    +0.000 C 
ATOM      9  O   UNL     1       0.720   9.209  17.443  0.00  0.00    +0.000 OA
ATOM     10  N   UNL     1       2.410   8.640  18.928  0.00  0.00    +0.000 N 
ATOM     11  H   UNL     1       2.945   8.991  19.718  0.00  0.00    +0.000 HD
BRANCH  10  12
ATOM     12  C   UNL     1       2.795   7.377  18.414  0.00  0.00    +0.000 A 
ATOM     13  C   UNL     1       2.148   6.184  18.747  0.00  0.00    +0.000 A 
ATOM     14  C   UNL     1       2.600   4.955  18.265  0.00  0.00    +0.000 A 
ATOM     15  C   UNL     1       3.707   4.887  17.419  0.00  0.00    +0.000 A 
ATOM     16  C   UNL     1       4.233   3.555  16.975  0.00  0.00    +0.000 C 
ATOM     17  C   UNL     1       4.339   6.079  17.047  0.00  0.00    +0.000 A 
ATOM     18  C   UNL     1       3.884   7.314  17.535  0.00  0.00    +0.000 A 
ENDBRANCH  10  12
ENDBRANCH   2   8
BRANCH   3  19
ATOM     19  N   UNL     1       2.540  11.885  17.383  0.00  0.00    +0.000 N 
ATOM     20  H   UNL     1       2.862  10.952  17.115  0.00  0.00    +0.000 HD
ATOM     21  H   UNL     1       1.964  12.291  16.638  0.00  0.00    +0.000 HD
ENDBRANCH   3  19
BRANCH   4  22
ATOM     22  N   UNL     1       2.058  14.277  18.464  0.00  0.00    +0.000 N 
ATOM     23  H   UNL     1       3.075  14.176  18.430  0.00  0.00    +0.000 HD
ATOM     24  H   UNL     1       1.896  15.081  19.086  0.00  0.00    +0.000 HD
ENDBRANCH   4  22
BRANCH   1  26
ATOM     25  C   UNL     1       0.901   8.939  22.134  0.00  0.00    +0.000 C 
ATOM     26  S   UNL     1      -0.405   9.506  20.998  0.00  0.00    +0.000 S 
ENDBRANCH   1  26
BRANCH   7  27
ATOM     27  C   UNL     1      -0.557  12.233  22.233  0.00  0.00    +0.000 C 
ATOM     28  N   UNL     1      -1.215  12.319  23.306  0.00  0.00    +0.000 NA
ENDBRANCH   7  27
TORSDOF 6
ENDMDL
MODEL 2
REMARK VINA RESULT:      -5.6      0.444      1.081
REMARK  Name = 
REMARK  8 active torsions:
REMARK  status: ('A' for Active; 'I' for Inactive)
REMARK    1  A    between atoms: C_1  and  S_2
REMARK    2  A    between atoms: S_2  and  C_3
REMARK    3  A    between atoms: C_4  and  C_5
REMARK    4  A    between atoms: N_7  and  C_8
REMARK    5  A    between atoms: C_11  and  C_12
REMARK    6  A    between atoms: C_15  and  N_16
REMARK    7  A    between atoms: N_17  and  N_18
REMARK    8  A    between atoms: C_21  and  C_22
REMARK                            x       y       z     vdW  Elec       q    Type
REMARK                         _______ _______ _______ _____ _____    ______ ____
ROOT
ATOM      1  C   UNL     1       0.335  10.974  20.448  0.00  0.00    +0.000 A 
ATOM      2  C   UNL     1       1.183  10.789  19.251  0.00  0.00    +0.000 A 
ATOM      3  C   UNL     1       1.719  11.872  18.627  0.00  0.00    +0.000 A 
ATOM      4  N   UNL     1       1.476  13.126  19.171  0.00  0.00    +0.000 N 
ATOM      5  C   UNL     1       0.770  13.384  20.349  0.00  0.00    +0.000 A 
ATOM      6  O   UNL     1       0.631  14.513  20.814  0.00  0.00    +0.000 OA
ATOM      7  C   UNL     1       0.173  12.200  21.004  0.00  0.00    +0.000 A 
ENDROOT
BRANCH   2   8
ATOM      8  C   UNL     1       1.380   9.428  18.619  0.00  0.00    +0.000 C 
ATOM      9  O   UNL     1       0.828   9.186  17.550  0.00  0.00    +0.000 OA
ATOM     10  N   UNL     1       2.238   8.564  19.285  0.00  0.00    +0.000 N 
ATOM     11  H   UNL     1       2.670   8.907  20.139  0.00  0.00    +0.000 HD
BRANCH  10  12
ATOM     12  C   UNL     1       2.613   7.265  18.863  0.00  0.00    +0.000 A 
ATOM     13  C   UNL     1       3.498   7.027  17.808  0.00  0.00    +0.000 A 
ATOM     14  C   UNL     1       3.792   5.729  17.386  0.00  0.00    +0.000 A 
ATOM     15  C   UNL     1       3.219   4.629  18.022  0.00  0.00    +0.000 A 
ATOM     16  C   UNL     1       3.477   3.244  17.507  0.00  0.00    +0.000 C 
ATOM     17  C   UNL     1       2.363   4.853  19.106  0.00  0.00    +0.000 A 
ATOM     18  C   UNL     1       2.066   6.159  19.526  0.00  0.00    +0.000 A 
ENDBRANCH  10  12
ENDBRANCH   2   8
BRANCH   3  19
ATOM     19  N   UNL     1       2.479  11.811  17.461  0.00  0.00    +0.000 N 
ATOM     20  H   UNL     1       3.488  11.828  17.628  0.00  0.00    +0.000 HD
ATOM     21  H   UNL     1       2.213  10.953  16.967  0.00  0.00    +0.000 HD
ENDBRANCH   3  19
BRANCH   4  22
ATOM     22  N   UNL     1       1.968  14.247  18.426  0.00  0.00    +0.000 N 
ATOM     23  H   UNL     1       2.380  14.893  19.104  0.00  0.00    +0.000 HD
ATOM     24  H   UNL     1       1.139  14.740  18.066  0.00  0.00    +0.000 HD
ENDBRANCH   4  22
BRANCH   1  26
ATOM     25  C   UNL     1       0.835   9.137  22.417  0.00  0.00    +0.000 C 
ATOM     26  S   UNL     1      -0.436   9.574  21.188  0.00  0.00    +0.000 S 
ENDBRANCH   1  26
BRANCH   7  27
ATOM     27  C   UNL     1      -0.622  12.356  22.291  0.00  0.00    +0.000 C 
ATOM     28  N   UNL     1      -1.283  12.485  23.357  0.00  0.00    +0.000 NA
ENDBRANCH   7  27
TORSDOF 6
ENDMDL
MODEL 3
REMARK VINA RESULT:      -5.6      4.936      6.922
REMARK  Name = 
REMARK  8 active torsions:
REMARK  status: ('A' for Active; 'I' for Inactive)
REMARK    1  A    between atoms: C_1  and  S_2
REMARK    2  A    between atoms: S_2  and  C_3
REMARK    3  A    between atoms: C_4  and  C_5
REMARK    4  A    between atoms: N_7  and  C_8
REMARK    5  A    between atoms: C_11  and  C_12
REMARK    6  A    between atoms: C_15  and  N_16
REMARK    7  A    between atoms: N_17  and  N_18
REMARK    8  A    between atoms: C_21  and  C_22
REMARK                            x       y       z     vdW  Elec       q    Type
REMARK                         _______ _______ _______ _____ _____    ______ ____
ROOT
ATOM      1  C   UNL     1       3.553   4.246  19.351  0.00  0.00    +0.000 A 
ATOM      2  C   UNL     1       4.090   5.261  18.419  0.00  0.00    +0.000 A 
ATOM      3  C   UNL     1       3.574   6.519  18.416  0.00  0.00    +0.000 A 
ATOM      4  N   UNL     1       2.574   6.817  19.331  0.00  0.00    +0.000 N 
ATOM      5  C   UNL     1       2.076   5.952  20.309  0.00  0.00    +0.000 A 
ATOM      6  O   UNL     1       1.226   6.286  21.131  0.00  0.00    +0.000 OA
ATOM      7  C   UNL     1       2.629   4.580  20.286  0.00  0.00    +0.000 A 
ENDROOT
BRANCH   2   8
ATOM      8  C   UNL     1       5.125   4.908  17.372  0.00  0.00    +0.000 C 
ATOM      9  O   UNL     1       6.244   4.561  17.739  0.00  0.00    +0.000 OA
ATOM     10  N   UNL     1       4.697   4.947  16.053  0.00  0.00    +0.000 N 
ATOM     11  H   UNL     1       3.728   5.204  15.887  0.00  0.00    +0.000 HD
BRANCH  10  12
ATOM     12  C   UNL     1       5.467   4.612  14.911  0.00  0.00    +0.000 A 
ATOM     13  C   UNL     1       6.745   5.121  14.672  0.00  0.00    +0.000 A 
ATOM     14  C   UNL     1       7.443   4.811  13.503  0.00  0.00    +0.000 A 
ATOM     15  C   UNL     1       6.883   3.967  12.545  0.00  0.00    +0.000 A 
ATOM     16  C   UNL     1       7.606   3.708  11.256  0.00  0.00    +0.000 C 
ATOM     17  C   UNL     1       5.620   3.419  12.792  0.00  0.00    +0.000 A 
ATOM     18  C   UNL     1       4.919   3.734  13.967  0.00  0.00    +0.000 A 
ENDBRANCH  10  12
ENDBRANCH   2   8
BRANCH   3  19
ATOM     19  N   UNL     1       3.967   7.527  17.539  0.00  0.00    +0.000 N 
ATOM     20  H   UNL     1       3.410   8.382  17.621  0.00  0.00    +0.000 HD
ATOM     21  H   UNL     1       4.955   7.727  17.724  0.00  0.00    +0.000 HD
ENDBRANCH   3  19
BRANCH   4  22
ATOM     22  N   UNL     1       1.984   8.118  19.226  0.00  0.00    +0.000 N 
ATOM     23  H   UNL     1       2.732   8.759  18.950  0.00  0.00    +0.000 HD
ATOM     24  H   UNL     1       1.738   8.402  20.184  0.00  0.00    +0.000 HD
ENDBRANCH   4  22
BRANCH   1  26
ATOM     25  C   UNL     1       3.035   1.913  18.013  0.00  0.00    +0.000 C 
ATOM     26  S   UNL     1       4.158   2.594  19.276  0.00  0.00    +0.000 S 
ENDBRANCH   1  26
BRANCH   7  27
ATOM     27  C   UNL     1       2.161   3.547  21.299  0.00  0.00    +0.000 C 
ATOM     28  N   UNL     1       1.772   2.690  22.139  0.00  0.00    +0.000 NA
ENDBRANCH   7  27
TORSDOF 6
ENDMDL
MODEL 4
REMARK VINA RESULT:      -5.6      3.621      8.300
REMARK  Name = 
REMARK  8 active torsions:
REMARK  status: ('A' for Active; 'I' for Inactive)
REMARK    1  A    between atoms: C_1  and  S_2
REMARK    2  A    between atoms: S_2  and  C_3
REMARK    3  A    between atoms: C_4  and  C_5
REMARK    4  A    between atoms: N_7  and  C_8
REMARK    5  A    between atoms: C_11  and  C_12
REMARK    6  A    between atoms: C_15  and  N_16
REMARK    7  A    between atoms: N_17  and  N_18
REMARK    8  A    between atoms: C_21  and  C_22
REMARK                            x       y       z     vdW  Elec       q    Type
REMARK                         _______ _______ _______ _____ _____    ______ ____
ROOT
ATOM      1  C   UNL     1       3.703   5.352  17.756  0.00  0.00    +0.000 A 
ATOM      2  C   UNL     1       2.696   5.604  18.809  0.00  0.00    +0.000 A 
ATOM      3  C   UNL     1       1.998   4.566  19.341  0.00  0.00    +0.000 A 
ATOM      4  N   UNL     1       2.290   3.284  18.896  0.00  0.00    +0.000 N 
ATOM      5  C   UNL     1       3.289   2.946  17.978  0.00  0.00    +0.000 A 
ATOM      6  O   UNL     1       3.541   1.786  17.658  0.00  0.00    +0.000 OA
ATOM      7  C   UNL     1       4.025   4.086  17.389  0.00  0.00    +0.000 A 
ENDROOT
BRANCH   2   8
ATOM      8  C   UNL     1       2.328   7.010  19.235  0.00  0.00    +0.000 C 
ATOM      9  O   UNL     1       2.459   7.325  20.414  0.00  0.00    +0.000 OA
ATOM     10  N   UNL     1       1.922   7.867  18.222  0.00  0.00    +0.000 N 
ATOM     11  H   UNL     1       1.904   7.493  17.277  0.00  0.00    +0.000 HD
BRANCH  10  12
ATOM     12  C   UNL     1       1.577   9.234  18.368  0.00  0.00    +0.000 A 
ATOM     13  C   UNL     1       2.403  10.281  17.952  0.00  0.00    +0.000 A 
ATOM     14  C   UNL     1       2.051  11.614  18.173  0.00  0.00    +0.000 A 
ATOM     15  C   UNL     1       0.850  11.936  18.804  0.00  0.00    +0.000 A 
ATOM     16  C   UNL     1       0.521  13.368  19.109  0.00  0.00    +0.000 C 
ATOM     17  C   UNL     1      -0.004  10.897  19.189  0.00  0.00    +0.000 A 
ATOM     18  C   UNL     1       0.354   9.557  18.969  0.00  0.00    +0.000 A 
ENDBRANCH  10  12
ENDBRANCH   2   8
BRANCH   3  19
ATOM     19  N   UNL     1       0.988   4.703  20.291  0.00  0.00    +0.000 N 
ATOM     20  H   UNL     1       0.048   4.560  19.915  0.00  0.00    +0.000 HD
ATOM     21  H   UNL     1       1.179   4.029  21.040  0.00  0.00    +0.000 HD
ENDBRANCH   3  19
BRANCH   4  22
ATOM     22  N   UNL     1       1.462   2.232  19.401  0.00  0.00    +0.000 N 
ATOM     23  H   UNL     1       1.989   1.775  20.149  0.00  0.00    +0.000 HD
ATOM     24  H   UNL     1       1.403   1.526  18.654  0.00  0.00    +0.000 HD
ENDBRANCH   4  22
BRANCH   1  26
ATOM     25  C   UNL     1       6.126   6.624  17.873  0.00  0.00    +0.000 C 
ATOM     26  S   UNL     1       4.529   6.712  17.002  0.00  0.00    +0.000 S 
ENDBRANCH   1  26
BRANCH   7  27
ATOM     27  C   UNL     1       5.131   3.843  16.375  0.00  0.00    +0.000 C 
ATOM     28  N   UNL     1       6.049   3.641  15.534  0.00  0.00    +0.000 NA
ENDBRANCH   7  27
TORSDOF 6
ENDMDL
MODEL 5
REMARK VINA RESULT:      -5.6      3.629      8.260
REMARK  Name = 
REMARK  8 active torsions:
REMARK  status: ('A' for Active; 'I' for Inactive)
REMARK    1  A    between atoms: C_1  and  S_2
REMARK    2  A    between atoms: S_2  and  C_3
REMARK    3  A    between atoms: C_4  and  C_5
REMARK    4  A    between atoms: N_7  and  C_8
REMARK    5  A    between atoms: C_11  and  C_12
REMARK    6  A    between atoms: C_15  and  N_16
REMARK    7  A    between atoms: N_17  and  N_18
REMARK    8  A    between atoms: C_21  and  C_22
REMARK                            x       y       z     vdW  Elec       q    Type
REMARK                         _______ _______ _______ _____ _____    ______ ____
ROOT
ATOM      1  C   UNL     1       4.459   5.706  18.744  0.00  0.00    +0.000 A 
ATOM      2  C   UNL     1       3.111   5.834  19.336  0.00  0.00    +0.000 A 
ATOM      3  C   UNL     1       2.545   4.771  19.968  0.00  0.00    +0.000 A 
ATOM      4  N   UNL     1       3.284   3.601  20.069  0.00  0.00    +0.000 N 
ATOM      5  C   UNL     1       4.598   3.423  19.625  0.00  0.00    +0.000 A 
ATOM      6  O   UNL     1       5.226   2.379  19.789  0.00  0.00    +0.000 OA
ATOM      7  C   UNL     1       5.192   4.578  18.918  0.00  0.00    +0.000 A 
ENDROOT
BRANCH   2   8
ATOM      8  C   UNL     1       2.280   7.086  19.156  0.00  0.00    +0.000 C 
ATOM      9  O   UNL     1       1.898   7.387  18.029  0.00  0.00    +0.000 OA
ATOM     10  N   UNL     1       1.957   7.777  20.316  0.00  0.00    +0.000 N 
ATOM     11  H   UNL     1       2.296   7.392  21.194  0.00  0.00    +0.000 HD
BRANCH  10  12
ATOM     12  C   UNL     1       1.153   8.940  20.403  0.00  0.00    +0.000 A 
ATOM     13  C   UNL     1       1.084   9.901  19.391  0.00  0.00    +0.000 A 
ATOM     14  C   UNL     1       0.326  11.064  19.545  0.00  0.00    +0.000 A 
ATOM     15  C   UNL     1      -0.399  11.289  20.715  0.00  0.00    +0.000 A 
ATOM     16  C   UNL     1      -1.141  12.579  20.902  0.00  0.00    +0.000 C 
ATOM     17  C   UNL     1      -0.369  10.315  21.719  0.00  0.00    +0.000 A 
ATOM     18  C   UNL     1       0.396   9.148  21.563  0.00  0.00    +0.000 A 
ENDBRANCH  10  12
ENDBRANCH   2   8
BRANCH   3  19
ATOM     19  N   UNL     1       1.259   4.769  20.506  0.00  0.00    +0.000 N 
ATOM     20  H   UNL     1       1.221   4.454  21.478  0.00  0.00    +0.000 HD
ATOM     21  H   UNL     1       0.892   5.723  20.425  0.00  0.00    +0.000 HD
ENDBRANCH   3  19
BRANCH   4  22
ATOM     22  N   UNL     1       2.615   2.474  20.647  0.00  0.00    +0.000 N 
ATOM     23  H   UNL     1       1.948   2.138  19.949  0.00  0.00    +0.000 HD
ATOM     24  H   UNL     1       2.031   2.846  21.409  0.00  0.00    +0.000 HD
ENDBRANCH   4  22
BRANCH   1  26
ATOM     25  C   UNL     1       4.912   6.433  16.142  0.00  0.00    +0.000 C 
ATOM     26  S   UNL     1       5.140   7.055  17.839  0.00  0.00    +0.000 S 
ENDBRANCH   1  26
BRANCH   7  27
ATOM     27  C   UNL     1       6.614   4.502  18.386  0.00  0.00    +0.000 C 
ATOM     28  N   UNL     1       7.793   4.438  17.943  0.00  0.00    +0.000 NA
ENDBRANCH   7  27
TORSDOF 6
ENDMDL
MODEL 6
REMARK VINA RESULT:      -5.6      3.633      8.235
REMARK  Name = 
REMARK  8 active torsions:
REMARK  status: ('A' for Active; 'I' for Inactive)
REMARK    1  A    between atoms: C_1  and  S_2
REMARK    2  A    between atoms: S_2  and  C_3
REMARK    3  A    between atoms: C_4  and  C_5
REMARK    4  A    between atoms: N_7  and  C_8
REMARK    5  A    between atoms: C_11  and  C_12
REMARK    6  A    between atoms: C_15  and  N_16
REMARK    7  A    between atoms: N_17  and  N_18
REMARK    8  A    between atoms: C_21  and  C_22
REMARK                            x       y       z     vdW  Elec       q    Type
REMARK                         _______ _______ _______ _____ _____    ______ ____
ROOT
ATOM      1  C   UNL     1       3.684   5.358  17.784  0.00  0.00    +0.000 A 
ATOM      2  C   UNL     1       2.689   5.600  18.850  0.00  0.00    +0.000 A 
ATOM      3  C   UNL     1       2.002   4.556  19.386  0.00  0.00    +0.000 A 
ATOM      4  N   UNL     1       2.296   3.278  18.932  0.00  0.00    +0.000 N 
ATOM      5  C   UNL     1       3.285   2.949  18.000  0.00  0.00    +0.000 A 
ATOM      6  O   UNL     1       3.539   1.792  17.673  0.00  0.00    +0.000 OA
ATOM      7  C   UNL     1       4.007   4.096  17.408  0.00  0.00    +0.000 A 
ENDROOT
BRANCH   2   8
ATOM      8  C   UNL     1       2.318   7.002  19.286  0.00  0.00    +0.000 C 
ATOM      9  O   UNL     1       2.473   7.317  20.462  0.00  0.00    +0.000 OA
ATOM     10  N   UNL     1       1.881   7.857  18.284  0.00  0.00    +0.000 N 
ATOM     11  H   UNL     1       1.845   7.485  17.339  0.00  0.00    +0.000 HD
BRANCH  10  12
ATOM     12  C   UNL     1       1.529   9.221  18.441  0.00  0.00    +0.000 A 
ATOM     13  C   UNL     1       0.323   9.640  19.009  0.00  0.00    +0.000 A 
ATOM     14  C   UNL     1      -0.009  10.994  19.087  0.00  0.00    +0.000 A 
ATOM     15  C   UNL     1       0.867  11.969  18.611  0.00  0.00    +0.000 A 
ATOM     16  C   UNL     1       0.462  13.414  18.624  0.00  0.00    +0.000 C 
ATOM     17  C   UNL     1       2.094  11.563  18.077  0.00  0.00    +0.000 A 
ATOM     18  C   UNL     1       2.425  10.201  17.996  0.00  0.00    +0.000 A 
ENDBRANCH  10  12
ENDBRANCH   2   8
BRANCH   3  19
ATOM     19  N   UNL     1       1.003   4.684  20.349  0.00  0.00    +0.000 N 
ATOM     20  H   UNL     1       0.363   3.887  20.384  0.00  0.00    +0.000 HD
ATOM     21  H   UNL     1       1.466   4.810  21.256  0.00  0.00    +0.000 HD
ENDBRANCH   3  19
BRANCH   4  22
ATOM     22  N   UNL     1       1.479   2.219  19.443  0.00  0.00    +0.000 N 
ATOM     23  H   UNL     1       2.113   1.529  19.852  0.00  0.00    +0.000 HD
ATOM     24  H   UNL     1       1.072   1.747  18.624  0.00  0.00    +0.000 HD
ENDBRANCH   4  22
BRANCH   1  26
ATOM     25  C   UNL     1       6.102   6.640  17.874  0.00  0.00    +0.000 C 
ATOM     26  S   UNL     1       4.493   6.726  17.025  0.00  0.00    +0.000 S 
ENDBRANCH   1  26
BRANCH   7  27
ATOM     27  C   UNL     1       5.103   3.863  16.379  0.00  0.00    +0.000 C 
ATOM     28  N   UNL     1       6.011   3.670  15.526  0.00  0.00    +0.000 NA
ENDBRANCH   7  27
TORSDOF 6
ENDMDL
MODEL 7
REMARK VINA RESULT:      -5.6      3.606      8.131
REMARK  Name = 
REMARK  8 active torsions:
REMARK  status: ('A' for Active; 'I' for Inactive)
REMARK    1  A    between atoms: C_1  and  S_2
REMARK    2  A    between atoms: S_2  and  C_3
REMARK    3  A    between atoms: C_4  and  C_5
REMARK    4  A    between atoms: N_7  and  C_8
REMARK    5  A    between atoms: C_11  and  C_12
REMARK    6  A    between atoms: C_15  and  N_16
REMARK    7  A    between atoms: N_17  and  N_18
REMARK    8  A    between atoms: C_21  and  C_22
REMARK                            x       y       z     vdW  Elec       q    Type
REMARK                         _______ _______ _______ _____ _____    ______ ____
ROOT
ATOM      1  C   UNL     1       4.472   5.739  18.609  0.00  0.00    +0.000 A 
ATOM      2  C   UNL     1       3.104   5.889  19.148  0.00  0.00    +0.000 A 
ATOM      3  C   UNL     1       2.524   4.861  19.823  0.00  0.00    +0.000 A 
ATOM      4  N   UNL     1       3.268   3.705  20.018  0.00  0.00    +0.000 N 
ATOM      5  C   UNL     1       4.597   3.513  19.628  0.00  0.00    +0.000 A 
ATOM      6  O   UNL     1       5.226   2.486  19.874  0.00  0.00    +0.000 OA
ATOM      7  C   UNL     1       5.206   4.630  18.874  0.00  0.00    +0.000 A 
ENDROOT
BRANCH   2   8
ATOM      8  C   UNL     1       2.271   7.122  18.866  0.00  0.00    +0.000 C 
ATOM      9  O   UNL     1       1.871   7.318  17.723  0.00  0.00    +0.000 OA
ATOM     10  N   UNL     1       1.967   7.917  19.963  0.00  0.00    +0.000 N 
ATOM     11  H   UNL     1       2.321   7.615  20.867  0.00  0.00    +0.000 HD
BRANCH  10  12
ATOM     12  C   UNL     1       1.166   9.086  19.955  0.00  0.00    +0.000 A 
ATOM     13  C   UNL     1       0.302   9.429  20.997  0.00  0.00    +0.000 A 
ATOM     14  C   UNL     1      -0.516  10.559  20.919  0.00  0.00    +0.000 A 
ATOM     15  C   UNL     1      -0.477  11.387  19.798  0.00  0.00    +0.000 A 
ATOM     16  C   UNL     1      -1.419  12.550  19.690  0.00  0.00    +0.000 C 
ATOM     17  C   UNL     1       0.413  11.075  18.765  0.00  0.00    +0.000 A 
ATOM     18  C   UNL     1       1.232   9.937  18.845  0.00  0.00    +0.000 A 
ENDBRANCH  10  12
ENDBRANCH   2   8
BRANCH   3  19
ATOM     19  N   UNL     1       1.222   4.880  20.317  0.00  0.00    +0.000 N 
ATOM     20  H   UNL     1       1.164   5.102  21.314  0.00  0.00    +0.000 HD
ATOM     21  H   UNL     1       0.696   5.567  19.768  0.00  0.00    +0.000 HD
ENDBRANCH   3  19
BRANCH   4  22
ATOM     22  N   UNL     1       2.588   2.609  20.640  0.00  0.00    +0.000 N 
ATOM     23  H   UNL     1       2.701   2.727  21.649  0.00  0.00    +0.000 HD
ATOM     24  H   UNL     1       3.132   1.766  20.412  0.00  0.00    +0.000 HD
ENDBRANCH   4  22
BRANCH   1  26
ATOM     25  C   UNL     1       5.038   6.300  15.988  0.00  0.00    +0.000 C 
ATOM     26  S   UNL     1       5.174   7.038  17.648  0.00  0.00    +0.000 S 
ENDBRANCH   1  26
BRANCH   7  27
ATOM     27  C   UNL     1       6.646   4.535  18.394  0.00  0.00    +0.000 C 
ATOM     28  N   UNL     1       7.840   4.457  17.995  0.00  0.00    +0.000 NA
ENDBRANCH   7  27
TORSDOF 6
ENDMDL
MODEL 8
REMARK VINA RESULT:      -5.5      3.348      7.576
REMARK  Name = 
REMARK  8 active torsions:
REMARK  status: ('A' for Active; 'I' for Inactive)
REMARK    1  A    between atoms: C_1  and  S_2
REMARK    2  A    between atoms: S_2  and  C_3
REMARK    3  A    between atoms: C_4  and  C_5
REMARK    4  A    between atoms: N_7  and  C_8
REMARK    5  A    between atoms: C_11  and  C_12
REMARK    6  A    between atoms: C_15  and  N_16
REMARK    7  A    between atoms: N_17  and  N_18
REMARK    8  A    between atoms: C_21  and  C_22
REMARK                            x       y       z     vdW  Elec       q    Type
REMARK                         _______ _______ _______ _____ _____    ______ ____
ROOT
ATOM      1  C   UNL     1       3.482   5.209  19.330  0.00  0.00    +0.000 A 
ATOM      2  C   UNL     1       3.272   6.466  18.578  0.00  0.00    +0.000 A 
ATOM      3  C   UNL     1       4.143   6.822  17.597  0.00  0.00    +0.000 A 
ATOM      4  N   UNL     1       5.190   5.958  17.307  0.00  0.00    +0.000 N 
ATOM      5  C   UNL     1       5.408   4.710  17.898  0.00  0.00    +0.000 A 
ATOM      6  O   UNL     1       6.323   3.961  17.565  0.00  0.00    +0.000 OA
ATOM      7  C   UNL     1       4.467   4.346  18.980  0.00  0.00    +0.000 A 
ENDROOT
BRANCH   2   8
ATOM      8  C   UNL     1       2.174   7.439  18.950  0.00  0.00    +0.000 C 
ATOM      9  O   UNL     1       1.330   7.730  18.108  0.00  0.00    +0.000 OA
ATOM     10  N   UNL     1       2.175   7.887  20.264  0.00  0.00    +0.000 N 
ATOM     11  H   UNL     1       2.904   7.530  20.875  0.00  0.00    +0.000 HD
BRANCH  10  12
ATOM     12  C   UNL     1       1.224   8.757  20.854  0.00  0.00    +0.000 A 
ATOM     13  C   UNL     1       0.782   9.934  20.246  0.00  0.00    +0.000 A 
ATOM     14  C   UNL     1      -0.110  10.793  20.892  0.00  0.00    +0.000 A 
ATOM     15  C   UNL     1      -0.597  10.487  22.162  0.00  0.00    +0.000 A 
ATOM     16  C   UNL     1      -1.489  11.457  22.879  0.00  0.00    +0.000 C 
ATOM     17  C   UNL     1      -0.192   9.291  22.764  0.00  0.00    +0.000 A 
ATOM     18  C   UNL     1       0.707   8.430  22.114  0.00  0.00    +0.000 A 
ENDBRANCH  10  12
ENDBRANCH   2   8
BRANCH   3  19
ATOM     19  N   UNL     1       4.069   8.010  16.874  0.00  0.00    +0.000 N 
ATOM     20  H   UNL     1       4.054   7.873  15.860  0.00  0.00    +0.000 HD
ATOM     21  H   UNL     1       3.223   8.503  17.179  0.00  0.00    +0.000 HD
ENDBRANCH   3  19
BRANCH   4  22
ATOM     22  N   UNL     1       6.144   6.417  16.343  0.00  0.00    +0.000 N 
ATOM     23  H   UNL     1       6.944   5.783  16.395  0.00  0.00    +0.000 HD
ATOM     24  H   UNL     1       6.500   7.317  16.695  0.00  0.00    +0.000 HD
ENDBRANCH   4  22
BRANCH   1  26
ATOM     25  C   UNL     1       1.106   3.915  19.756  0.00  0.00    +0.000 C 
ATOM     26  S   UNL     1       2.407   4.809  20.666  0.00  0.00    +0.000 S 
ENDBRANCH   1  26
BRANCH   7  27
ATOM     27  C   UNL     1       4.607   3.015  19.701  0.00  0.00    +0.000 C 
ATOM     28  N   UNL     1       4.722   1.910  20.299  0.00  0.00    +0.000 NA
ENDBRANCH   7  27
TORSDOF 6
ENDMDL
MODEL 9
REMARK VINA RESULT:      -5.4      3.576      7.724
REMARK  Name = 
REMARK  8 active torsions:
REMARK  status: ('A' for Active; 'I' for Inactive)
REMARK    1  A    between atoms: C_1  and  S_2
REMARK    2  A    between atoms: S_2  and  C_3
REMARK    3  A    between atoms: C_4  and  C_5
REMARK    4  A    between atoms: N_7  and  C_8
REMARK    5  A    between atoms: C_11  and  C_12
REMARK    6  A    between atoms: C_15  and  N_16
REMARK    7  A    between atoms: N_17  and  N_18
REMARK    8  A    between atoms: C_21  and  C_22
REMARK                            x       y       z     vdW  Elec       q    Type
REMARK                         _______ _______ _______ _____ _____    ______ ____
ROOT
ATOM      1  C   UNL     1       3.189   4.738  19.994  0.00  0.00    +0.000 A 
ATOM      2  C   UNL     1       2.674   6.027  19.485  0.00  0.00    +0.000 A 
ATOM      3  C   UNL     1       3.258   6.611  18.405  0.00  0.00    +0.000 A 
ATOM      4  N   UNL     1       4.308   5.944  17.789  0.00  0.00    +0.000 N 
ATOM      5  C   UNL     1       4.794   4.682  18.142  0.00  0.00    +0.000 A 
ATOM      6  O   UNL     1       5.693   4.113  17.527  0.00  0.00    +0.000 OA
ATOM      7  C   UNL     1       4.165   4.069  19.332  0.00  0.00    +0.000 A 
ENDROOT
BRANCH   2   8
ATOM      8  C   UNL     1       1.581   6.786  20.207  0.00  0.00    +0.000 C 
ATOM      9  O   UNL     1       0.568   6.182  20.550  0.00  0.00    +0.000 OA
ATOM     10  N   UNL     1       1.845   8.120  20.484  0.00  0.00    +0.000 N 
ATOM     11  H   UNL     1       2.746   8.485  20.188  0.00  0.00    +0.000 HD
BRANCH  10  12
ATOM     12  C   UNL     1       1.000   9.012  21.190  0.00  0.00    +0.000 A 
ATOM     13  C   UNL     1       0.772   8.926  22.565  0.00  0.00    +0.000 A 
ATOM     14  C   UNL     1      -0.117   9.790  23.209  0.00  0.00    +0.000 A 
ATOM     15  C   UNL     1      -0.792  10.777  22.492  0.00  0.00    +0.000 A 
ATOM     16  C   UNL     1      -1.806  11.644  23.178  0.00  0.00    +0.000 C 
ATOM     17  C   UNL     1      -0.541  10.899  21.121  0.00  0.00    +0.000 A 
ATOM     18  C   UNL     1       0.351  10.027  20.476  0.00  0.00    +0.000 A 
ENDBRANCH  10  12
ENDBRANCH   2   8
BRANCH   3  19
ATOM     19  N   UNL     1       2.889   7.850  17.886  0.00  0.00    +0.000 N 
ATOM     20  H   UNL     1       3.684   8.448  17.647  0.00  0.00    +0.000 HD
ATOM     21  H   UNL     1       2.312   7.675  17.056  0.00  0.00    +0.000 HD
ENDBRANCH   3  19
BRANCH   4  22
ATOM     22  N   UNL     1       4.964   6.640  16.723  0.00  0.00    +0.000 N 
ATOM     23  H   UNL     1       5.912   6.847  17.047  0.00  0.00    +0.000 HD
ATOM     24  H   UNL     1       4.505   7.559  16.653  0.00  0.00    +0.000 HD
ENDBRANCH   4  22
BRANCH   1  26
ATOM     25  C   UNL     1       1.260   2.927  20.703  0.00  0.00    +0.000 C 
ATOM     26  S   UNL     1       2.491   4.040  21.453  0.00  0.00    +0.000 S 
ENDBRANCH   1  26
BRANCH   7  27
ATOM     27  C   UNL     1       4.614   2.698  19.816  0.00  0.00    +0.000 C 
ATOM     28  N   UNL     1       4.987   1.562  20.216  0.00  0.00    +0.000 NA
ENDBRANCH   7  27
TORSDOF 6
ENDMDL
