MODEL 1
REMARK VINA RESULT:      -7.6      0.000      0.000
REMARK  Name = 
REMARK  6 active torsions:
REMARK  status: ('A' for Active; 'I' for Inactive)
REMARK    1  A    between atoms: C_1  and  C_2
REMARK    2  A    between atoms: C_5  and  C_7
REMARK    3  A    between atoms: C_17  and  C_18
REMARK    4  A    between atoms: C_27  and  C_28
REMARK    5  A    between atoms: C_29  and  O_30
REMARK    6  A    between atoms: C_29  and  C_31
REMARK                            x       y       z     vdW  Elec       q    Type
REMARK                         _______ _______ _______ _____ _____    ______ ____
ROOT
ATOM      1  C   UNL     1       0.222  11.668  19.529  0.00  0.00    +0.000 C 
ATOM      2  C   UNL     1      -1.173  11.474  20.133  0.00  0.00    +0.000 C 
ATOM      3  N   UNL     1      -1.961  10.744  19.122  0.00  0.00    +0.000 N 
ATOM      4  C   UNL     1      -3.225  11.240  18.791  0.00  0.00    +0.000 A 
ATOM      5  C   UNL     1      -3.999  10.610  17.810  0.00  0.00    +0.000 A 
ATOM      6  C   UNL     1      -5.242  11.132  17.449  0.00  0.00    +0.000 A 
ATOM      7  C   UNL     1      -5.704  12.268  18.087  0.00  0.00    +0.000 A 
ATOM      8  C   UNL     1      -4.909  12.813  19.075  0.00  0.00    +0.000 A 
ATOM      9  N   UNL     1      -3.705  12.321  19.440  0.00  0.00    +0.000 NA
ATOM     10  C   UNL     1      -1.105  10.374  17.982  0.00  0.00    +0.000 C 
ATOM     11  C   UNL     1       0.336  10.535  18.492  0.00  0.00    +0.000 C 
ENDROOT
BRANCH   1  16
ATOM     12  C   UNL     1       4.438  14.038  21.472  0.00  0.00    +0.000 C 
ATOM     13  C   UNL     1       3.559  14.197  20.223  0.00  0.00    +0.000 C 
ATOM     14  C   UNL     1       2.110  13.794  20.573  0.00  0.00    +0.000 C 
ATOM     15  N   UNL     1       1.200  13.995  19.445  0.00  0.00    +0.000 N 
ATOM     16  C   UNL     1       0.325  13.055  18.893  0.00  0.00    +0.000 C 
ATOM     17  O   UNL     1      -0.367  13.334  17.910  0.00  0.00    +0.000 OA
ATOM     18  C   UNL     1       1.184  15.354  18.903  0.00  0.00    +0.000 C 
ATOM     19  C   UNL     1       2.586  15.790  18.462  0.00  0.00    +0.000 C 
ATOM     20  C   UNL     1       2.533  17.214  17.888  0.00  0.00    +0.000 C 
ATOM     21  C   UNL     1       3.623  15.636  19.621  0.00  0.00    +0.000 C 
BRANCH  21  22
ATOM     22  C   UNL     1       5.029  15.967  19.078  0.00  0.00    +0.000 A 
ATOM     23  C   UNL     1       5.692  15.106  18.184  0.00  0.00    +0.000 A 
ATOM     24  C   UNL     1       7.027  15.321  17.830  0.00  0.00    +0.000 A 
ATOM     25  C   UNL     1       7.723  16.405  18.356  0.00  0.00    +0.000 A 
ATOM     26  C   UNL     1       7.075  17.296  19.206  0.00  0.00    +0.000 A 
ATOM     27  C   UNL     1       5.738  17.089  19.550  0.00  0.00    +0.000 A 
ENDBRANCH  21  22
BRANCH  21  28
ATOM     28  O   UNL     1       3.314  16.583  20.658  0.00  0.00    +0.000 OA
ATOM     29  H   UNL     1       3.987  16.531  21.356  0.00  0.00    +0.000 HD
ENDBRANCH  21  28
ENDBRANCH   1  16
BRANCH  11  30
ATOM     30  C   UNL     1       0.951   9.284  19.111  0.00  0.00    +0.000 A 
ATOM     31  C   UNL     1       0.717   8.892  20.438  0.00  0.00    +0.000 A 
ATOM     32  C   UNL     1       1.345   7.762  20.966  0.00  0.00    +0.000 A 
ATOM     33  C   UNL     1       2.209   7.018  20.171  0.00  0.00    +0.000 A 
ATOM     34  F   UNL     1       2.818   5.944  20.688  0.00  0.00    +0.000 F 
ATOM     35  C   UNL     1       2.457   7.378  18.856  0.00  0.00    +0.000 A 
ATOM     36  C   UNL     1       1.831   8.507  18.339  0.00  0.00    +0.000 A 
ATOM     37  F   UNL     1       2.095   8.861  17.074  0.00  0.00    +0.000 F 
ENDBRANCH  11  30
TORSDOF 4
ENDMDL
MODEL 2
REMARK VINA RESULT:      -7.5      3.206      8.409
REMARK  Name = 
REMARK  6 active torsions:
REMARK  status: ('A' for Active; 'I' for Inactive)
REMARK    1  A    between atoms: C_1  and  C_2
REMARK    2  A    between atoms: C_5  and  C_7
REMARK    3  A    between atoms: C_17  and  C_18
REMARK    4  A    between atoms: C_27  and  C_28
REMARK    5  A    between atoms: C_29  and  O_30
REMARK    6  A    between atoms: C_29  and  C_31
REMARK                            x       y       z     vdW  Elec       q    Type
REMARK                         _______ _______ _______ _____ _____    ______ ____
ROOT
ATOM      1  C   UNL     1       0.103  10.283  18.847  0.00  0.00    +0.000 C 
ATOM      2  C   UNL     1       0.368  11.098  20.118  0.00  0.00    +0.000 C 
ATOM      3  N   UNL     1       0.320  12.516  19.715  0.00  0.00    +0.000 N 
ATOM      4  C   UNL     1       1.368  13.348  20.118  0.00  0.00    +0.000 A 
ATOM      5  C   UNL     1       1.395  14.693  19.730  0.00  0.00    +0.000 A 
ATOM      6  C   UNL     1       2.465  15.511  20.095  0.00  0.00    +0.000 A 
ATOM      7  C   UNL     1       3.486  14.980  20.861  0.00  0.00    +0.000 A 
ATOM      8  C   UNL     1       3.375  13.658  21.245  0.00  0.00    +0.000 A 
ATOM      9  N   UNL     1       2.347  12.851  20.903  0.00  0.00    +0.000 NA
ATOM     10  C   UNL     1      -0.072  12.628  18.301  0.00  0.00    +0.000 C 
ATOM     11  C   UNL     1      -0.668  11.258  17.938  0.00  0.00    +0.000 C 
ENDROOT
BRANCH   1  16
ATOM     12  C   UNL     1       1.387   5.683  20.934  0.00  0.00    +0.000 C 
ATOM     13  C   UNL     1       1.759   6.462  19.663  0.00  0.00    +0.000 C 
ATOM     14  C   UNL     1       1.712   7.975  19.969  0.00  0.00    +0.000 C 
ATOM     15  N   UNL     1       2.130   8.777  18.819  0.00  0.00    +0.000 N 
ATOM     16  C   UNL     1       1.429   9.834  18.232  0.00  0.00    +0.000 C 
ATOM     17  O   UNL     1       1.870  10.411  17.234  0.00  0.00    +0.000 OA
ATOM     18  C   UNL     1       3.457   8.452  18.293  0.00  0.00    +0.000 C 
ATOM     19  C   UNL     1       3.548   6.974  17.897  0.00  0.00    +0.000 C 
ATOM     20  C   UNL     1       4.946   6.670  17.340  0.00  0.00    +0.000 C 
ATOM     21  C   UNL     1       3.144   6.038  19.081  0.00  0.00    +0.000 C 
BRANCH  21  22
ATOM     22  C   UNL     1       3.133   4.579  18.581  0.00  0.00    +0.000 A 
ATOM     23  C   UNL     1       2.195   4.136  17.630  0.00  0.00    +0.000 A 
ATOM     24  C   UNL     1       2.077   2.780  17.309  0.00  0.00    +0.000 A 
ATOM     25  C   UNL     1       2.901   1.843  17.924  0.00  0.00    +0.000 A 
ATOM     26  C   UNL     1       3.867   2.262  18.833  0.00  0.00    +0.000 A 
ATOM     27  C   UNL     1       3.994   3.618  19.146  0.00  0.00    +0.000 A 
ENDBRANCH  21  22
BRANCH  21  28
ATOM     28  O   UNL     1       4.131   6.143  20.121  0.00  0.00    +0.000 OA
ATOM     29  H   UNL     1       4.065   5.374  20.711  0.00  0.00    +0.000 HD
ENDBRANCH  21  28
ENDBRANCH   1  16
BRANCH  11  30
ATOM     30  C   UNL     1      -2.173  11.128  18.145  0.00  0.00    +0.000 A 
ATOM     31  C   UNL     1      -2.904  11.970  18.997  0.00  0.00    +0.000 A 
ATOM     32  C   UNL     1      -4.274  11.775  19.184  0.00  0.00    +0.000 A 
ATOM     33  C   UNL     1      -4.920  10.738  18.522  0.00  0.00    +0.000 A 
ATOM     34  F   UNL     1      -6.231  10.548  18.717  0.00  0.00    +0.000 F 
ATOM     35  C   UNL     1      -4.226   9.892  17.671  0.00  0.00    +0.000 A 
ATOM     36  C   UNL     1      -2.862  10.091  17.493  0.00  0.00    +0.000 A 
ATOM     37  F   UNL     1      -2.193   9.255  16.687  0.00  0.00    +0.000 F 
ENDBRANCH  11  30
TORSDOF 4
ENDMDL
MODEL 3
REMARK VINA RESULT:      -7.4      2.849      5.316
REMARK  Name = 
REMARK  6 active torsions:
REMARK  status: ('A' for Active; 'I' for Inactive)
REMARK    1  A    between atoms: C_1  and  C_2
REMARK    2  A    between atoms: C_5  and  C_7
REMARK    3  A    between atoms: C_17  and  C_18
REMARK    4  A    between atoms: C_27  and  C_28
REMARK    5  A    between atoms: C_29  and  O_30
REMARK    6  A    between atoms: C_29  and  C_31
REMARK                            x       y       z     vdW  Elec       q    Type
REMARK                         _______ _______ _______ _____ _____    ______ ____
ROOT
ATOM      1  C   UNL     1       0.420  12.180  19.133  0.00  0.00    +0.000 C 
ATOM      2  C   UNL     1       0.128  10.791  18.552  0.00  0.00    +0.000 C 
ATOM      3  N   UNL     1       0.531   9.820  19.587  0.00  0.00    +0.000 N 
ATOM      4  C   UNL     1       1.346   8.753  19.202  0.00  0.00    +0.000 A 
ATOM      5  C   UNL     1       1.792   7.824  20.149  0.00  0.00    +0.000 A 
ATOM      6  C   UNL     1       2.643   6.784  19.772  0.00  0.00    +0.000 A 
ATOM      7  C   UNL     1       3.024   6.674  18.447  0.00  0.00    +0.000 A 
ATOM      8  C   UNL     1       2.513   7.599  17.558  0.00  0.00    +0.000 A 
ATOM      9  N   UNL     1       1.687   8.611  17.903  0.00  0.00    +0.000 NA
ATOM     10  C   UNL     1       0.943  10.525  20.811  0.00  0.00    +0.000 C 
ATOM     11  C   UNL     1       0.398  11.954  20.656  0.00  0.00    +0.000 C 
ENDROOT
BRANCH   1  16
ATOM     12  C   UNL     1       1.272  16.899  21.175  0.00  0.00    +0.000 C 
ATOM     13  C   UNL     1       2.138  15.785  20.568  0.00  0.00    +0.000 C 
ATOM     14  C   UNL     1       1.323  15.050  19.481  0.00  0.00    +0.000 C 
ATOM     15  N   UNL     1       2.115  14.022  18.807  0.00  0.00    +0.000 N 
ATOM     16  C   UNL     1       1.777  12.677  18.634  0.00  0.00    +0.000 C 
ATOM     17  O   UNL     1       2.552  11.894  18.079  0.00  0.00    +0.000 OA
ATOM     18  C   UNL     1       3.361  14.503  18.206  0.00  0.00    +0.000 C 
ATOM     19  C   UNL     1       4.255  15.179  19.251  0.00  0.00    +0.000 C 
ATOM     20  C   UNL     1       5.555  15.661  18.591  0.00  0.00    +0.000 C 
ATOM     21  C   UNL     1       3.494  16.316  20.005  0.00  0.00    +0.000 C 
BRANCH  21  22
ATOM     22  C   UNL     1       4.401  16.867  21.124  0.00  0.00    +0.000 A 
ATOM     23  C   UNL     1       4.886  18.187  21.092  0.00  0.00    +0.000 A 
ATOM     24  C   UNL     1       5.842  18.628  22.012  0.00  0.00    +0.000 A 
ATOM     25  C   UNL     1       6.325  17.760  22.987  0.00  0.00    +0.000 A 
ATOM     26  C   UNL     1       5.826  16.464  23.067  0.00  0.00    +0.000 A 
ATOM     27  C   UNL     1       4.862  16.027  22.156  0.00  0.00    +0.000 A 
ENDBRANCH  21  22
BRANCH  21  28
ATOM     28  O   UNL     1       3.222  17.389  19.087  0.00  0.00    +0.000 OA
ATOM     29  H   UNL     1       2.581  17.091  18.419  0.00  0.00    +0.000 HD
ENDBRANCH  21  28
ENDBRANCH   1  16
BRANCH  11  30
ATOM     30  C   UNL     1      -0.998  12.183  21.226  0.00  0.00    +0.000 A 
ATOM     31  C   UNL     1      -1.994  12.901  20.545  0.00  0.00    +0.000 A 
ATOM     32  C   UNL     1      -3.241  13.120  21.136  0.00  0.00    +0.000 A 
ATOM     33  C   UNL     1      -3.498  12.623  22.408  0.00  0.00    +0.000 A 
ATOM     34  F   UNL     1      -4.691  12.849  22.974  0.00  0.00    +0.000 F 
ATOM     35  C   UNL     1      -2.536  11.908  23.103  0.00  0.00    +0.000 A 
ATOM     36  C   UNL     1      -1.297  11.697  22.510  0.00  0.00    +0.000 A 
ATOM     37  F   UNL     1      -0.364  11.024  23.198  0.00  0.00    +0.000 F 
ENDBRANCH  11  30
TORSDOF 4
ENDMDL
MODEL 4
REMARK VINA RESULT:      -7.4      1.186      1.414
REMARK  Name = 
REMARK  6 active torsions:
REMARK  status: ('A' for Active; 'I' for Inactive)
REMARK    1  A    between atoms: C_1  and  C_2
REMARK    2  A    between atoms: C_5  and  C_7
REMARK    3  A    between atoms: C_17  and  C_18
REMARK    4  A    between atoms: C_27  and  C_28
REMARK    5  A    between atoms: C_29  and  O_30
REMARK    6  A    between atoms: C_29  and  C_31
REMARK                            x       y       z     vdW  Elec       q    Type
REMARK                         _______ _______ _______ _____ _____    ______ ____
ROOT
ATOM      1  C   UNL     1       0.445  12.262  19.919  0.00  0.00    +0.000 C 
ATOM      2  C   UNL     1      -0.643  12.533  20.966  0.00  0.00    +0.000 C 
ATOM      3  N   UNL     1      -1.892  11.974  20.416  0.00  0.00    +0.000 N 
ATOM      4  C   UNL     1      -3.032  12.782  20.424  0.00  0.00    +0.000 A 
ATOM      5  C   UNL     1      -4.234  12.317  19.878  0.00  0.00    +0.000 A 
ATOM      6  C   UNL     1      -5.360  13.141  19.847  0.00  0.00    +0.000 A 
ATOM      7  C   UNL     1      -5.275  14.414  20.379  0.00  0.00    +0.000 A 
ATOM      8  C   UNL     1      -4.072  14.793  20.940  0.00  0.00    +0.000 A 
ATOM      9  N   UNL     1      -2.972  14.009  20.982  0.00  0.00    +0.000 NA
ATOM     10  C   UNL     1      -1.619  11.273  19.150  0.00  0.00    +0.000 C 
ATOM     11  C   UNL     1      -0.098  11.056  19.129  0.00  0.00    +0.000 C 
ENDROOT
BRANCH   1  16
ATOM     12  C   UNL     1       4.824  14.652  21.426  0.00  0.00    +0.000 C 
ATOM     13  C   UNL     1       3.952  14.638  20.161  0.00  0.00    +0.000 C 
ATOM     14  C   UNL     1       2.480  14.408  20.569  0.00  0.00    +0.000 C 
ATOM     15  N   UNL     1       1.581  14.460  19.417  0.00  0.00    +0.000 N 
ATOM     16  C   UNL     1       0.640  13.497  19.040  0.00  0.00    +0.000 C 
ATOM     17  O   UNL     1      -0.037  13.637  18.017  0.00  0.00    +0.000 OA
ATOM     18  C   UNL     1       1.657  15.694  18.633  0.00  0.00    +0.000 C 
ATOM     19  C   UNL     1       3.083  15.943  18.130  0.00  0.00    +0.000 C 
ATOM     20  C   UNL     1       3.125  17.237  17.304  0.00  0.00    +0.000 C 
ATOM     21  C   UNL     1       4.113  15.934  19.305  0.00  0.00    +0.000 C 
BRANCH  21  22
ATOM     22  C   UNL     1       5.535  16.061  18.722  0.00  0.00    +0.000 A 
ATOM     23  C   UNL     1       6.125  15.013  17.992  0.00  0.00    +0.000 A 
ATOM     24  C   UNL     1       7.471  15.064  17.614  0.00  0.00    +0.000 A 
ATOM     25  C   UNL     1       8.249  16.167  17.951  0.00  0.00    +0.000 A 
ATOM     26  C   UNL     1       7.675  17.236  18.632  0.00  0.00    +0.000 A 
ATOM     27  C   UNL     1       6.329  17.191  18.999  0.00  0.00    +0.000 A 
ENDBRANCH  21  22
BRANCH  21  28
ATOM     28  O   UNL     1       3.876  17.074  20.148  0.00  0.00    +0.000 OA
ATOM     29  H   UNL     1       2.949  17.076  20.439  0.00  0.00    +0.000 HD
ENDBRANCH  21  28
ENDBRANCH   1  16
BRANCH  11  30
ATOM     30  C   UNL     1       0.381   9.741  19.736  0.00  0.00    +0.000 A 
ATOM     31  C   UNL     1      -0.107   9.237  20.952  0.00  0.00    +0.000 A 
ATOM     32  C   UNL     1       0.402   8.051  21.485  0.00  0.00    +0.000 A 
ATOM     33  C   UNL     1       1.401   7.362  20.805  0.00  0.00    +0.000 A 
ATOM     34  F   UNL     1       1.893   6.233  21.329  0.00  0.00    +0.000 F 
ATOM     35  C   UNL     1       1.900   7.833  19.602  0.00  0.00    +0.000 A 
ATOM     36  C   UNL     1       1.390   9.017  19.081  0.00  0.00    +0.000 A 
ATOM     37  F   UNL     1       1.895   9.478  17.927  0.00  0.00    +0.000 F 
ENDBRANCH  11  30
TORSDOF 4
ENDMDL
MODEL 5
REMARK VINA RESULT:      -7.4      3.660      5.210
REMARK  Name = 
REMARK  6 active torsions:
REMARK  status: ('A' for Active; 'I' for Inactive)
REMARK    1  A    between atoms: C_1  and  C_2
REMARK    2  A    between atoms: C_5  and  C_7
REMARK    3  A    between atoms: C_17  and  C_18
REMARK    4  A    between atoms: C_27  and  C_28
REMARK    5  A    between atoms: C_29  and  O_30
REMARK    6  A    between atoms: C_29  and  C_31
REMARK                            x       y       z     vdW  Elec       q    Type
REMARK                         _______ _______ _______ _____ _____    ______ ____
ROOT
ATOM      1  C   UNL     1       0.300  10.689  19.955  0.00  0.00    +0.000 C 
ATOM      2  C   UNL     1      -1.150  10.227  19.772  0.00  0.00    +0.000 C 
ATOM      3  N   UNL     1      -1.289   9.862  18.350  0.00  0.00    +0.000 N 
ATOM      4  C   UNL     1      -2.378  10.381  17.643  0.00  0.00    +0.000 A 
ATOM      5  C   UNL     1      -2.537  10.101  16.281  0.00  0.00    +0.000 A 
ATOM      6  C   UNL     1      -3.599  10.656  15.566  0.00  0.00    +0.000 A 
ATOM      7  C   UNL     1      -4.500  11.471  16.226  0.00  0.00    +0.000 A 
ATOM      8  C   UNL     1      -4.307  11.671  17.578  0.00  0.00    +0.000 A 
ATOM      9  N   UNL     1      -3.288  11.141  18.288  0.00  0.00    +0.000 NA
ATOM     10  C   UNL     1       0.013   9.959  17.672  0.00  0.00    +0.000 C 
ATOM     11  C   UNL     1       1.054  10.000  18.802  0.00  0.00    +0.000 C 
ENDROOT
BRANCH   1  16
ATOM     12  C   UNL     1      -3.349  12.665  23.108  0.00  0.00    +0.000 C 
ATOM     13  C   UNL     1      -2.048  13.173  22.469  0.00  0.00    +0.000 C 
ATOM     14  C   UNL     1      -1.855  12.481  21.103  0.00  0.00    +0.000 C 
ATOM     15  N   UNL     1      -0.670  12.976  20.403  0.00  0.00    +0.000 N 
ATOM     16  C   UNL     1       0.375  12.214  19.874  0.00  0.00    +0.000 C 
ATOM     17  O   UNL     1       1.347  12.754  19.338  0.00  0.00    +0.000 OA
ATOM     18  C   UNL     1      -0.639  14.426  20.197  0.00  0.00    +0.000 C 
ATOM     19  C   UNL     1      -0.750  15.176  21.528  0.00  0.00    +0.000 C 
ATOM     20  C   UNL     1      -0.704  16.691  21.278  0.00  0.00    +0.000 C 
ATOM     21  C   UNL     1      -2.011  14.728  22.334  0.00  0.00    +0.000 C 
BRANCH  21  22
ATOM     22  C   UNL     1      -1.996  15.422  23.712  0.00  0.00    +0.000 A 
ATOM     23  C   UNL     1      -2.951  16.396  24.053  0.00  0.00    +0.000 A 
ATOM     24  C   UNL     1      -2.832  17.143  25.229  0.00  0.00    +0.000 A 
ATOM     25  C   UNL     1      -1.763  16.924  26.091  0.00  0.00    +0.000 A 
ATOM     26  C   UNL     1      -0.830  15.933  25.797  0.00  0.00    +0.000 A 
ATOM     27  C   UNL     1      -0.955  15.179  24.629  0.00  0.00    +0.000 A 
ENDBRANCH  21  22
BRANCH  21  28
ATOM     28  O   UNL     1      -3.193  15.156  21.636  0.00  0.00    +0.000 OA
ATOM     29  H   UNL     1      -3.258  16.125  21.671  0.00  0.00    +0.000 HD
ENDBRANCH  21  28
ENDBRANCH   1  16
BRANCH  11  30
ATOM     30  C   UNL     1       1.598   8.642  19.236  0.00  0.00    +0.000 A 
ATOM     31  C   UNL     1       1.368   8.096  20.508  0.00  0.00    +0.000 A 
ATOM     32  C   UNL     1       1.930   6.869  20.866  0.00  0.00    +0.000 A 
ATOM     33  C   UNL     1       2.725   6.182  19.956  0.00  0.00    +0.000 A 
ATOM     34  F   UNL     1       3.272   5.013  20.312  0.00  0.00    +0.000 F 
ATOM     35  C   UNL     1       2.968   6.695  18.692  0.00  0.00    +0.000 A 
ATOM     36  C   UNL     1       2.407   7.918  18.344  0.00  0.00    +0.000 A 
ATOM     37  F   UNL     1       2.665   8.417  17.127  0.00  0.00    +0.000 F 
ENDBRANCH  11  30
TORSDOF 4
ENDMDL
MODEL 6
REMARK VINA RESULT:      -7.3      2.838      3.851
REMARK  Name = 
REMARK  6 active torsions:
REMARK  status: ('A' for Active; 'I' for Inactive)
REMARK    1  A    between atoms: C_1  and  C_2
REMARK    2  A    between atoms: C_5  and  C_7
REMARK    3  A    between atoms: C_17  and  C_18
REMARK    4  A    between atoms: C_27  and  C_28
REMARK    5  A    between atoms: C_29  and  O_30
REMARK    6  A    between atoms: C_29  and  C_31
REMARK                            x       y       z     vdW  Elec       q    Type
REMARK                         _______ _______ _______ _____ _____    ______ ____
ROOT
ATOM      1  C   UNL     1      -0.650  12.386  22.588  0.00  0.00    +0.000 C 
ATOM      2  C   UNL     1      -2.080  12.051  23.027  0.00  0.00    +0.000 C 
ATOM      3  N   UNL     1      -2.882  11.972  21.792  0.00  0.00    +0.000 N 
ATOM      4  C   UNL     1      -4.088  12.677  21.747  0.00  0.00    +0.000 A 
ATOM      5  C   UNL     1      -4.870  12.671  20.585  0.00  0.00    +0.000 A 
ATOM      6  C   UNL     1      -6.051  13.411  20.526  0.00  0.00    +0.000 A 
ATOM      7  C   UNL     1      -6.446  14.135  21.635  0.00  0.00    +0.000 A 
ATOM      8  C   UNL     1      -5.651  14.063  22.761  0.00  0.00    +0.000 A 
ATOM      9  N   UNL     1      -4.506  13.350  22.839  0.00  0.00    +0.000 NA
ATOM     10  C   UNL     1      -2.014  12.122  20.613  0.00  0.00    +0.000 C 
ATOM     11  C   UNL     1      -0.586  11.888  21.132  0.00  0.00    +0.000 C 
ENDROOT
BRANCH   1  16
ATOM     12  C   UNL     1       2.005  13.934  18.378  0.00  0.00    +0.000 C 
ATOM     13  C   UNL     1       1.116  14.609  19.434  0.00  0.00    +0.000 C 
ATOM     14  C   UNL     1       1.276  13.864  20.777  0.00  0.00    +0.000 C 
ATOM     15  N   UNL     1       0.513  14.502  21.849  0.00  0.00    +0.000 N 
ATOM     16  C   UNL     1      -0.411  13.892  22.702  0.00  0.00    +0.000 C 
ATOM     17  O   UNL     1      -1.025  14.549  23.547  0.00  0.00    +0.000 OA
ATOM     18  C   UNL     1       0.821  15.917  22.065  0.00  0.00    +0.000 C 
ATOM     19  C   UNL     1       0.608  16.731  20.784  0.00  0.00    +0.000 C 
ATOM     20  C   UNL     1       0.929  18.210  21.047  0.00  0.00    +0.000 C 
ATOM     21  C   UNL     1       1.414  16.134  19.586  0.00  0.00    +0.000 C 
BRANCH  21  22
ATOM     22  C   UNL     1       1.058  16.917  18.306  0.00  0.00    +0.000 A 
ATOM     23  C   UNL     1       2.055  17.390  17.434  0.00  0.00    +0.000 A 
ATOM     24  C   UNL     1       1.741  18.243  16.371  0.00  0.00    +0.000 A 
ATOM     25  C   UNL     1       0.423  18.631  16.154  0.00  0.00    +0.000 A 
ATOM     26  C   UNL     1      -0.587  18.139  16.975  0.00  0.00    +0.000 A 
ATOM     27  C   UNL     1      -0.275  17.278  18.029  0.00  0.00    +0.000 A 
ENDBRANCH  21  22
BRANCH  21  28
ATOM     28  O   UNL     1       2.820  16.304  19.833  0.00  0.00    +0.000 OA
ATOM     29  H   UNL     1       2.984  16.308  20.791  0.00  0.00    +0.000 HD
ENDBRANCH  21  28
ENDBRANCH   1  16
BRANCH  11  30
ATOM     30  C   UNL     1      -0.099  10.444  21.067  0.00  0.00    +0.000 A 
ATOM     31  C   UNL     1      -0.395   9.491  22.054  0.00  0.00    +0.000 A 
ATOM     32  C   UNL     1       0.117   8.194  21.965  0.00  0.00    +0.000 A 
ATOM     33  C   UNL     1       0.929   7.845  20.892  0.00  0.00    +0.000 A 
ATOM     34  F   UNL     1       1.427   6.604  20.822  0.00  0.00    +0.000 F 
ATOM     35  C   UNL     1       1.236   8.763  19.901  0.00  0.00    +0.000 A 
ATOM     36  C   UNL     1       0.725  10.052  19.998  0.00  0.00    +0.000 A 
ATOM     37  F   UNL     1       1.046  10.941  19.048  0.00  0.00    +0.000 F 
ENDBRANCH  11  30
TORSDOF 4
ENDMDL
MODEL 7
REMARK VINA RESULT:      -7.2      3.003      5.462
REMARK  Name = 
REMARK  6 active torsions:
REMARK  status: ('A' for Active; 'I' for Inactive)
REMARK    1  A    between atoms: C_1  and  C_2
REMARK    2  A    between atoms: C_5  and  C_7
REMARK    3  A    between atoms: C_17  and  C_18
REMARK    4  A    between atoms: C_27  and  C_28
REMARK    5  A    between atoms: C_29  and  O_30
REMARK    6  A    between atoms: C_29  and  C_31
REMARK                            x       y       z     vdW  Elec       q    Type
REMARK                         _______ _______ _______ _____ _____    ______ ____
ROOT
ATOM      1  C   UNL     1       0.138  12.373  19.212  0.00  0.00    +0.000 C 
ATOM      2  C   UNL     1      -0.087  10.984  18.603  0.00  0.00    +0.000 C 
ATOM      3  N   UNL     1       0.258  10.012  19.657  0.00  0.00    +0.000 N 
ATOM      4  C   UNL     1       1.118   8.962  19.325  0.00  0.00    +0.000 A 
ATOM      5  C   UNL     1       1.512   8.034  20.296  0.00  0.00    +0.000 A 
ATOM      6  C   UNL     1       2.406   7.012  19.974  0.00  0.00    +0.000 A 
ATOM      7  C   UNL     1       2.882   6.919  18.680  0.00  0.00    +0.000 A 
ATOM      8  C   UNL     1       2.420   7.842  17.762  0.00  0.00    +0.000 A 
ATOM      9  N   UNL     1       1.553   8.836  18.054  0.00  0.00    +0.000 NA
ATOM     10  C   UNL     1       0.569  10.715  20.913  0.00  0.00    +0.000 C 
ATOM     11  C   UNL     1       0.011  12.136  20.728  0.00  0.00    +0.000 C 
ENDROOT
BRANCH   1  16
ATOM     12  C   UNL     1       0.930  16.894  21.682  0.00  0.00    +0.000 C 
ATOM     13  C   UNL     1       1.815  15.826  21.019  0.00  0.00    +0.000 C 
ATOM     14  C   UNL     1       1.042  15.194  19.841  0.00  0.00    +0.000 C 
ATOM     15  N   UNL     1       1.857  14.220  19.116  0.00  0.00    +0.000 N 
ATOM     16  C   UNL     1       1.518  12.898  18.815  0.00  0.00    +0.000 C 
ATOM     17  O   UNL     1       2.311  12.157  18.228  0.00  0.00    +0.000 OA
ATOM     18  C   UNL     1       3.130  14.738  18.610  0.00  0.00    +0.000 C 
ATOM     19  C   UNL     1       3.982  15.314  19.746  0.00  0.00    +0.000 C 
ATOM     20  C   UNL     1       5.313  15.837  19.184  0.00  0.00    +0.000 C 
ATOM     21  C   UNL     1       3.197  16.390  20.561  0.00  0.00    +0.000 C 
BRANCH  21  22
ATOM     22  C   UNL     1       4.059  16.835  21.760  0.00  0.00    +0.000 A 
ATOM     23  C   UNL     1       4.411  15.936  22.784  0.00  0.00    +0.000 A 
ATOM     24  C   UNL     1       5.044  16.381  23.949  0.00  0.00    +0.000 A 
ATOM     25  C   UNL     1       5.346  17.729  24.109  0.00  0.00    +0.000 A 
ATOM     26  C   UNL     1       5.049  18.630  23.090  0.00  0.00    +0.000 A 
ATOM     27  C   UNL     1       4.428  18.185  21.921  0.00  0.00    +0.000 A 
ENDBRANCH  21  22
BRANCH  21  28
ATOM     28  O   UNL     1       2.971  17.540  19.728  0.00  0.00    +0.000 OA
ATOM     29  H   UNL     1       3.579  18.253  19.985  0.00  0.00    +0.000 HD
ENDBRANCH  21  28
ENDBRANCH   1  16
BRANCH  11  30
ATOM     30  C   UNL     1      -1.426  12.336  21.197  0.00  0.00    +0.000 A 
ATOM     31  C   UNL     1      -2.438  12.848  20.369  0.00  0.00    +0.000 A 
ATOM     32  C   UNL     1      -3.726  13.054  20.867  0.00  0.00    +0.000 A 
ATOM     33  C   UNL     1      -4.010  12.751  22.194  0.00  0.00    +0.000 A 
ATOM     34  F   UNL     1      -5.244  12.964  22.667  0.00  0.00    +0.000 F 
ATOM     35  C   UNL     1      -3.034  12.241  23.034  0.00  0.00    +0.000 A 
ATOM     36  C   UNL     1      -1.753  12.042  22.532  0.00  0.00    +0.000 A 
ATOM     37  F   UNL     1      -0.808  11.570  23.358  0.00  0.00    +0.000 F 
ENDBRANCH  11  30
TORSDOF 4
ENDMDL
MODEL 8
REMARK VINA RESULT:      -7.1      3.135      5.559
REMARK  Name = 
REMARK  6 active torsions:
REMARK  status: ('A' for Active; 'I' for Inactive)
REMARK    1  A    between atoms: C_1  and  C_2
REMARK    2  A    between atoms: C_5  and  C_7
REMARK    3  A    between atoms: C_17  and  C_18
REMARK    4  A    between atoms: C_27  and  C_28
REMARK    5  A    between atoms: C_29  and  O_30
REMARK    6  A    between atoms: C_29  and  C_31
REMARK                            x       y       z     vdW  Elec       q    Type
REMARK                         _______ _______ _______ _____ _____    ______ ____
ROOT
ATOM      1  C   UNL     1       0.386  12.536  19.587  0.00  0.00    +0.000 C 
ATOM      2  C   UNL     1       0.099  11.242  18.815  0.00  0.00    +0.000 C 
ATOM      3  N   UNL     1       0.407  10.135  19.739  0.00  0.00    +0.000 N 
ATOM      4  C   UNL     1       1.219   9.098  19.273  0.00  0.00    +0.000 A 
ATOM      5  C   UNL     1       1.577   8.042  20.120  0.00  0.00    +0.000 A 
ATOM      6  C   UNL     1       2.424   7.031  19.667  0.00  0.00    +0.000 A 
ATOM      7  C   UNL     1       2.891   7.077  18.366  0.00  0.00    +0.000 A 
ATOM      8  C   UNL     1       2.465   8.124  17.572  0.00  0.00    +0.000 A 
ATOM      9  N   UNL     1       1.643   9.111  17.992  0.00  0.00    +0.000 NA
ATOM     10  C   UNL     1       0.753  10.665  21.068  0.00  0.00    +0.000 C 
ATOM     11  C   UNL     1       0.255  12.120  21.064  0.00  0.00    +0.000 C 
ENDROOT
BRANCH   1  16
ATOM     12  C   UNL     1       1.520  16.463  22.820  0.00  0.00    +0.000 C 
ATOM     13  C   UNL     1       2.320  15.490  21.940  0.00  0.00    +0.000 C 
ATOM     14  C   UNL     1       1.480  15.134  20.694  0.00  0.00    +0.000 C 
ATOM     15  N   UNL     1       2.214  14.267  19.772  0.00  0.00    +0.000 N 
ATOM     16  C   UNL     1       1.785  13.046  19.244  0.00  0.00    +0.000 C 
ATOM     17  O   UNL     1       2.516  12.384  18.502  0.00  0.00    +0.000 OA
ATOM     18  C   UNL     1       3.503  14.798  19.325  0.00  0.00    +0.000 C 
ATOM     19  C   UNL     1       4.418  15.103  20.516  0.00  0.00    +0.000 C 
ATOM     20  C   UNL     1       5.764  15.645  20.013  0.00  0.00    +0.000 C 
ATOM     21  C   UNL     1       3.722  16.051  21.544  0.00  0.00    +0.000 C 
BRANCH  21  22
ATOM     22  C   UNL     1       4.641  16.214  22.772  0.00  0.00    +0.000 A 
ATOM     23  C   UNL     1       5.233  17.451  23.086  0.00  0.00    +0.000 A 
ATOM     24  C   UNL     1       6.196  17.556  24.095  0.00  0.00    +0.000 A 
ATOM     25  C   UNL     1       6.578  16.428  24.815  0.00  0.00    +0.000 A 
ATOM     26  C   UNL     1       5.973  15.203  24.554  0.00  0.00    +0.000 A 
ATOM     27  C   UNL     1       5.002  15.100  23.555  0.00  0.00    +0.000 A 
ENDBRANCH  21  22
BRANCH  21  28
ATOM     28  O   UNL     1       3.547  17.346  20.946  0.00  0.00    +0.000 OA
ATOM     29  H   UNL     1       3.073  17.254  20.103  0.00  0.00    +0.000 HD
ENDBRANCH  21  28
ENDBRANCH   1  16
BRANCH  11  30
ATOM     30  C   UNL     1      -1.170  12.321  21.568  0.00  0.00    +0.000 A 
ATOM     31  C   UNL     1      -2.124  13.088  20.880  0.00  0.00    +0.000 A 
ATOM     32  C   UNL     1      -3.401  13.277  21.412  0.00  0.00    +0.000 A 
ATOM     33  C   UNL     1      -3.731  12.703  22.635  0.00  0.00    +0.000 A 
ATOM     34  F   UNL     1      -4.953  12.900  23.145  0.00  0.00    +0.000 F 
ATOM     35  C   UNL     1      -2.812  11.939  23.335  0.00  0.00    +0.000 A 
ATOM     36  C   UNL     1      -1.541  11.758  22.800  0.00  0.00    +0.000 A 
ATOM     37  F   UNL     1      -0.651  11.037  23.495  0.00  0.00    +0.000 F 
ENDBRANCH  11  30
TORSDOF 4
ENDMDL
MODEL 9
REMARK VINA RESULT:      -7.0      1.900      2.516
REMARK  Name = 
REMARK  6 active torsions:
REMARK  status: ('A' for Active; 'I' for Inactive)
REMARK    1  A    between atoms: C_1  and  C_2
REMARK    2  A    between atoms: C_5  and  C_7
REMARK    3  A    between atoms: C_17  and  C_18
REMARK    4  A    between atoms: C_27  and  C_28
REMARK    5  A    between atoms: C_29  and  O_30
REMARK    6  A    between atoms: C_29  and  C_31
REMARK                            x       y       z     vdW  Elec       q    Type
REMARK                         _______ _______ _______ _____ _____    ______ ____
ROOT
ATOM      1  C   UNL     1      -0.792  12.613  19.735  0.00  0.00    +0.000 C 
ATOM      2  C   UNL     1      -2.163  12.085  19.295  0.00  0.00    +0.000 C 
ATOM      3  N   UNL     1      -1.901  10.850  18.531  0.00  0.00    +0.000 N 
ATOM      4  C   UNL     1      -2.517  10.708  17.284  0.00  0.00    +0.000 A 
ATOM      5  C   UNL     1      -2.273   9.576  16.498  0.00  0.00    +0.000 A 
ATOM      6  C   UNL     1      -2.853   9.456  15.235  0.00  0.00    +0.000 A 
ATOM      7  C   UNL     1      -3.686  10.461  14.780  0.00  0.00    +0.000 A 
ATOM      8  C   UNL     1      -3.918  11.529  15.624  0.00  0.00    +0.000 A 
ATOM      9  N   UNL     1      -3.367  11.662  16.851  0.00  0.00    +0.000 NA
ATOM     10  C   UNL     1      -0.466  10.523  18.571  0.00  0.00    +0.000 C 
ATOM     11  C   UNL     1       0.106  11.362  19.725  0.00  0.00    +0.000 C 
ENDROOT
BRANCH   1  16
ATOM     12  C   UNL     1       3.483  14.829  21.731  0.00  0.00    +0.000 C 
ATOM     13  C   UNL     1       2.852  14.702  20.335  0.00  0.00    +0.000 C 
ATOM     14  C   UNL     1       1.315  14.656  20.480  0.00  0.00    +0.000 C 
ATOM     15  N   UNL     1       0.647  14.613  19.181  0.00  0.00    +0.000 N 
ATOM     16  C   UNL     1      -0.311  13.687  18.758  0.00  0.00    +0.000 C 
ATOM     17  O   UNL     1      -0.776  13.730  17.616  0.00  0.00    +0.000 OA
ATOM     18  C   UNL     1       0.994  15.708  18.274  0.00  0.00    +0.000 C 
ATOM     19  C   UNL     1       2.505  15.763  18.025  0.00  0.00    +0.000 C 
ATOM     20  C   UNL     1       2.834  16.914  17.063  0.00  0.00    +0.000 C 
ATOM     21  C   UNL     1       3.302  15.841  19.367  0.00  0.00    +0.000 C 
BRANCH  21  22
ATOM     22  C   UNL     1       4.811  15.763  19.055  0.00  0.00    +0.000 A 
ATOM     23  C   UNL     1       5.690  16.799  19.421  0.00  0.00    +0.000 A 
ATOM     24  C   UNL     1       7.019  16.806  18.987  0.00  0.00    +0.000 A 
ATOM     25  C   UNL     1       7.498  15.772  18.189  0.00  0.00    +0.000 A 
ATOM     26  C   UNL     1       6.661  14.713  17.852  0.00  0.00    +0.000 A 
ATOM     27  C   UNL     1       5.336  14.700  18.295  0.00  0.00    +0.000 A 
ENDBRANCH  21  22
BRANCH  21  28
ATOM     28  O   UNL     1       3.044  17.108  19.995  0.00  0.00    +0.000 OA
ATOM     29  H   UNL     1       2.103  17.169  20.228  0.00  0.00    +0.000 HD
ENDBRANCH  21  28
ENDBRANCH   1  16
BRANCH  11  30
ATOM     30  C   UNL     1       0.108  10.677  21.088  0.00  0.00    +0.000 A 
ATOM     31  C   UNL     1      -0.712  11.086  22.152  0.00  0.00    +0.000 A 
ATOM     32  C   UNL     1      -0.633  10.451  23.393  0.00  0.00    +0.000 A 
ATOM     33  C   UNL     1       0.265   9.406  23.579  0.00  0.00    +0.000 A 
ATOM     34  F   UNL     1       0.344   8.812  24.776  0.00  0.00    +0.000 F 
ATOM     35  C   UNL     1       1.085   8.979  22.547  0.00  0.00    +0.000 A 
ATOM     36  C   UNL     1       1.003   9.618  21.315  0.00  0.00    +0.000 A 
ATOM     37  F   UNL     1       1.816   9.214  20.329  0.00  0.00    +0.000 F 
ENDBRANCH  11  30
TORSDOF 4
ENDMDL
