MODEL 1
REMARK VINA RESULT:      -7.4      0.000      0.000
REMARK  Name = 
REMARK  8 active torsions:
REMARK  status: ('A' for Active; 'I' for Inactive)
REMARK    1  A    between atoms: C_1  and  C_2
REMARK    2  A    between atoms: C_2  and  C_3
REMARK    3  A    between atoms: C_3  and  C_4
REMARK    4  A    between atoms: C_4  and  C_5
REMARK    5  A    between atoms: C_5  and  S_6
REMARK    6  A    between atoms: S_6  and  C_7
REMARK    7  A    between atoms: C_9  and  C_10
REMARK    8  A    between atoms: C_18  and  C_19
REMARK                            x       y       z     vdW  Elec       q    Type
REMARK                         _______ _______ _______ _____ _____    ______ ____
ROOT
ATOM      1  C   UNL     1       5.731   4.681  18.666  0.00  0.00    +0.000 A 
ATOM      2  N   UNL     1       4.966   5.705  18.833  0.00  0.00    +0.000 NA
ATOM      3  C   UNL     1       3.667   5.463  19.246  0.00  0.00    +0.000 A 
ATOM      4  C   UNL     1       3.158   4.237  19.498  0.00  0.00    +0.000 A 
ATOM      5  C   UNL     1       4.071   3.091  19.298  0.00  0.00    +0.000 A 
ATOM      6  O   UNL     1       3.729   1.928  19.483  0.00  0.00    +0.000 OA
ATOM      7  N   UNL     1       5.332   3.400  18.876  0.00  0.00    +0.000 N 
ATOM      8  H   UNL     1       5.969   2.637  18.699  0.00  0.00    +0.000 HD
ENDROOT
BRANCH   3   9
ATOM      9  C   UNL     1       2.811   6.670  19.388  0.00  0.00    +0.000 A 
ATOM     10  C   UNL     1       2.127   6.884  20.599  0.00  0.00    +0.000 A 
ATOM     11  C   UNL     1       1.324   8.016  20.775  0.00  0.00    +0.000 A 
ATOM     12  C   UNL     1       1.203   8.948  19.747  0.00  0.00    +0.000 A 
ATOM     13 CL   UNL     1       0.228  10.346  19.974  0.00  0.00    +0.000 Cl
ATOM     14  C   UNL     1       1.866   8.752  18.537  0.00  0.00    +0.000 A 
ATOM     15  C   UNL     1       2.660   7.615  18.356  0.00  0.00    +0.000 A 
ATOM     16 CL   UNL     1       3.441   7.415  16.825  0.00  0.00    +0.000 Cl
ENDBRANCH   3   9
BRANCH   4  17
ATOM     17  C   UNL     1       1.828   3.990  19.929  0.00  0.00    +0.000 C 
ATOM     18  N   UNL     1       0.722   3.786  20.237  0.00  0.00    +0.000 NA
ENDBRANCH   4  17
BRANCH   1  19
ATOM     19  S   UNL     1       7.353   4.789  18.052  0.00  0.00    +0.000 S 
BRANCH  19  20
ATOM     20  C   UNL     1       7.093   5.025  16.265  0.00  0.00    +0.000 C 
BRANCH  20  21
ATOM     21  C   UNL     1       6.096   3.977  15.746  0.00  0.00    +0.000 C 
BRANCH  21  22
ATOM     22  C   UNL     1       5.513   4.375  14.385  0.00  0.00    +0.000 C 
BRANCH  22  24
ATOM     23  C   UNL     1       5.560   3.198  12.165  0.00  0.00    +0.000 C 
ATOM     24  C   UNL     1       6.393   3.889  13.232  0.00  0.00    +0.000 C 
ENDBRANCH  22  24
ENDBRANCH  21  22
ENDBRANCH  20  21
ENDBRANCH  19  20
ENDBRANCH   1  19
TORSDOF 7
ENDMDL
MODEL 2
REMARK VINA RESULT:      -7.3      2.237      3.296
REMARK  Name = 
REMARK  8 active torsions:
REMARK  status: ('A' for Active; 'I' for Inactive)
REMARK    1  A    between atoms: C_1  and  C_2
REMARK    2  A    between atoms: C_2  and  C_3
REMARK    3  A    between atoms: C_3  and  C_4
REMARK    4  A    between atoms: C_4  and  C_5
REMARK    5  A    between atoms: C_5  and  S_6
REMARK    6  A    between atoms: S_6  and  C_7
REMARK    7  A    between atoms: C_9  and  C_10
REMARK    8  A    between atoms: C_18  and  C_19
REMARK                            x       y       z     vdW  Elec       q    Type
REMARK                         _______ _______ _______ _____ _____    ______ ____
ROOT
ATOM      1  C   UNL     1       5.824   4.724  18.753  0.00  0.00    +0.000 A 
ATOM      2  N   UNL     1       5.021   5.709  18.964  0.00  0.00    +0.000 NA
ATOM      3  C   UNL     1       3.713   5.399  19.298  0.00  0.00    +0.000 A 
ATOM      4  C   UNL     1       3.233   4.143  19.430  0.00  0.00    +0.000 A 
ATOM      5  C   UNL     1       4.189   3.042  19.182  0.00  0.00    +0.000 A 
ATOM      6  O   UNL     1       3.876   1.859  19.259  0.00  0.00    +0.000 OA
ATOM      7  N   UNL     1       5.456   3.420  18.843  0.00  0.00    +0.000 N 
ATOM      8  H   UNL     1       6.123   2.691  18.635  0.00  0.00    +0.000 HD
ENDROOT
BRANCH   3   9
ATOM      9  C   UNL     1       2.815   6.567  19.495  0.00  0.00    +0.000 A 
ATOM     10  C   UNL     1       2.129   6.702  20.717  0.00  0.00    +0.000 A 
ATOM     11  C   UNL     1       1.286   7.796  20.944  0.00  0.00    +0.000 A 
ATOM     12  C   UNL     1       1.126   8.766  19.959  0.00  0.00    +0.000 A 
ATOM     13 CL   UNL     1       0.102  10.117  20.249  0.00  0.00    +0.000 Cl
ATOM     14  C   UNL     1       1.789   8.647  18.739  0.00  0.00    +0.000 A 
ATOM     15  C   UNL     1       2.624   7.549  18.506  0.00  0.00    +0.000 A 
ATOM     16 CL   UNL     1       3.404   7.444  16.964  0.00  0.00    +0.000 Cl
ENDBRANCH   3   9
BRANCH   4  17
ATOM     17  C   UNL     1       1.894   3.825  19.779  0.00  0.00    +0.000 C 
ATOM     18  N   UNL     1       0.783   3.561  20.019  0.00  0.00    +0.000 NA
ENDBRANCH   4  17
BRANCH   1  19
ATOM     19  S   UNL     1       7.466   4.925  18.223  0.00  0.00    +0.000 S 
BRANCH  19  20
ATOM     20  C   UNL     1       7.822   6.658  18.660  0.00  0.00    +0.000 C 
BRANCH  20  21
ATOM     21  C   UNL     1       7.559   7.560  17.444  0.00  0.00    +0.000 C 
BRANCH  21  22
ATOM     22  C   UNL     1       7.982   9.008  17.712  0.00  0.00    +0.000 C 
BRANCH  22  24
ATOM     23  C   UNL     1       9.249  10.553  19.237  0.00  0.00    +0.000 C 
ATOM     24  C   UNL     1       8.949   9.103  18.894  0.00  0.00    +0.000 C 
ENDBRANCH  22  24
ENDBRANCH  21  22
ENDBRANCH  20  21
ENDBRANCH  19  20
ENDBRANCH   1  19
TORSDOF 7
ENDMDL
MODEL 3
REMARK VINA RESULT:      -7.2      1.522      1.863
REMARK  Name = 
REMARK  8 active torsions:
REMARK  status: ('A' for Active; 'I' for Inactive)
REMARK    1  A    between atoms: C_1  and  C_2
REMARK    2  A    between atoms: C_2  and  C_3
REMARK    3  A    between atoms: C_3  and  C_4
REMARK    4  A    between atoms: C_4  and  C_5
REMARK    5  A    between atoms: C_5  and  S_6
REMARK    6  A    between atoms: S_6  and  C_7
REMARK    7  A    between atoms: C_9  and  C_10
REMARK    8  A    between atoms: C_18  and  C_19
REMARK                            x       y       z     vdW  Elec       q    Type
REMARK                         _______ _______ _______ _____ _____    ______ ____
ROOT
ATOM      1  C   UNL     1       5.480   4.425  17.493  0.00  0.00    +0.000 A 
ATOM      2  N   UNL     1       4.809   5.409  17.983  0.00  0.00    +0.000 NA
ATOM      3  C   UNL     1       3.501   5.156  18.361  0.00  0.00    +0.000 A 
ATOM      4  C   UNL     1       2.893   3.953  18.263  0.00  0.00    +0.000 A 
ATOM      5  C   UNL     1       3.701   2.851  17.698  0.00  0.00    +0.000 A 
ATOM      6  O   UNL     1       3.264   1.715  17.549  0.00  0.00    +0.000 OA
ATOM      7  N   UNL     1       4.976   3.174  17.334  0.00  0.00    +0.000 N 
ATOM      8  H   UNL     1       5.542   2.450  16.915  0.00  0.00    +0.000 HD
ENDROOT
BRANCH   3   9
ATOM      9  C   UNL     1       2.754   6.330  18.886  0.00  0.00    +0.000 A 
ATOM     10  C   UNL     1       2.541   7.436  18.042  0.00  0.00    +0.000 A 
ATOM     11  C   UNL     1       1.829   8.552  18.496  0.00  0.00    +0.000 A 
ATOM     12  C   UNL     1       1.319   8.571  19.791  0.00  0.00    +0.000 A 
ATOM     13 CL   UNL     1       0.433   9.940  20.339  0.00  0.00    +0.000 Cl
ATOM     14  C   UNL     1       1.526   7.490  20.646  0.00  0.00    +0.000 A 
ATOM     15  C   UNL     1       2.246   6.378  20.197  0.00  0.00    +0.000 A 
ATOM     16 CL   UNL     1       2.489   5.075  21.310  0.00  0.00    +0.000 Cl
ENDBRANCH   3   9
BRANCH   4  17
ATOM     17  C   UNL     1       1.554   3.693  18.657  0.00  0.00    +0.000 C 
ATOM     18  N   UNL     1       0.439   3.508  18.946  0.00  0.00    +0.000 NA
ENDBRANCH   4  17
BRANCH   1  19
ATOM     19  S   UNL     1       7.094   4.584  16.871  0.00  0.00    +0.000 S 
BRANCH  19  20
ATOM     20  C   UNL     1       6.831   5.413  15.270  0.00  0.00    +0.000 C 
BRANCH  20  21
ATOM     21  C   UNL     1       6.992   4.395  14.130  0.00  0.00    +0.000 C 
BRANCH  21  22
ATOM     22  C   UNL     1       5.636   3.904  13.612  0.00  0.00    +0.000 C 
BRANCH  22  24
ATOM     23  C   UNL     1       4.414   3.232  11.522  0.00  0.00    +0.000 C 
ATOM     24  C   UNL     1       5.759   3.265  12.228  0.00  0.00    +0.000 C 
ENDBRANCH  22  24
ENDBRANCH  21  22
ENDBRANCH  20  21
ENDBRANCH  19  20
ENDBRANCH   1  19
TORSDOF 7
ENDMDL
MODEL 4
REMARK VINA RESULT:      -7.2      2.655      3.786
REMARK  Name = 
REMARK  8 active torsions:
REMARK  status: ('A' for Active; 'I' for Inactive)
REMARK    1  A    between atoms: C_1  and  C_2
REMARK    2  A    between atoms: C_2  and  C_3
REMARK    3  A    between atoms: C_3  and  C_4
REMARK    4  A    between atoms: C_4  and  C_5
REMARK    5  A    between atoms: C_5  and  S_6
REMARK    6  A    between atoms: S_6  and  C_7
REMARK    7  A    between atoms: C_9  and  C_10
REMARK    8  A    between atoms: C_18  and  C_19
REMARK                            x       y       z     vdW  Elec       q    Type
REMARK                         _______ _______ _______ _____ _____    ______ ____
ROOT
ATOM      1  C   UNL     1       6.010   4.816  18.097  0.00  0.00    +0.000 A 
ATOM      2  N   UNL     1       5.217   5.772  18.439  0.00  0.00    +0.000 NA
ATOM      3  C   UNL     1       3.857   5.541  18.314  0.00  0.00    +0.000 A 
ATOM      4  C   UNL     1       3.313   4.385  17.874  0.00  0.00    +0.000 A 
ATOM      5  C   UNL     1       4.260   3.313  17.495  0.00  0.00    +0.000 A 
ATOM      6  O   UNL     1       3.894   2.222  17.073  0.00  0.00    +0.000 OA
ATOM      7  N   UNL     1       5.584   3.614  17.630  0.00  0.00    +0.000 N 
ATOM      8  H   UNL     1       6.256   2.915  17.349  0.00  0.00    +0.000 HD
ENDROOT
BRANCH   3   9
ATOM      9  C   UNL     1       2.982   6.684  18.684  0.00  0.00    +0.000 A 
ATOM     10  C   UNL     1       2.853   7.763  17.789  0.00  0.00    +0.000 A 
ATOM     11  C   UNL     1       2.027   8.850  18.096  0.00  0.00    +0.000 A 
ATOM     12  C   UNL     1       1.319   8.867  19.295  0.00  0.00    +0.000 A 
ATOM     13 CL   UNL     1       0.293  10.198  19.661  0.00  0.00    +0.000 Cl
ATOM     14  C   UNL     1       1.439   7.813  20.199  0.00  0.00    +0.000 A 
ATOM     15  C   UNL     1       2.272   6.731  19.898  0.00  0.00    +0.000 A 
ATOM     16 CL   UNL     1       2.398   5.462  21.068  0.00  0.00    +0.000 Cl
ENDBRANCH   3   9
BRANCH   4  17
ATOM     17  C   UNL     1       1.919   4.146  17.752  0.00  0.00    +0.000 C 
ATOM     18  N   UNL     1       0.767   3.971  17.693  0.00  0.00    +0.000 NA
ENDBRANCH   4  17
BRANCH   1  19
ATOM     19  S   UNL     1       7.741   4.967  18.089  0.00  0.00    +0.000 S 
BRANCH  19  20
ATOM     20  C   UNL     1       8.000   6.682  18.646  0.00  0.00    +0.000 C 
BRANCH  20  21
ATOM     21  C   UNL     1       7.517   7.656  17.560  0.00  0.00    +0.000 C 
BRANCH  21  22
ATOM     22  C   UNL     1       8.239   9.005  17.647  0.00  0.00    +0.000 C 
BRANCH  22  24
ATOM     23  C   UNL     1       9.366  10.628  19.200  0.00  0.00    +0.000 C 
ATOM     24  C   UNL     1       8.934   9.185  18.999  0.00  0.00    +0.000 C 
ENDBRANCH  22  24
ENDBRANCH  21  22
ENDBRANCH  20  21
ENDBRANCH  19  20
ENDBRANCH   1  19
TORSDOF 7
ENDMDL
MODEL 5
REMARK VINA RESULT:      -7.1      3.067      7.390
REMARK  Name = 
REMARK  8 active torsions:
REMARK  status: ('A' for Active; 'I' for Inactive)
REMARK    1  A    between atoms: C_1  and  C_2
REMARK    2  A    between atoms: C_2  and  C_3
REMARK    3  A    between atoms: C_3  and  C_4
REMARK    4  A    between atoms: C_4  and  C_5
REMARK    5  A    between atoms: C_5  and  S_6
REMARK    6  A    between atoms: S_6  and  C_7
REMARK    7  A    between atoms: C_9  and  C_10
REMARK    8  A    between atoms: C_18  and  C_19
REMARK                            x       y       z     vdW  Elec       q    Type
REMARK                         _______ _______ _______ _____ _____    ______ ____
ROOT
ATOM      1  C   UNL     1       2.114   7.059  19.854  0.00  0.00    +0.000 A 
ATOM      2  N   UNL     1       2.906   6.824  18.864  0.00  0.00    +0.000 NA
ATOM      3  C   UNL     1       3.558   5.602  18.853  0.00  0.00    +0.000 A 
ATOM      4  C   UNL     1       3.408   4.644  19.794  0.00  0.00    +0.000 A 
ATOM      5  C   UNL     1       2.488   4.954  20.909  0.00  0.00    +0.000 A 
ATOM      6  O   UNL     1       2.273   4.174  21.830  0.00  0.00    +0.000 OA
ATOM      7  N   UNL     1       1.891   6.181  20.865  0.00  0.00    +0.000 N 
ATOM      8  H   UNL     1       1.282   6.435  21.630  0.00  0.00    +0.000 HD
ENDROOT
BRANCH   3   9
ATOM      9  C   UNL     1       4.489   5.391  17.713  0.00  0.00    +0.000 A 
ATOM     10  C   UNL     1       5.659   6.168  17.635  0.00  0.00    +0.000 A 
ATOM     11  C   UNL     1       6.567   5.988  16.585  0.00  0.00    +0.000 A 
ATOM     12  C   UNL     1       6.318   5.026  15.610  0.00  0.00    +0.000 A 
ATOM     13 CL   UNL     1       7.444   4.797  14.330  0.00  0.00    +0.000 Cl
ATOM     14  C   UNL     1       5.161   4.251  15.664  0.00  0.00    +0.000 A 
ATOM     15  C   UNL     1       4.247   4.438  16.707  0.00  0.00    +0.000 A 
ATOM     16 CL   UNL     1       2.819   3.461  16.709  0.00  0.00    +0.000 Cl
ENDBRANCH   3   9
BRANCH   4  17
ATOM     17  C   UNL     1       4.071   3.389  19.778  0.00  0.00    +0.000 C 
ATOM     18  N   UNL     1       4.574   2.337  19.762  0.00  0.00    +0.000 NA
ENDBRANCH   4  17
BRANCH   1  19
ATOM     19  S   UNL     1       1.298   8.575  20.086  0.00  0.00    +0.000 S 
BRANCH  19  20
ATOM     20  C   UNL     1       1.109   8.659  21.895  0.00  0.00    +0.000 C 
BRANCH  20  21
ATOM     21  C   UNL     1      -0.372   8.861  22.251  0.00  0.00    +0.000 C 
BRANCH  21  22
ATOM     22  C   UNL     1      -0.559   9.963  23.299  0.00  0.00    +0.000 C 
BRANCH  22  24
ATOM     23  C   UNL     1      -2.176  11.869  23.035  0.00  0.00    +0.000 C 
ATOM     24  C   UNL     1      -0.812  11.324  22.646  0.00  0.00    +0.000 C 
ENDBRANCH  22  24
ENDBRANCH  21  22
ENDBRANCH  20  21
ENDBRANCH  19  20
ENDBRANCH   1  19
TORSDOF 7
ENDMDL
MODEL 6
REMARK VINA RESULT:      -7.1      2.932      6.596
REMARK  Name = 
REMARK  8 active torsions:
REMARK  status: ('A' for Active; 'I' for Inactive)
REMARK    1  A    between atoms: C_1  and  C_2
REMARK    2  A    between atoms: C_2  and  C_3
REMARK    3  A    between atoms: C_3  and  C_4
REMARK    4  A    between atoms: C_4  and  C_5
REMARK    5  A    between atoms: C_5  and  S_6
REMARK    6  A    between atoms: S_6  and  C_7
REMARK    7  A    between atoms: C_9  and  C_10
REMARK    8  A    between atoms: C_18  and  C_19
REMARK                            x       y       z     vdW  Elec       q    Type
REMARK                         _______ _______ _______ _____ _____    ______ ____
ROOT
ATOM      1  C   UNL     1       2.268   6.537  20.131  0.00  0.00    +0.000 A 
ATOM      2  N   UNL     1       3.068   6.340  19.140  0.00  0.00    +0.000 NA
ATOM      3  C   UNL     1       3.688   5.105  19.064  0.00  0.00    +0.000 A 
ATOM      4  C   UNL     1       3.501   4.097  19.944  0.00  0.00    +0.000 A 
ATOM      5  C   UNL     1       2.572   4.364  21.064  0.00  0.00    +0.000 A 
ATOM      6  O   UNL     1       2.323   3.536  21.934  0.00  0.00    +0.000 OA
ATOM      7  N   UNL     1       2.008   5.607  21.086  0.00  0.00    +0.000 N 
ATOM      8  H   UNL     1       1.394   5.831  21.856  0.00  0.00    +0.000 HD
ENDROOT
BRANCH   3   9
ATOM      9  C   UNL     1       4.630   4.937  17.927  0.00  0.00    +0.000 A 
ATOM     10  C   UNL     1       4.121   4.577  16.665  0.00  0.00    +0.000 A 
ATOM     11  C   UNL     1       4.975   4.425  15.567  0.00  0.00    +0.000 A 
ATOM     12  C   UNL     1       6.343   4.636  15.717  0.00  0.00    +0.000 A 
ATOM     13 CL   UNL     1       7.387   4.463  14.361  0.00  0.00    +0.000 Cl
ATOM     14  C   UNL     1       6.870   4.985  16.959  0.00  0.00    +0.000 A 
ATOM     15  C   UNL     1       6.018   5.127  18.060  0.00  0.00    +0.000 A 
ATOM     16 CL   UNL     1       6.733   5.540  19.581  0.00  0.00    +0.000 Cl
ENDBRANCH   3   9
BRANCH   4  17
ATOM     17  C   UNL     1       4.131   2.828  19.862  0.00  0.00    +0.000 C 
ATOM     18  N   UNL     1       4.692   1.806  19.800  0.00  0.00    +0.000 NA
ENDBRANCH   4  17
BRANCH   1  19
ATOM     19  S   UNL     1       1.488   8.058  20.443  0.00  0.00    +0.000 S 
BRANCH  19  20
ATOM     20  C   UNL     1       1.612   8.911  18.838  0.00  0.00    +0.000 C 
BRANCH  20  21
ATOM     21  C   UNL     1       0.882  10.262  18.915  0.00  0.00    +0.000 C 
BRANCH  21  22
ATOM     22  C   UNL     1      -0.520  10.115  19.516  0.00  0.00    +0.000 C 
BRANCH  22  24
ATOM     23  C   UNL     1      -1.597  11.792  17.985  0.00  0.00    +0.000 C 
ATOM     24  C   UNL     1      -1.609  10.351  18.468  0.00  0.00    +0.000 C 
ENDBRANCH  22  24
ENDBRANCH  21  22
ENDBRANCH  20  21
ENDBRANCH  19  20
ENDBRANCH   1  19
TORSDOF 7
ENDMDL
MODEL 7
REMARK VINA RESULT:      -7.1      2.978      6.443
REMARK  Name = 
REMARK  8 active torsions:
REMARK  status: ('A' for Active; 'I' for Inactive)
REMARK    1  A    between atoms: C_1  and  C_2
REMARK    2  A    between atoms: C_2  and  C_3
REMARK    3  A    between atoms: C_3  and  C_4
REMARK    4  A    between atoms: C_4  and  C_5
REMARK    5  A    between atoms: C_5  and  S_6
REMARK    6  A    between atoms: S_6  and  C_7
REMARK    7  A    between atoms: C_9  and  C_10
REMARK    8  A    between atoms: C_18  and  C_19
REMARK                            x       y       z     vdW  Elec       q    Type
REMARK                         _______ _______ _______ _____ _____    ______ ____
ROOT
ATOM      1  C   UNL     1       2.050   6.644  20.383  0.00  0.00    +0.000 A 
ATOM      2  N   UNL     1       2.827   6.509  19.364  0.00  0.00    +0.000 NA
ATOM      3  C   UNL     1       3.456   5.285  19.208  0.00  0.00    +0.000 A 
ATOM      4  C   UNL     1       3.298   4.230  20.037  0.00  0.00    +0.000 A 
ATOM      5  C   UNL     1       2.395   4.428  21.191  0.00  0.00    +0.000 A 
ATOM      6  O   UNL     1       2.175   3.553  22.021  0.00  0.00    +0.000 OA
ATOM      7  N   UNL     1       1.821   5.662  21.292  0.00  0.00    +0.000 N 
ATOM      8  H   UNL     1       1.224   5.839  22.088  0.00  0.00    +0.000 HD
ENDROOT
BRANCH   3   9
ATOM      9  C   UNL     1       4.372   5.187  18.041  0.00  0.00    +0.000 A 
ATOM     10  C   UNL     1       5.580   5.909  18.058  0.00  0.00    +0.000 A 
ATOM     11  C   UNL     1       6.473   5.830  16.984  0.00  0.00    +0.000 A 
ATOM     12  C   UNL     1       6.173   5.025  15.889  0.00  0.00    +0.000 A 
ATOM     13 CL   UNL     1       7.282   4.920  14.578  0.00  0.00    +0.000 Cl
ATOM     14  C   UNL     1       4.979   4.308  15.847  0.00  0.00    +0.000 A 
ATOM     15  C   UNL     1       4.080   4.395  16.915  0.00  0.00    +0.000 A 
ATOM     16 CL   UNL     1       2.604   3.499  16.798  0.00  0.00    +0.000 Cl
ENDBRANCH   3   9
BRANCH   4  17
ATOM     17  C   UNL     1       3.938   2.973  19.873  0.00  0.00    +0.000 C 
ATOM     18  N   UNL     1       4.421   1.921  19.734  0.00  0.00    +0.000 NA
ENDBRANCH   4  17
BRANCH   1  19
ATOM     19  S   UNL     1       1.264   8.138  20.793  0.00  0.00    +0.000 S 
BRANCH  19  20
ATOM     20  C   UNL     1       1.364   9.087  19.242  0.00  0.00    +0.000 C 
BRANCH  20  21
ATOM     21  C   UNL     1       0.330  10.224  19.265  0.00  0.00    +0.000 C 
BRANCH  21  22
ATOM     22  C   UNL     1      -0.514  10.248  17.986  0.00  0.00    +0.000 C 
BRANCH  22  24
ATOM     23  C   UNL     1      -2.862   9.742  17.246  0.00  0.00    +0.000 C 
ATOM     24  C   UNL     1      -2.002  10.423  18.298  0.00  0.00    +0.000 C 
ENDBRANCH  22  24
ENDBRANCH  21  22
ENDBRANCH  20  21
ENDBRANCH  19  20
ENDBRANCH   1  19
TORSDOF 7
ENDMDL
MODEL 8
REMARK VINA RESULT:      -7.1      3.199      4.880
REMARK  Name = 
REMARK  8 active torsions:
REMARK  status: ('A' for Active; 'I' for Inactive)
REMARK    1  A    between atoms: C_1  and  C_2
REMARK    2  A    between atoms: C_2  and  C_3
REMARK    3  A    between atoms: C_3  and  C_4
REMARK    4  A    between atoms: C_4  and  C_5
REMARK    5  A    between atoms: C_5  and  S_6
REMARK    6  A    between atoms: S_6  and  C_7
REMARK    7  A    between atoms: C_9  and  C_10
REMARK    8  A    between atoms: C_18  and  C_19
REMARK                            x       y       z     vdW  Elec       q    Type
REMARK                         _______ _______ _______ _____ _____    ______ ____
ROOT
ATOM      1  C   UNL     1       6.046   4.146  14.672  0.00  0.00    +0.000 A 
ATOM      2  N   UNL     1       4.989   3.882  15.361  0.00  0.00    +0.000 NA
ATOM      3  C   UNL     1       5.037   4.151  16.719  0.00  0.00    +0.000 A 
ATOM      4  C   UNL     1       6.103   4.679  17.359  0.00  0.00    +0.000 A 
ATOM      5  C   UNL     1       7.293   4.970  16.529  0.00  0.00    +0.000 A 
ATOM      6  O   UNL     1       8.326   5.441  16.991  0.00  0.00    +0.000 OA
ATOM      7  N   UNL     1       7.182   4.667  15.203  0.00  0.00    +0.000 N 
ATOM      8  H   UNL     1       7.988   4.824  14.617  0.00  0.00    +0.000 HD
ENDROOT
BRANCH   3   9
ATOM      9  C   UNL     1       3.810   3.796  17.479  0.00  0.00    +0.000 A 
ATOM     10  C   UNL     1       3.552   2.442  17.765  0.00  0.00    +0.000 A 
ATOM     11  C   UNL     1       2.415   2.070  18.492  0.00  0.00    +0.000 A 
ATOM     12  C   UNL     1       1.531   3.046  18.944  0.00  0.00    +0.000 A 
ATOM     13 CL   UNL     1       0.143   2.585  19.849  0.00  0.00    +0.000 Cl
ATOM     14  C   UNL     1       1.763   4.391  18.664  0.00  0.00    +0.000 A 
ATOM     15  C   UNL     1       2.893   4.763  17.929  0.00  0.00    +0.000 A 
ATOM     16 CL   UNL     1       3.117   6.446  17.595  0.00  0.00    +0.000 Cl
ENDBRANCH   3   9
BRANCH   4  17
ATOM     17  C   UNL     1       6.149   4.961  18.750  0.00  0.00    +0.000 C 
ATOM     18  N   UNL     1       6.158   5.156  19.899  0.00  0.00    +0.000 NA
ENDBRANCH   4  17
BRANCH   1  19
ATOM     19  S   UNL     1       6.201   3.777  12.981  0.00  0.00    +0.000 S 
BRANCH  19  20
ATOM     20  C   UNL     1       4.469   3.608  12.444  0.00  0.00    +0.000 C 
BRANCH  20  21
ATOM     21  C   UNL     1       4.416   2.865  11.099  0.00  0.00    +0.000 C 
BRANCH  21  22
ATOM     22  C   UNL     1       3.140   3.198  10.318  0.00  0.00    +0.000 C 
BRANCH  22  24
ATOM     23  C   UNL     1       1.997   5.000   8.991  0.00  0.00    +0.000 C 
ATOM     24  C   UNL     1       3.335   4.415   9.412  0.00  0.00    +0.000 C 
ENDBRANCH  22  24
ENDBRANCH  21  22
ENDBRANCH  20  21
ENDBRANCH  19  20
ENDBRANCH   1  19
TORSDOF 7
ENDMDL
MODEL 9
REMARK VINA RESULT:      -7.0      2.991      7.391
REMARK  Name = 
REMARK  8 active torsions:
REMARK  status: ('A' for Active; 'I' for Inactive)
REMARK    1  A    between atoms: C_1  and  C_2
REMARK    2  A    between atoms: C_2  and  C_3
REMARK    3  A    between atoms: C_3  and  C_4
REMARK    4  A    between atoms: C_4  and  C_5
REMARK    5  A    between atoms: C_5  and  S_6
REMARK    6  A    between atoms: S_6  and  C_7
REMARK    7  A    between atoms: C_9  and  C_10
REMARK    8  A    between atoms: C_18  and  C_19
REMARK                            x       y       z     vdW  Elec       q    Type
REMARK                         _______ _______ _______ _____ _____    ______ ____
ROOT
ATOM      1  C   UNL     1       2.314   6.848  19.771  0.00  0.00    +0.000 A 
ATOM      2  N   UNL     1       3.139   6.597  18.813  0.00  0.00    +0.000 NA
ATOM      3  C   UNL     1       3.742   5.350  18.808  0.00  0.00    +0.000 A 
ATOM      4  C   UNL     1       3.514   4.384  19.725  0.00  0.00    +0.000 A 
ATOM      5  C   UNL     1       2.558   4.713  20.805  0.00  0.00    +0.000 A 
ATOM      6  O   UNL     1       2.273   3.928  21.702  0.00  0.00    +0.000 OA
ATOM      7  N   UNL     1       2.013   5.963  20.757  0.00  0.00    +0.000 N 
ATOM      8  H   UNL     1       1.382   6.229  21.499  0.00  0.00    +0.000 HD
ENDROOT
BRANCH   3   9
ATOM      9  C   UNL     1       4.713   5.120  17.706  0.00  0.00    +0.000 A 
ATOM     10  C   UNL     1       4.228   4.780  16.429  0.00  0.00    +0.000 A 
ATOM     11  C   UNL     1       5.111   4.570  15.364  0.00  0.00    +0.000 A 
ATOM     12  C   UNL     1       6.483   4.705  15.561  0.00  0.00    +0.000 A 
ATOM     13 CL   UNL     1       7.563   4.461  14.245  0.00  0.00    +0.000 Cl
ATOM     14  C   UNL     1       6.984   5.033  16.819  0.00  0.00    +0.000 A 
ATOM     15  C   UNL     1       6.103   5.232  17.888  0.00  0.00    +0.000 A 
ATOM     16 CL   UNL     1       6.785   5.616  19.432  0.00  0.00    +0.000 Cl
ENDBRANCH   3   9
BRANCH   4  17
ATOM     17  C   UNL     1       4.127   3.104  19.715  0.00  0.00    +0.000 C 
ATOM     18  N   UNL     1       4.669   2.071  19.687  0.00  0.00    +0.000 NA
ENDBRANCH   4  17
BRANCH   1  19
ATOM     19  S   UNL     1       1.549   8.391  19.994  0.00  0.00    +0.000 S 
BRANCH  19  20
ATOM     20  C   UNL     1       0.565   8.139  21.506  0.00  0.00    +0.000 C 
BRANCH  20  21
ATOM     21  C   UNL     1       0.820   9.296  22.486  0.00  0.00    +0.000 C 
BRANCH  21  22
ATOM     22  C   UNL     1      -0.056  10.512  22.167  0.00  0.00    +0.000 C 
BRANCH  22  24
ATOM     23  C   UNL     1      -1.966  11.955  22.935  0.00  0.00    +0.000 C 
ATOM     24  C   UNL     1      -1.185  10.676  23.188  0.00  0.00    +0.000 C 
ENDBRANCH  22  24
ENDBRANCH  21  22
ENDBRANCH  20  21
ENDBRANCH  19  20
ENDBRANCH   1  19
TORSDOF 7
ENDMDL
