MODEL 1
REMARK VINA RESULT:      -6.9      0.000      0.000
REMARK  Name = 
REMARK  3 active torsions:
REMARK  status: ('A' for Active; 'I' for Inactive)
REMARK    1  A    between atoms: C_2  and  C_4
REMARK    2  A    between atoms: C_6  and  S_7
REMARK    3  A    between atoms: S_7  and  N_8
REMARK                            x       y       z     vdW  Elec       q    Type
REMARK                         _______ _______ _______ _____ _____    ______ ____
ROOT
ATOM      1  C   UNL     1       3.491   4.920  19.195  0.00  0.00    +0.000 A 
ATOM      2  C   UNL     1       4.865   5.211  19.300  0.00  0.00    +0.000 A 
ATOM      3  C   UNL     1       5.743   4.950  18.234  0.00  0.00    +0.000 A 
ATOM      4  C   UNL     1       5.256   4.386  17.056  0.00  0.00    +0.000 A 
ATOM      5 CL   UNL     1       6.236   3.988  15.692  0.00  0.00    +0.000 Cl
ATOM      6  C   UNL     1       3.891   4.092  16.951  0.00  0.00    +0.000 A 
ATOM      7  C   UNL     1       3.010   4.357  18.008  0.00  0.00    +0.000 A 
ATOM      8 CL   UNL     1       1.359   3.908  17.753  0.00  0.00    +0.000 Cl
ENDROOT
BRANCH   1  10
ATOM      9  N   UNL     1       2.258   6.507  20.601  0.00  0.00    +0.000 N 
ATOM     10  C   UNL     1       2.667   5.224  20.396  0.00  0.00    +0.000 C 
ATOM     11  O   UNL     1       2.390   4.344  21.203  0.00  0.00    +0.000 OA
ATOM     12  H   UNL     1       1.649   6.682  21.391  0.00  0.00    +0.000 HD
ATOM     13  H   UNL     1       2.380   7.246  19.922  0.00  0.00    +0.000 HD
ENDBRANCH   1  10
BRANCH   3  14
ATOM     14  S   UNL     1       7.441   5.392  18.417  0.00  0.00    +0.000 S 
ATOM     15  O   UNL     1       8.266   4.291  17.980  0.00  0.00    +0.000 OA
ATOM     16  O   UNL     1       7.634   6.732  17.912  0.00  0.00    +0.000 OA
BRANCH  14  17
ATOM     17  N   UNL     1       7.625   5.529  20.079  0.00  0.00    +0.000 NA
ATOM     18  H   UNL     1       7.416   4.635  20.527  0.00  0.00    +0.000 HD
ATOM     19  H   UNL     1       8.555   5.889  20.297  0.00  0.00    +0.000 HD
ENDBRANCH  14  17
ENDBRANCH   3  14
TORSDOF 3
ENDMDL
MODEL 2
REMARK VINA RESULT:      -6.8      2.929      3.373
REMARK  Name = 
REMARK  3 active torsions:
REMARK  status: ('A' for Active; 'I' for Inactive)
REMARK    1  A    between atoms: C_2  and  C_4
REMARK    2  A    between atoms: C_6  and  S_7
REMARK    3  A    between atoms: S_7  and  N_8
REMARK                            x       y       z     vdW  Elec       q    Type
REMARK                         _______ _______ _______ _____ _____    ______ ____
ROOT
ATOM      1  C   UNL     1       3.412   3.920  18.082  0.00  0.00    +0.000 A 
ATOM      2  C   UNL     1       4.335   4.020  17.023  0.00  0.00    +0.000 A 
ATOM      3  C   UNL     1       5.551   4.706  17.185  0.00  0.00    +0.000 A 
ATOM      4  C   UNL     1       5.851   5.307  18.406  0.00  0.00    +0.000 A 
ATOM      5 CL   UNL     1       7.292   6.205  18.718  0.00  0.00    +0.000 Cl
ATOM      6  C   UNL     1       4.933   5.213  19.460  0.00  0.00    +0.000 A 
ATOM      7  C   UNL     1       3.722   4.524  19.306  0.00  0.00    +0.000 A 
ATOM      8 CL   UNL     1       2.670   4.520  20.678  0.00  0.00    +0.000 Cl
ENDROOT
BRANCH   1  10
ATOM      9  N   UNL     1       2.121   1.838  17.978  0.00  0.00    +0.000 N 
ATOM     10  C   UNL     1       2.153   3.186  17.783  0.00  0.00    +0.000 C 
ATOM     11  O   UNL     1       1.176   3.775  17.337  0.00  0.00    +0.000 OA
ATOM     12  H   UNL     1       1.238   1.365  17.827  0.00  0.00    +0.000 HD
ATOM     13  H   UNL     1       2.864   1.322  18.430  0.00  0.00    +0.000 HD
ENDBRANCH   1  10
BRANCH   3  14
ATOM     14  S   UNL     1       6.681   4.743  15.831  0.00  0.00    +0.000 S 
ATOM     15  O   UNL     1       6.473   5.954  15.074  0.00  0.00    +0.000 OA
ATOM     16  O   UNL     1       7.992   4.360  16.304  0.00  0.00    +0.000 OA
BRANCH  14  17
ATOM     17  N   UNL     1       6.178   3.459  14.875  0.00  0.00    +0.000 NA
ATOM     18  H   UNL     1       5.195   3.578  14.623  0.00  0.00    +0.000 HD
ATOM     19  H   UNL     1       6.799   3.360  14.071  0.00  0.00    +0.000 HD
ENDBRANCH  14  17
ENDBRANCH   3  14
TORSDOF 3
ENDMDL
MODEL 3
REMARK VINA RESULT:      -6.8      1.050      1.099
REMARK  Name = 
REMARK  3 active torsions:
REMARK  status: ('A' for Active; 'I' for Inactive)
REMARK    1  A    between atoms: C_2  and  C_4
REMARK    2  A    between atoms: C_6  and  S_7
REMARK    3  A    between atoms: S_7  and  N_8
REMARK                            x       y       z     vdW  Elec       q    Type
REMARK                         _______ _______ _______ _____ _____    ______ ____
ROOT
ATOM      1  C   UNL     1       3.451   5.049  18.972  0.00  0.00    +0.000 A 
ATOM      2  C   UNL     1       4.807   5.421  18.899  0.00  0.00    +0.000 A 
ATOM      3  C   UNL     1       5.608   5.026  17.814  0.00  0.00    +0.000 A 
ATOM      4  C   UNL     1       5.062   4.247  16.796  0.00  0.00    +0.000 A 
ATOM      5 CL   UNL     1       5.950   3.671  15.432  0.00  0.00    +0.000 Cl
ATOM      6  C   UNL     1       3.715   3.872  16.867  0.00  0.00    +0.000 A 
ATOM      7  C   UNL     1       2.910   4.269  17.944  0.00  0.00    +0.000 A 
ATOM      8 CL   UNL     1       1.275   3.702  17.920  0.00  0.00    +0.000 Cl
ENDROOT
BRANCH   1  10
ATOM      9  N   UNL     1       2.396   6.833  20.284  0.00  0.00    +0.000 N 
ATOM     10  C   UNL     1       2.711   5.512  20.177  0.00  0.00    +0.000 C 
ATOM     11  O   UNL     1       2.422   4.727  21.072  0.00  0.00    +0.000 OA
ATOM     12  H   UNL     1       1.841   7.117  21.081  0.00  0.00    +0.000 HD
ATOM     13  H   UNL     1       2.527   7.499  19.535  0.00  0.00    +0.000 HD
ENDBRANCH   1  10
BRANCH   3  14
ATOM     14  S   UNL     1       7.284   5.576  17.764  0.00  0.00    +0.000 S 
ATOM     15  O   UNL     1       7.515   6.277  16.524  0.00  0.00    +0.000 OA
ATOM     16  O   UNL     1       7.623   6.162  19.041  0.00  0.00    +0.000 OA
BRANCH  14  17
ATOM     17  N   UNL     1       8.156   4.145  17.703  0.00  0.00    +0.000 NA
ATOM     18  H   UNL     1       8.820   4.175  16.928  0.00  0.00    +0.000 HD
ATOM     19  H   UNL     1       8.590   3.963  18.609  0.00  0.00    +0.000 HD
ENDBRANCH  14  17
ENDBRANCH   3  14
TORSDOF 3
ENDMDL
MODEL 4
REMARK VINA RESULT:      -6.7      2.803      3.225
REMARK  Name = 
REMARK  3 active torsions:
REMARK  status: ('A' for Active; 'I' for Inactive)
REMARK    1  A    between atoms: C_2  and  C_4
REMARK    2  A    between atoms: C_6  and  S_7
REMARK    3  A    between atoms: S_7  and  N_8
REMARK                            x       y       z     vdW  Elec       q    Type
REMARK                         _______ _______ _______ _____ _____    ______ ____
ROOT
ATOM      1  C   UNL     1       3.293   3.903  18.243  0.00  0.00    +0.000 A 
ATOM      2  C   UNL     1       4.274   3.877  17.234  0.00  0.00    +0.000 A 
ATOM      3  C   UNL     1       5.514   4.513  17.414  0.00  0.00    +0.000 A 
ATOM      4  C   UNL     1       5.780   5.192  18.602  0.00  0.00    +0.000 A 
ATOM      5 CL   UNL     1       7.247   6.041  18.928  0.00  0.00    +0.000 Cl
ATOM      6  C   UNL     1       4.804   5.223  19.606  0.00  0.00    +0.000 A 
ATOM      7  C   UNL     1       3.569   4.584  19.435  0.00  0.00    +0.000 A 
ATOM      8 CL   UNL     1       2.446   4.736  20.742  0.00  0.00    +0.000 Cl
ENDROOT
BRANCH   1  10
ATOM      9  N   UNL     1       1.900   1.884  18.228  0.00  0.00    +0.000 N 
ATOM     10  C   UNL     1       2.015   3.208  17.929  0.00  0.00    +0.000 C 
ATOM     11  O   UNL     1       1.097   3.807  17.381  0.00  0.00    +0.000 OA
ATOM     12  H   UNL     1       1.003   1.444  18.061  0.00  0.00    +0.000 HD
ATOM     13  H   UNL     1       2.588   1.372  18.762  0.00  0.00    +0.000 HD
ENDBRANCH   1  10
BRANCH   3  14
ATOM     14  S   UNL     1       6.715   4.392  16.127  0.00  0.00    +0.000 S 
ATOM     15  O   UNL     1       8.015   4.169  16.713  0.00  0.00    +0.000 OA
ATOM     16  O   UNL     1       6.198   3.537  15.082  0.00  0.00    +0.000 OA
BRANCH  14  17
ATOM     17  N   UNL     1       6.721   5.930  15.460  0.00  0.00    +0.000 NA
ATOM     18  H   UNL     1       7.199   6.580  16.086  0.00  0.00    +0.000 HD
ATOM     19  H   UNL     1       7.118   5.901  14.519  0.00  0.00    +0.000 HD
ENDBRANCH  14  17
ENDBRANCH   3  14
TORSDOF 3
ENDMDL
MODEL 5
REMARK VINA RESULT:      -6.7      1.027      1.288
REMARK  Name = 
REMARK  3 active torsions:
REMARK  status: ('A' for Active; 'I' for Inactive)
REMARK    1  A    between atoms: C_2  and  C_4
REMARK    2  A    between atoms: C_6  and  S_7
REMARK    3  A    between atoms: S_7  and  N_8
REMARK                            x       y       z     vdW  Elec       q    Type
REMARK                         _______ _______ _______ _____ _____    ______ ____
ROOT
ATOM      1  C   UNL     1       3.518   4.831  19.036  0.00  0.00    +0.000 A 
ATOM      2  C   UNL     1       4.890   5.148  19.015  0.00  0.00    +0.000 A 
ATOM      3  C   UNL     1       5.692   4.816  17.910  0.00  0.00    +0.000 A 
ATOM      4  C   UNL     1       5.131   4.153  16.819  0.00  0.00    +0.000 A 
ATOM      5 CL   UNL     1       6.017   3.661  15.422  0.00  0.00    +0.000 Cl
ATOM      6  C   UNL     1       3.768   3.833  16.840  0.00  0.00    +0.000 A 
ATOM      7  C   UNL     1       2.962   4.168  17.936  0.00  0.00    +0.000 A 
ATOM      8 CL   UNL     1       1.306   3.677  17.841  0.00  0.00    +0.000 Cl
ENDROOT
BRANCH   1  10
ATOM      9  N   UNL     1       2.437   6.525  20.443  0.00  0.00    +0.000 N 
ATOM     10  C   UNL     1       2.779   5.217  20.268  0.00  0.00    +0.000 C 
ATOM     11  O   UNL     1       2.511   4.383  21.125  0.00  0.00    +0.000 OA
ATOM     12  H   UNL     1       1.883   6.758  21.257  0.00  0.00    +0.000 HD
ATOM     13  H   UNL     1       2.550   7.230  19.727  0.00  0.00    +0.000 HD
ENDBRANCH   1  10
BRANCH   3  14
ATOM     14  S   UNL     1       7.390   5.295  17.931  0.00  0.00    +0.000 S 
ATOM     15  O   UNL     1       7.679   5.959  19.179  0.00  0.00    +0.000 OA
ATOM     16  O   UNL     1       8.194   4.192  17.455  0.00  0.00    +0.000 OA
BRANCH  14  17
ATOM     17  N   UNL     1       7.480   6.447  16.716  0.00  0.00    +0.000 NA
ATOM     18  H   UNL     1       8.136   7.183  16.981  0.00  0.00    +0.000 HD
ATOM     19  H   UNL     1       7.704   5.998  15.826  0.00  0.00    +0.000 HD
ENDBRANCH  14  17
ENDBRANCH   3  14
TORSDOF 3
ENDMDL
MODEL 6
REMARK VINA RESULT:      -6.6      1.121      1.121
REMARK  Name = 
REMARK  3 active torsions:
REMARK  status: ('A' for Active; 'I' for Inactive)
REMARK    1  A    between atoms: C_2  and  C_4
REMARK    2  A    between atoms: C_6  and  S_7
REMARK    3  A    between atoms: S_7  and  N_8
REMARK                            x       y       z     vdW  Elec       q    Type
REMARK                         _______ _______ _______ _____ _____    ______ ____
ROOT
ATOM      1  C   UNL     1       3.538   5.291  18.709  0.00  0.00    +0.000 A 
ATOM      2  C   UNL     1       4.919   5.556  18.631  0.00  0.00    +0.000 A 
ATOM      3  C   UNL     1       5.700   5.020  17.593  0.00  0.00    +0.000 A 
ATOM      4  C   UNL     1       5.109   4.206  16.628  0.00  0.00    +0.000 A 
ATOM      5 CL   UNL     1       5.967   3.462  15.328  0.00  0.00    +0.000 Cl
ATOM      6  C   UNL     1       3.737   3.938  16.706  0.00  0.00    +0.000 A 
ATOM      7  C   UNL     1       2.951   4.475  17.735  0.00  0.00    +0.000 A 
ATOM      8 CL   UNL     1       1.280   4.030  17.727  0.00  0.00    +0.000 Cl
ENDROOT
BRANCH   1  10
ATOM      9  N   UNL     1       2.582   5.131  20.962  0.00  0.00    +0.000 N 
ATOM     10  C   UNL     1       2.822   5.899  19.863  0.00  0.00    +0.000 C 
ATOM     11  O   UNL     1       2.425   7.057  19.813  0.00  0.00    +0.000 OA
ATOM     12  H   UNL     1       2.147   5.579  21.759  0.00  0.00    +0.000 HD
ATOM     13  H   UNL     1       2.969   4.205  21.090  0.00  0.00    +0.000 HD
ENDBRANCH   1  10
BRANCH   3  14
ATOM     14  S   UNL     1       7.413   5.440  17.529  0.00  0.00    +0.000 S 
ATOM     15  O   UNL     1       8.194   4.229  17.456  0.00  0.00    +0.000 OA
ATOM     16  O   UNL     1       7.596   6.519  16.585  0.00  0.00    +0.000 OA
BRANCH  14  17
ATOM     17  N   UNL     1       7.695   6.131  19.031  0.00  0.00    +0.000 NA
ATOM     18  H   UNL     1       7.253   7.050  19.080  0.00  0.00    +0.000 HD
ATOM     19  H   UNL     1       7.397   5.492  19.770  0.00  0.00    +0.000 HD
ENDBRANCH  14  17
ENDBRANCH   3  14
TORSDOF 3
ENDMDL
MODEL 7
REMARK VINA RESULT:      -6.6      2.273      2.414
REMARK  Name = 
REMARK  3 active torsions:
REMARK  status: ('A' for Active; 'I' for Inactive)
REMARK    1  A    between atoms: C_2  and  C_4
REMARK    2  A    between atoms: C_6  and  S_7
REMARK    3  A    between atoms: S_7  and  N_8
REMARK                            x       y       z     vdW  Elec       q    Type
REMARK                         _______ _______ _______ _____ _____    ______ ____
ROOT
ATOM      1  C   UNL     1       4.169   3.676  19.151  0.00  0.00    +0.000 A 
ATOM      2  C   UNL     1       5.448   4.040  18.688  0.00  0.00    +0.000 A 
ATOM      3  C   UNL     1       5.613   5.091  17.770  0.00  0.00    +0.000 A 
ATOM      4  C   UNL     1       4.498   5.782  17.298  0.00  0.00    +0.000 A 
ATOM      5 CL   UNL     1       4.567   7.065  16.146  0.00  0.00    +0.000 Cl
ATOM      6  C   UNL     1       3.224   5.420  17.754  0.00  0.00    +0.000 A 
ATOM      7  C   UNL     1       3.054   4.377  18.675  0.00  0.00    +0.000 A 
ATOM      8 CL   UNL     1       1.423   4.014  19.121  0.00  0.00    +0.000 Cl
ENDROOT
BRANCH   1  10
ATOM      9  N   UNL     1       5.030   1.531  19.970  0.00  0.00    +0.000 N 
ATOM     10  C   UNL     1       4.121   2.537  20.106  0.00  0.00    +0.000 C 
ATOM     11  O   UNL     1       3.260   2.486  20.976  0.00  0.00    +0.000 OA
ATOM     12  H   UNL     1       5.019   0.795  20.666  0.00  0.00    +0.000 HD
ATOM     13  H   UNL     1       5.814   1.571  19.333  0.00  0.00    +0.000 HD
ENDBRANCH   1  10
BRANCH   3  14
ATOM     14  S   UNL     1       7.250   5.526  17.277  0.00  0.00    +0.000 S 
ATOM     15  O   UNL     1       7.302   5.620  15.838  0.00  0.00    +0.000 OA
ATOM     16  O   UNL     1       7.726   6.597  18.124  0.00  0.00    +0.000 OA
BRANCH  14  17
ATOM     17  N   UNL     1       8.155   4.188  17.728  0.00  0.00    +0.000 NA
ATOM     18  H   UNL     1       8.199   3.521  16.955  0.00  0.00    +0.000 HD
ATOM     19  H   UNL     1       9.072   4.486  18.066  0.00  0.00    +0.000 HD
ENDBRANCH  14  17
ENDBRANCH   3  14
TORSDOF 3
ENDMDL
MODEL 8
REMARK VINA RESULT:      -6.6      1.138      1.138
REMARK  Name = 
REMARK  3 active torsions:
REMARK  status: ('A' for Active; 'I' for Inactive)
REMARK    1  A    between atoms: C_2  and  C_4
REMARK    2  A    between atoms: C_6  and  S_7
REMARK    3  A    between atoms: S_7  and  N_8
REMARK                            x       y       z     vdW  Elec       q    Type
REMARK                         _______ _______ _______ _____ _____    ______ ____
ROOT
ATOM      1  C   UNL     1       3.672   4.146  19.250  0.00  0.00    +0.000 A 
ATOM      2  C   UNL     1       5.027   4.525  19.317  0.00  0.00    +0.000 A 
ATOM      3  C   UNL     1       5.786   4.706  18.149  0.00  0.00    +0.000 A 
ATOM      4  C   UNL     1       5.201   4.499  16.901  0.00  0.00    +0.000 A 
ATOM      5 CL   UNL     1       6.036   4.655  15.399  0.00  0.00    +0.000 Cl
ATOM      6  C   UNL     1       3.855   4.118  16.831  0.00  0.00    +0.000 A 
ATOM      7  C   UNL     1       3.091   3.944  17.993  0.00  0.00    +0.000 A 
ATOM      8 CL   UNL     1       1.454   3.436  17.757  0.00  0.00    +0.000 Cl
ENDROOT
BRANCH   1  10
ATOM      9  N   UNL     1       2.980   2.734  21.132  0.00  0.00    +0.000 N 
ATOM     10  C   UNL     1       2.979   3.968  20.554  0.00  0.00    +0.000 C 
ATOM     11  O   UNL     1       2.389   4.904  21.081  0.00  0.00    +0.000 OA
ATOM     12  H   UNL     1       2.555   2.647  22.047  0.00  0.00    +0.000 HD
ATOM     13  H   UNL     1       3.528   1.958  20.787  0.00  0.00    +0.000 HD
ENDBRANCH   1  10
BRANCH   3  14
ATOM     14  S   UNL     1       7.462   5.235  18.311  0.00  0.00    +0.000 S 
ATOM     15  O   UNL     1       8.337   4.177  17.866  0.00  0.00    +0.000 OA
ATOM     16  O   UNL     1       7.580   6.582  17.801  0.00  0.00    +0.000 OA
BRANCH  14  17
ATOM     17  N   UNL     1       7.659   5.385  19.970  0.00  0.00    +0.000 NA
ATOM     18  H   UNL     1       8.640   5.249  20.218  0.00  0.00    +0.000 HD
ATOM     19  H   UNL     1       7.276   6.278  20.286  0.00  0.00    +0.000 HD
ENDBRANCH  14  17
ENDBRANCH   3  14
TORSDOF 3
ENDMDL
MODEL 9
REMARK VINA RESULT:      -6.6      2.751      3.105
REMARK  Name = 
REMARK  3 active torsions:
REMARK  status: ('A' for Active; 'I' for Inactive)
REMARK    1  A    between atoms: C_2  and  C_4
REMARK    2  A    between atoms: C_6  and  S_7
REMARK    3  A    between atoms: S_7  and  N_8
REMARK                            x       y       z     vdW  Elec       q    Type
REMARK                         _______ _______ _______ _____ _____    ______ ____
ROOT
ATOM      1  C   UNL     1       3.189   3.993  18.212  0.00  0.00    +0.000 A 
ATOM      2  C   UNL     1       4.133   4.025  17.168  0.00  0.00    +0.000 A 
ATOM      3  C   UNL     1       5.379   4.651  17.338  0.00  0.00    +0.000 A 
ATOM      4  C   UNL     1       5.689   5.261  18.553  0.00  0.00    +0.000 A 
ATOM      5 CL   UNL     1       7.168   6.090  18.873  0.00  0.00    +0.000 Cl
ATOM      6  C   UNL     1       4.751   5.233  19.592  0.00  0.00    +0.000 A 
ATOM      7  C   UNL     1       3.509   4.604  19.430  0.00  0.00    +0.000 A 
ATOM      8 CL   UNL     1       2.435   4.680  20.783  0.00  0.00    +0.000 Cl
ENDROOT
BRANCH   1  10
ATOM      9  N   UNL     1       1.739   2.016  18.275  0.00  0.00    +0.000 N 
ATOM     10  C   UNL     1       1.899   3.317  17.905  0.00  0.00    +0.000 C 
ATOM     11  O   UNL     1       1.012   3.908  17.300  0.00  0.00    +0.000 OA
ATOM     12  H   UNL     1       0.834   1.592  18.111  0.00  0.00    +0.000 HD
ATOM     13  H   UNL     1       2.399   1.516  18.855  0.00  0.00    +0.000 HD
ENDBRANCH   1  10
BRANCH   3  14
ATOM     14  S   UNL     1       6.532   4.605  16.004  0.00  0.00    +0.000 S 
ATOM     15  O   UNL     1       6.155   3.554  15.089  0.00  0.00    +0.000 OA
ATOM     16  O   UNL     1       6.777   5.954  15.548  0.00  0.00    +0.000 OA
BRANCH  14  17
ATOM     17  N   UNL     1       7.961   4.136  16.747  0.00  0.00    +0.000 NA
ATOM     18  H   UNL     1       7.801   3.303  17.315  0.00  0.00    +0.000 HD
ATOM     19  H   UNL     1       8.696   4.020  16.047  0.00  0.00    +0.000 HD
ENDBRANCH  14  17
ENDBRANCH   3  14
TORSDOF 3
ENDMDL
