MODEL 1
REMARK VINA RESULT:      -7.7      0.000      0.000
REMARK  Name = 
REMARK  14 active torsions:
REMARK  status: ('A' for Active; 'I' for Inactive)
REMARK    1  A    between atoms: C_1  and  C_2
REMARK    2  A    between atoms: C_2  and  O_3
REMARK    3  A    between atoms: O_3  and  C_4
REMARK    4  A    between atoms: C_4  and  C_5
REMARK    5  A    between atoms: C_6  and  C_7
REMARK    6  A    between atoms: C_10  and  C_11
REMARK    7  A    between atoms: C_13  and  C_14
REMARK    8  A    between atoms: C_17  and  N_18
REMARK    9  A    between atoms: N_18  and  C_19
REMARK   10  A    between atoms: N_18  and  C_20
REMARK   11  A    between atoms: C_23  and  C_24
REMARK   12  A    between atoms: C_27  and  N_28
REMARK   13  A    between atoms: N_28  and  C_29
REMARK   14  A    between atoms: N_28  and  C_30
REMARK                            x       y       z     vdW  Elec       q    Type
REMARK                         _______ _______ _______ _____ _____    ______ ____
ROOT
ATOM      1  C   UNL     1       7.516   7.763  17.688  0.00  0.00    +0.000 A 
ATOM      2  N   UNL     1       7.685   7.113  16.556  0.00  0.00    +0.000 NA
ATOM      3  C   UNL     1       6.716   6.129  16.530  0.00  0.00    +0.000 A 
ATOM      4  C   UNL     1       5.995   6.115  17.720  0.00  0.00    +0.000 A 
ATOM      5  N   UNL     1       6.548   7.139  18.433  0.00  0.00    +0.000 N 
ATOM      6  H   UNL     1       6.279   7.408  19.370  0.00  0.00    +0.000 HD
ENDROOT
BRANCH   1  10
ATOM      7  C   UNL     1       9.494  11.321  18.999  0.00  0.00    +0.000 A 
ATOM      8  C   UNL     1       9.578  10.148  19.755  0.00  0.00    +0.000 A 
ATOM      9  C   UNL     1       8.964   8.976  19.312  0.00  0.00    +0.000 A 
ATOM     10  C   UNL     1       8.208   8.966  18.136  0.00  0.00    +0.000 A 
ATOM     11  C   UNL     1       8.094  10.152  17.400  0.00  0.00    +0.000 A 
ATOM     12  C   UNL     1       8.726  11.321  17.830  0.00  0.00    +0.000 A 
BRANCH   7  14
ATOM     13  C   UNL     1      11.321  12.982  18.901  0.00  0.00    +0.000 C 
ATOM     14  C   UNL     1      10.167  12.549  19.434  0.00  0.00    +0.000 C 
BRANCH  13  15
ATOM     15  C   UNL     1      12.043  14.195  19.382  0.00  0.00    +0.000 C 
BRANCH  15  16
ATOM     16  O   UNL     1      11.532  15.336  18.704  0.00  0.00    +0.000 OA
BRANCH  16  18
ATOM     17  C   UNL     1      10.785  16.267  16.621  0.00  0.00    +0.000 C 
ATOM     18  C   UNL     1      11.431  15.080  17.304  0.00  0.00    +0.000 C 
ENDBRANCH  16  18
ENDBRANCH  15  16
ENDBRANCH  13  15
ENDBRANCH   7  14
ENDBRANCH   1  10
BRANCH   3  19
ATOM     19  C   UNL     1       6.493   5.291  15.368  0.00  0.00    +0.000 A 
ATOM     20  C   UNL     1       7.454   5.185  14.370  0.00  0.00    +0.000 A 
ATOM     21  C   UNL     1       7.215   4.378  13.242  0.00  0.00    +0.000 A 
ATOM     22  C   UNL     1       6.039   3.618  13.082  0.00  0.00    +0.000 A 
ATOM     23  C   UNL     1       5.097   3.744  14.108  0.00  0.00    +0.000 A 
ATOM     24  C   UNL     1       5.302   4.582  15.207  0.00  0.00    +0.000 A 
BRANCH  22  25
ATOM     25  N   UNL     1       5.804   2.844  11.956  0.00  0.00    +0.000 N 
ATOM     26  C   UNL     1       4.548   2.927  11.216  0.00  0.00    +0.000 C 
ATOM     27  C   UNL     1       6.875   2.159  11.235  0.00  0.00    +0.000 C 
ENDBRANCH  22  25
ENDBRANCH   3  19
BRANCH   4  28
ATOM     28  C   UNL     1       4.906   5.289  18.235  0.00  0.00    +0.000 A 
ATOM     29  C   UNL     1       3.593   5.757  18.239  0.00  0.00    +0.000 A 
ATOM     30  C   UNL     1       2.561   5.012  18.815  0.00  0.00    +0.000 A 
ATOM     31  C   UNL     1       2.770   3.729  19.338  0.00  0.00    +0.000 A 
ATOM     32  C   UNL     1       4.095   3.266  19.292  0.00  0.00    +0.000 A 
ATOM     33  C   UNL     1       5.149   4.026  18.765  0.00  0.00    +0.000 A 
BRANCH  31  34
ATOM     34  N   UNL     1       1.736   2.995  19.885  0.00  0.00    +0.000 N 
ATOM     35  C   UNL     1       1.428   3.052  21.312  0.00  0.00    +0.000 C 
ATOM     36  C   UNL     1       0.705   2.357  19.073  0.00  0.00    +0.000 C 
ENDBRANCH  31  34
ENDBRANCH   4  28
TORSDOF 9
ENDMDL
MODEL 2
REMARK VINA RESULT:      -7.6      8.098     11.596
REMARK  Name = 
REMARK  14 active torsions:
REMARK  status: ('A' for Active; 'I' for Inactive)
REMARK    1  A    between atoms: C_1  and  C_2
REMARK    2  A    between atoms: C_2  and  O_3
REMARK    3  A    between atoms: O_3  and  C_4
REMARK    4  A    between atoms: C_4  and  C_5
REMARK    5  A    between atoms: C_6  and  C_7
REMARK    6  A    between atoms: C_10  and  C_11
REMARK    7  A    between atoms: C_13  and  C_14
REMARK    8  A    between atoms: C_17  and  N_18
REMARK    9  A    between atoms: N_18  and  C_19
REMARK   10  A    between atoms: N_18  and  C_20
REMARK   11  A    between atoms: C_23  and  C_24
REMARK   12  A    between atoms: C_27  and  N_28
REMARK   13  A    between atoms: N_28  and  C_29
REMARK   14  A    between atoms: N_28  and  C_30
REMARK                            x       y       z     vdW  Elec       q    Type
REMARK                         _______ _______ _______ _____ _____    ______ ____
ROOT
ATOM      1  C   UNL     1       1.048  10.036  19.329  0.00  0.00    +0.000 A 
ATOM      2  N   UNL     1       1.340  11.232  18.861  0.00  0.00    +0.000 NA
ATOM      3  C   UNL     1       0.507  12.116  19.518  0.00  0.00    +0.000 A 
ATOM      4  C   UNL     1      -0.385  11.435  20.341  0.00  0.00    +0.000 A 
ATOM      5  N   UNL     1      -0.031  10.127  20.171  0.00  0.00    +0.000 N 
ATOM      6  H   UNL     1      -0.488   9.339  20.610  0.00  0.00    +0.000 HD
ENDROOT
BRANCH   1  10
ATOM      7  C   UNL     1       3.093   6.377  18.482  0.00  0.00    +0.000 A 
ATOM      8  C   UNL     1       2.458   6.562  19.714  0.00  0.00    +0.000 A 
ATOM      9  C   UNL     1       1.760   7.741  19.980  0.00  0.00    +0.000 A 
ATOM     10  C   UNL     1       1.728   8.778  19.044  0.00  0.00    +0.000 A 
ATOM     11  C   UNL     1       2.396   8.606  17.826  0.00  0.00    +0.000 A 
ATOM     12  C   UNL     1       3.077   7.419  17.548  0.00  0.00    +0.000 A 
BRANCH   7  14
ATOM     13  C   UNL     1       4.416   4.903  17.004  0.00  0.00    +0.000 C 
ATOM     14  C   UNL     1       3.797   5.129  18.175  0.00  0.00    +0.000 C 
BRANCH  13  15
ATOM     15  C   UNL     1       5.079   3.612  16.662  0.00  0.00    +0.000 C 
BRANCH  15  16
ATOM     16  O   UNL     1       6.200   3.876  15.827  0.00  0.00    +0.000 OA
BRANCH  16  18
ATOM     17  C   UNL     1       6.086   3.793  13.431  0.00  0.00    +0.000 C 
ATOM     18  C   UNL     1       5.799   4.611  14.672  0.00  0.00    +0.000 C 
ENDBRANCH  16  18
ENDBRANCH  15  16
ENDBRANCH  13  15
ENDBRANCH   7  14
ENDBRANCH   1  10
BRANCH   3  19
ATOM     19  C   UNL     1       0.631  13.553  19.371  0.00  0.00    +0.000 A 
ATOM     20  C   UNL     1      -0.397  14.305  18.815  0.00  0.00    +0.000 A 
ATOM     21  C   UNL     1      -0.255  15.697  18.668  0.00  0.00    +0.000 A 
ATOM     22  C   UNL     1       0.888  16.398  19.101  0.00  0.00    +0.000 A 
ATOM     23  C   UNL     1       1.900  15.611  19.662  0.00  0.00    +0.000 A 
ATOM     24  C   UNL     1       1.789  14.222  19.766  0.00  0.00    +0.000 A 
BRANCH  22  25
ATOM     25  N   UNL     1       1.027  17.766  18.930  0.00  0.00    +0.000 N 
ATOM     26  C   UNL     1       1.514  18.627  20.004  0.00  0.00    +0.000 C 
ATOM     27  C   UNL     1       1.032  18.398  17.613  0.00  0.00    +0.000 C 
ENDBRANCH  22  25
ENDBRANCH   3  19
BRANCH   4  28
ATOM     28  C   UNL     1      -1.476  11.852  21.218  0.00  0.00    +0.000 A 
ATOM     29  C   UNL     1      -2.635  12.423  20.697  0.00  0.00    +0.000 A 
ATOM     30  C   UNL     1      -3.642  12.910  21.534  0.00  0.00    +0.000 A 
ATOM     31  C   UNL     1      -3.582  12.775  22.927  0.00  0.00    +0.000 A 
ATOM     32  C   UNL     1      -2.420  12.166  23.427  0.00  0.00    +0.000 A 
ATOM     33  C   UNL     1      -1.379  11.722  22.600  0.00  0.00    +0.000 A 
BRANCH  31  34
ATOM     34  N   UNL     1      -4.596  13.242  23.741  0.00  0.00    +0.000 N 
ATOM     35  C   UNL     1      -5.063  14.625  23.666  0.00  0.00    +0.000 C 
ATOM     36  C   UNL     1      -5.465  12.355  24.507  0.00  0.00    +0.000 C 
ENDBRANCH  31  34
ENDBRANCH   4  28
TORSDOF 9
ENDMDL
MODEL 3
REMARK VINA RESULT:      -7.5      7.996     12.302
REMARK  Name = 
REMARK  14 active torsions:
REMARK  status: ('A' for Active; 'I' for Inactive)
REMARK    1  A    between atoms: C_1  and  C_2
REMARK    2  A    between atoms: C_2  and  O_3
REMARK    3  A    between atoms: O_3  and  C_4
REMARK    4  A    between atoms: C_4  and  C_5
REMARK    5  A    between atoms: C_6  and  C_7
REMARK    6  A    between atoms: C_10  and  C_11
REMARK    7  A    between atoms: C_13  and  C_14
REMARK    8  A    between atoms: C_17  and  N_18
REMARK    9  A    between atoms: N_18  and  C_19
REMARK   10  A    between atoms: N_18  and  C_20
REMARK   11  A    between atoms: C_23  and  C_24
REMARK   12  A    between atoms: C_27  and  N_28
REMARK   13  A    between atoms: N_28  and  C_29
REMARK   14  A    between atoms: N_28  and  C_30
REMARK                            x       y       z     vdW  Elec       q    Type
REMARK                         _______ _______ _______ _____ _____    ______ ____
ROOT
ATOM      1  C   UNL     1       1.099   9.859  19.443  0.00  0.00    +0.000 A 
ATOM      2  N   UNL     1       0.031   9.989  20.203  0.00  0.00    +0.000 NA
ATOM      3  C   UNL     1      -0.314  11.325  20.154  0.00  0.00    +0.000 A 
ATOM      4  C   UNL     1       0.621  12.051  19.423  0.00  0.00    +0.000 A 
ATOM      5  N   UNL     1       1.509  11.097  19.018  0.00  0.00    +0.000 N 
ATOM      6  H   UNL     1       2.343  11.272  18.473  0.00  0.00    +0.000 HD
ENDROOT
BRANCH   1  10
ATOM      7  C   UNL     1       3.149   6.274  18.335  0.00  0.00    +0.000 A 
ATOM      8  C   UNL     1       2.546   6.382  19.592  0.00  0.00    +0.000 A 
ATOM      9  C   UNL     1       1.847   7.537  19.943  0.00  0.00    +0.000 A 
ATOM     10  C   UNL     1       1.781   8.626  19.069  0.00  0.00    +0.000 A 
ATOM     11  C   UNL     1       2.417   8.529  17.826  0.00  0.00    +0.000 A 
ATOM     12  C   UNL     1       3.100   7.366  17.463  0.00  0.00    +0.000 A 
BRANCH   7  14
ATOM     13  C   UNL     1       4.657   4.981  16.864  0.00  0.00    +0.000 C 
ATOM     14  C   UNL     1       3.855   5.051  17.939  0.00  0.00    +0.000 C 
BRANCH  13  15
ATOM     15  C   UNL     1       5.326   3.726  16.419  0.00  0.00    +0.000 C 
BRANCH  15  16
ATOM     16  O   UNL     1       6.291   4.044  15.424  0.00  0.00    +0.000 OA
BRANCH  16  18
ATOM     17  C   UNL     1       6.253   3.687  13.050  0.00  0.00    +0.000 C 
ATOM     18  C   UNL     1       5.646   4.441  14.214  0.00  0.00    +0.000 C 
ENDBRANCH  16  18
ENDBRANCH  15  16
ENDBRANCH  13  15
ENDBRANCH   7  14
ENDBRANCH   1  10
BRANCH   3  19
ATOM     19  C   UNL     1      -1.531  11.834  20.758  0.00  0.00    +0.000 A 
ATOM     20  C   UNL     1      -1.647  11.955  22.137  0.00  0.00    +0.000 A 
ATOM     21  C   UNL     1      -2.840  12.437  22.706  0.00  0.00    +0.000 A 
ATOM     22  C   UNL     1      -3.941  12.854  21.933  0.00  0.00    +0.000 A 
ATOM     23  C   UNL     1      -3.788  12.725  20.549  0.00  0.00    +0.000 A 
ATOM     24  C   UNL     1      -2.627  12.199  19.975  0.00  0.00    +0.000 A 
BRANCH  22  25
ATOM     25  N   UNL     1      -5.119  13.307  22.505  0.00  0.00    +0.000 N 
ATOM     26  C   UNL     1      -5.119  14.190  23.668  0.00  0.00    +0.000 C 
ATOM     27  C   UNL     1      -6.407  13.229  21.818  0.00  0.00    +0.000 C 
ENDBRANCH  22  25
ENDBRANCH   3  19
BRANCH   4  28
ATOM     28  C   UNL     1       0.767  13.464  19.084  0.00  0.00    +0.000 A 
ATOM     29  C   UNL     1       2.021  14.010  18.816  0.00  0.00    +0.000 A 
ATOM     30  C   UNL     1       2.180  15.378  18.584  0.00  0.00    +0.000 A 
ATOM     31  C   UNL     1       1.089  16.255  18.522  0.00  0.00    +0.000 A 
ATOM     32  C   UNL     1      -0.167  15.676  18.761  0.00  0.00    +0.000 A 
ATOM     33  C   UNL     1      -0.335  14.314  19.048  0.00  0.00    +0.000 A 
BRANCH  31  34
ATOM     34  N   UNL     1       1.260  17.603  18.269  0.00  0.00    +0.000 N 
ATOM     35  C   UNL     1       1.363  18.118  16.906  0.00  0.00    +0.000 C 
ATOM     36  C   UNL     1       1.055  18.628  19.286  0.00  0.00    +0.000 C 
ENDBRANCH  31  34
ENDBRANCH   4  28
TORSDOF 9
ENDMDL
MODEL 4
REMARK VINA RESULT:      -7.4      8.585     12.431
REMARK  Name = 
REMARK  14 active torsions:
REMARK  status: ('A' for Active; 'I' for Inactive)
REMARK    1  A    between atoms: C_1  and  C_2
REMARK    2  A    between atoms: C_2  and  O_3
REMARK    3  A    between atoms: O_3  and  C_4
REMARK    4  A    between atoms: C_4  and  C_5
REMARK    5  A    between atoms: C_6  and  C_7
REMARK    6  A    between atoms: C_10  and  C_11
REMARK    7  A    between atoms: C_13  and  C_14
REMARK    8  A    between atoms: C_17  and  N_18
REMARK    9  A    between atoms: N_18  and  C_19
REMARK   10  A    between atoms: N_18  and  C_20
REMARK   11  A    between atoms: C_23  and  C_24
REMARK   12  A    between atoms: C_27  and  N_28
REMARK   13  A    between atoms: N_28  and  C_29
REMARK   14  A    between atoms: N_28  and  C_30
REMARK                            x       y       z     vdW  Elec       q    Type
REMARK                         _______ _______ _______ _____ _____    ______ ____
ROOT
ATOM      1  C   UNL     1       0.688  10.257  19.082  0.00  0.00    +0.000 A 
ATOM      2  N   UNL     1       1.154  11.477  19.253  0.00  0.00    +0.000 NA
ATOM      3  C   UNL     1       0.048  12.296  19.380  0.00  0.00    +0.000 A 
ATOM      4  C   UNL     1      -1.125  11.574  19.187  0.00  0.00    +0.000 A 
ATOM      5  N   UNL     1      -0.679  10.302  18.973  0.00  0.00    +0.000 N 
ATOM      6  H   UNL     1      -1.267   9.504  18.775  0.00  0.00    +0.000 HD
ENDROOT
BRANCH   1  10
ATOM      7  C   UNL     1       2.868   6.583  18.911  0.00  0.00    +0.000 A 
ATOM      8  C   UNL     1       2.803   7.418  17.791  0.00  0.00    +0.000 A 
ATOM      9  C   UNL     1       2.122   8.634  17.855  0.00  0.00    +0.000 A 
ATOM     10  C   UNL     1       1.448   9.015  19.018  0.00  0.00    +0.000 A 
ATOM     11  C   UNL     1       1.484   8.160  20.126  0.00  0.00    +0.000 A 
ATOM     12  C   UNL     1       2.183   6.952  20.073  0.00  0.00    +0.000 A 
BRANCH   7  14
ATOM     13  C   UNL     1       3.185   4.237  18.200  0.00  0.00    +0.000 C 
ATOM     14  C   UNL     1       3.613   5.320  18.869  0.00  0.00    +0.000 C 
BRANCH  13  15
ATOM     15  C   UNL     1       3.904   2.931  18.206  0.00  0.00    +0.000 C 
BRANCH  15  16
ATOM     16  O   UNL     1       3.505   2.189  19.352  0.00  0.00    +0.000 OA
BRANCH  16  18
ATOM     17  C   UNL     1       1.677   2.533  20.870  0.00  0.00    +0.000 C 
ATOM     18  C   UNL     1       2.083   2.163  19.458  0.00  0.00    +0.000 C 
ENDBRANCH  16  18
ENDBRANCH  15  16
ENDBRANCH  13  15
ENDBRANCH   7  14
ENDBRANCH   1  10
BRANCH   3  19
ATOM     19  C   UNL     1       0.159  13.700  19.725  0.00  0.00    +0.000 A 
ATOM     20  C   UNL     1       0.055  14.685  18.750  0.00  0.00    +0.000 A 
ATOM     21  C   UNL     1       0.179  16.042  19.100  0.00  0.00    +0.000 A 
ATOM     22  C   UNL     1       0.368  16.474  20.427  0.00  0.00    +0.000 A 
ATOM     23  C   UNL     1       0.462  15.458  21.384  0.00  0.00    +0.000 A 
ATOM     24  C   UNL     1       0.392  14.105  21.039  0.00  0.00    +0.000 A 
BRANCH  22  25
ATOM     25  N   UNL     1       0.511  17.812  20.758  0.00  0.00    +0.000 N 
ATOM     26  C   UNL     1       1.585  18.630  20.200  0.00  0.00    +0.000 C 
ATOM     27  C   UNL     1      -0.554  18.583  21.395  0.00  0.00    +0.000 C 
ENDBRANCH  22  25
ENDBRANCH   3  19
BRANCH   4  28
ATOM     28  C   UNL     1      -2.543  11.928  19.177  0.00  0.00    +0.000 A 
ATOM     29  C   UNL     1      -3.112  12.632  20.237  0.00  0.00    +0.000 A 
ATOM     30  C   UNL     1      -4.484  12.892  20.279  0.00  0.00    +0.000 A 
ATOM     31  C   UNL     1      -5.341  12.540  19.228  0.00  0.00    +0.000 A 
ATOM     32  C   UNL     1      -4.738  11.862  18.156  0.00  0.00    +0.000 A 
ATOM     33  C   UNL     1      -3.373  11.548  18.127  0.00  0.00    +0.000 A 
BRANCH  31  34
ATOM     34  N   UNL     1      -6.693  12.823  19.274  0.00  0.00    +0.000 N 
ATOM     35  C   UNL     1      -7.506  12.870  18.060  0.00  0.00    +0.000 C 
ATOM     36  C   UNL     1      -7.463  12.802  20.513  0.00  0.00    +0.000 C 
ENDBRANCH  31  34
ENDBRANCH   4  28
TORSDOF 9
ENDMDL
MODEL 5
REMARK VINA RESULT:      -7.4      8.236     12.040
REMARK  Name = 
REMARK  14 active torsions:
REMARK  status: ('A' for Active; 'I' for Inactive)
REMARK    1  A    between atoms: C_1  and  C_2
REMARK    2  A    between atoms: C_2  and  O_3
REMARK    3  A    between atoms: O_3  and  C_4
REMARK    4  A    between atoms: C_4  and  C_5
REMARK    5  A    between atoms: C_6  and  C_7
REMARK    6  A    between atoms: C_10  and  C_11
REMARK    7  A    between atoms: C_13  and  C_14
REMARK    8  A    between atoms: C_17  and  N_18
REMARK    9  A    between atoms: N_18  and  C_19
REMARK   10  A    between atoms: N_18  and  C_20
REMARK   11  A    between atoms: C_23  and  C_24
REMARK   12  A    between atoms: C_27  and  N_28
REMARK   13  A    between atoms: N_28  and  C_29
REMARK   14  A    between atoms: N_28  and  C_30
REMARK                            x       y       z     vdW  Elec       q    Type
REMARK                         _______ _______ _______ _____ _____    ______ ____
ROOT
ATOM      1  C   UNL     1       0.974  10.020  19.140  0.00  0.00    +0.000 A 
ATOM      2  N   UNL     1       1.385  11.184  18.680  0.00  0.00    +0.000 NA
ATOM      3  C   UNL     1       0.483  12.121  19.147  0.00  0.00    +0.000 A 
ATOM      4  C   UNL     1      -0.560  11.504  19.831  0.00  0.00    +0.000 A 
ATOM      5  N   UNL     1      -0.229  10.181  19.779  0.00  0.00    +0.000 N 
ATOM      6  H   UNL     1      -0.782   9.427  20.164  0.00  0.00    +0.000 HD
ENDROOT
BRANCH   1  10
ATOM      7  C   UNL     1       2.898   6.214  18.829  0.00  0.00    +0.000 A 
ATOM      8  C   UNL     1       2.890   7.092  17.740  0.00  0.00    +0.000 A 
ATOM      9  C   UNL     1       2.294   8.348  17.850  0.00  0.00    +0.000 A 
ATOM     10  C   UNL     1       1.648   8.732  19.029  0.00  0.00    +0.000 A 
ATOM     11  C   UNL     1       1.624   7.837  20.105  0.00  0.00    +0.000 A 
ATOM     12  C   UNL     1       2.238   6.586  20.005  0.00  0.00    +0.000 A 
BRANCH   7  14
ATOM     13  C   UNL     1       3.138   3.930  17.915  0.00  0.00    +0.000 C 
ATOM     14  C   UNL     1       3.553   4.905  18.739  0.00  0.00    +0.000 C 
BRANCH  13  15
ATOM     15  C   UNL     1       3.760   2.576  17.864  0.00  0.00    +0.000 C 
BRANCH  15  16
ATOM     16  O   UNL     1       3.446   1.879  19.064  0.00  0.00    +0.000 OA
BRANCH  16  18
ATOM     17  C   UNL     1       1.760   2.318  20.716  0.00  0.00    +0.000 C 
ATOM     18  C   UNL     1       2.037   1.887  19.290  0.00  0.00    +0.000 C 
ENDBRANCH  16  18
ENDBRANCH  15  16
ENDBRANCH  13  15
ENDBRANCH   7  14
ENDBRANCH   1  10
BRANCH   3  19
ATOM     19  C   UNL     1       0.681  13.546  18.965  0.00  0.00    +0.000 A 
ATOM     20  C   UNL     1       1.940  14.060  18.676  0.00  0.00    +0.000 A 
ATOM     21  C   UNL     1       2.116  15.447  18.516  0.00  0.00    +0.000 A 
ATOM     22  C   UNL     1       1.052  16.366  18.593  0.00  0.00    +0.000 A 
ATOM     23  C   UNL     1      -0.201  15.814  18.878  0.00  0.00    +0.000 A 
ATOM     24  C   UNL     1      -0.379  14.444  19.090  0.00  0.00    +0.000 A 
BRANCH  22  25
ATOM     25  N   UNL     1       1.241  17.732  18.456  0.00  0.00    +0.000 N 
ATOM     26  C   UNL     1       0.999  18.417  17.189  0.00  0.00    +0.000 C 
ATOM     27  C   UNL     1       1.358  18.630  19.603  0.00  0.00    +0.000 C 
ENDBRANCH  22  25
ENDBRANCH   3  19
BRANCH   4  28
ATOM     28  C   UNL     1      -1.770  11.993  20.488  0.00  0.00    +0.000 A 
ATOM     29  C   UNL     1      -1.812  12.168  21.870  0.00  0.00    +0.000 A 
ATOM     30  C   UNL     1      -2.992  12.544  22.516  0.00  0.00    +0.000 A 
ATOM     31  C   UNL     1      -4.163  12.847  21.810  0.00  0.00    +0.000 A 
ATOM     32  C   UNL     1      -4.086  12.696  20.416  0.00  0.00    +0.000 A 
ATOM     33  C   UNL     1      -2.923  12.268  19.761  0.00  0.00    +0.000 A 
BRANCH  31  34
ATOM     34  N   UNL     1      -5.317  13.240  22.461  0.00  0.00    +0.000 N 
ATOM     35  C   UNL     1      -5.338  14.401  23.348  0.00  0.00    +0.000 C 
ATOM     36  C   UNL     1      -6.637  12.735  22.100  0.00  0.00    +0.000 C 
ENDBRANCH  31  34
ENDBRANCH   4  28
TORSDOF 9
ENDMDL
MODEL 6
REMARK VINA RESULT:      -7.4      8.056     11.740
REMARK  Name = 
REMARK  14 active torsions:
REMARK  status: ('A' for Active; 'I' for Inactive)
REMARK    1  A    between atoms: C_1  and  C_2
REMARK    2  A    between atoms: C_2  and  O_3
REMARK    3  A    between atoms: O_3  and  C_4
REMARK    4  A    between atoms: C_4  and  C_5
REMARK    5  A    between atoms: C_6  and  C_7
REMARK    6  A    between atoms: C_10  and  C_11
REMARK    7  A    between atoms: C_13  and  C_14
REMARK    8  A    between atoms: C_17  and  N_18
REMARK    9  A    between atoms: N_18  and  C_19
REMARK   10  A    between atoms: N_18  and  C_20
REMARK   11  A    between atoms: C_23  and  C_24
REMARK   12  A    between atoms: C_27  and  N_28
REMARK   13  A    between atoms: N_28  and  C_29
REMARK   14  A    between atoms: N_28  and  C_30
REMARK                            x       y       z     vdW  Elec       q    Type
REMARK                         _______ _______ _______ _____ _____    ______ ____
ROOT
ATOM      1  C   UNL     1       0.891   9.833  19.032  0.00  0.00    +0.000 A 
ATOM      2  N   UNL     1      -0.425   9.820  19.059  0.00  0.00    +0.000 NA
ATOM      3  C   UNL     1      -0.821  11.142  19.125  0.00  0.00    +0.000 A 
ATOM      4  C   UNL     1       0.282  11.982  19.238  0.00  0.00    +0.000 A 
ATOM      5  N   UNL     1       1.338  11.118  19.205  0.00  0.00    +0.000 N 
ATOM      6  H   UNL     1       2.311  11.384  19.285  0.00  0.00    +0.000 HD
ENDROOT
BRANCH   1  10
ATOM      7  C   UNL     1       3.570   6.547  18.473  0.00  0.00    +0.000 A 
ATOM      8  C   UNL     1       2.793   6.635  19.632  0.00  0.00    +0.000 A 
ATOM      9  C   UNL     1       1.893   7.687  19.801  0.00  0.00    +0.000 A 
ATOM     10  C   UNL     1       1.789   8.699  18.844  0.00  0.00    +0.000 A 
ATOM     11  C   UNL     1       2.594   8.630  17.701  0.00  0.00    +0.000 A 
ATOM     12  C   UNL     1       3.481   7.566  17.518  0.00  0.00    +0.000 A 
BRANCH   7  14
ATOM     13  C   UNL     1       5.777   5.589  17.908  0.00  0.00    +0.000 C 
ATOM     14  C   UNL     1       4.492   5.426  18.265  0.00  0.00    +0.000 C 
BRANCH  13  15
ATOM     15  C   UNL     1       6.703   4.453  17.634  0.00  0.00    +0.000 C 
BRANCH  15  16
ATOM     16  O   UNL     1       7.451   4.741  16.458  0.00  0.00    +0.000 OA
BRANCH  16  18
ATOM     17  C   UNL     1       6.293   3.969  14.501  0.00  0.00    +0.000 C 
ATOM     18  C   UNL     1       6.582   5.151  15.403  0.00  0.00    +0.000 C 
ENDBRANCH  16  18
ENDBRANCH  15  16
ENDBRANCH  13  15
ENDBRANCH   7  14
ENDBRANCH   1  10
BRANCH   3  19
ATOM     19  C   UNL     1      -2.212  11.541  19.029  0.00  0.00    +0.000 A 
ATOM     20  C   UNL     1      -2.980  11.192  17.925  0.00  0.00    +0.000 A 
ATOM     21  C   UNL     1      -4.324  11.598  17.842  0.00  0.00    +0.000 A 
ATOM     22  C   UNL     1      -4.966  12.327  18.863  0.00  0.00    +0.000 A 
ATOM     23  C   UNL     1      -4.166  12.655  19.962  0.00  0.00    +0.000 A 
ATOM     24  C   UNL     1      -2.816  12.300  20.031  0.00  0.00    +0.000 A 
BRANCH  22  25
ATOM     25  N   UNL     1      -6.284  12.742  18.761  0.00  0.00    +0.000 N 
ATOM     26  C   UNL     1      -6.760  13.512  17.616  0.00  0.00    +0.000 C 
ATOM     27  C   UNL     1      -7.353  12.176  19.582  0.00  0.00    +0.000 C 
ENDBRANCH  22  25
ENDBRANCH   3  19
BRANCH   4  28
ATOM     28  C   UNL     1       0.446  13.428  19.371  0.00  0.00    +0.000 A 
ATOM     29  C   UNL     1       1.244  13.969  20.376  0.00  0.00    +0.000 A 
ATOM     30  C   UNL     1       1.330  15.350  20.568  0.00  0.00    +0.000 A 
ATOM     31  C   UNL     1       0.696  16.261  19.714  0.00  0.00    +0.000 A 
ATOM     32  C   UNL     1      -0.075  15.693  18.687  0.00  0.00    +0.000 A 
ATOM     33  C   UNL     1      -0.213  14.308  18.518  0.00  0.00    +0.000 A 
BRANCH  31  34
ATOM     34  N   UNL     1       0.808  17.625  19.902  0.00  0.00    +0.000 N 
ATOM     35  C   UNL     1      -0.260  18.542  19.509  0.00  0.00    +0.000 C 
ATOM     36  C   UNL     1       1.831  18.224  20.753  0.00  0.00    +0.000 C 
ENDBRANCH  31  34
ENDBRANCH   4  28
TORSDOF 9
ENDMDL
MODEL 7
REMARK VINA RESULT:      -7.4      8.159     11.617
REMARK  Name = 
REMARK  14 active torsions:
REMARK  status: ('A' for Active; 'I' for Inactive)
REMARK    1  A    between atoms: C_1  and  C_2
REMARK    2  A    between atoms: C_2  and  O_3
REMARK    3  A    between atoms: O_3  and  C_4
REMARK    4  A    between atoms: C_4  and  C_5
REMARK    5  A    between atoms: C_6  and  C_7
REMARK    6  A    between atoms: C_10  and  C_11
REMARK    7  A    between atoms: C_13  and  C_14
REMARK    8  A    between atoms: C_17  and  N_18
REMARK    9  A    between atoms: N_18  and  C_19
REMARK   10  A    between atoms: N_18  and  C_20
REMARK   11  A    between atoms: C_23  and  C_24
REMARK   12  A    between atoms: C_27  and  N_28
REMARK   13  A    between atoms: N_28  and  C_29
REMARK   14  A    between atoms: N_28  and  C_30
REMARK                            x       y       z     vdW  Elec       q    Type
REMARK                         _______ _______ _______ _____ _____    ______ ____
ROOT
ATOM      1  C   UNL     1       1.070  10.094  19.325  0.00  0.00    +0.000 A 
ATOM      2  N   UNL     1       1.409  11.300  18.920  0.00  0.00    +0.000 NA
ATOM      3  C   UNL     1       0.555  12.175  19.565  0.00  0.00    +0.000 A 
ATOM      4  C   UNL     1      -0.392  11.480  20.310  0.00  0.00    +0.000 A 
ATOM      5  N   UNL     1      -0.052  10.174  20.109  0.00  0.00    +0.000 N 
ATOM      6  H   UNL     1      -0.546   9.378  20.490  0.00  0.00    +0.000 HD
ENDROOT
BRANCH   1  10
ATOM      7  C   UNL     1       2.992   6.370  18.471  0.00  0.00    +0.000 A 
ATOM      8  C   UNL     1       2.933   7.373  17.498  0.00  0.00    +0.000 A 
ATOM      9  C   UNL     1       2.338   8.602  17.785  0.00  0.00    +0.000 A 
ATOM     10  C   UNL     1       1.743   8.834  19.029  0.00  0.00    +0.000 A 
ATOM     11  C   UNL     1       1.770   7.815  19.988  0.00  0.00    +0.000 A 
ATOM     12  C   UNL     1       2.385   6.592  19.711  0.00  0.00    +0.000 A 
BRANCH   7  14
ATOM     13  C   UNL     1       4.618   4.943  17.277  0.00  0.00    +0.000 C 
ATOM     14  C   UNL     1       3.648   5.089  18.194  0.00  0.00    +0.000 C 
BRANCH  13  15
ATOM     15  C   UNL     1       5.245   3.631  16.946  0.00  0.00    +0.000 C 
BRANCH  15  16
ATOM     16  O   UNL     1       5.636   3.637  15.579  0.00  0.00    +0.000 OA
BRANCH  16  18
ATOM     17  C   UNL     1       6.987   4.763  13.943  0.00  0.00    +0.000 C 
ATOM     18  C   UNL     1       6.194   4.903  15.226  0.00  0.00    +0.000 C 
ENDBRANCH  16  18
ENDBRANCH  15  16
ENDBRANCH  13  15
ENDBRANCH   7  14
ENDBRANCH   1  10
BRANCH   3  19
ATOM     19  C   UNL     1       0.712  13.614  19.482  0.00  0.00    +0.000 A 
ATOM     20  C   UNL     1       1.760  14.257  20.130  0.00  0.00    +0.000 A 
ATOM     21  C   UNL     1       1.889  15.655  20.050  0.00  0.00    +0.000 A 
ATOM     22  C   UNL     1       1.015  16.461  19.294  0.00  0.00    +0.000 A 
ATOM     23  C   UNL     1      -0.024  15.781  18.648  0.00  0.00    +0.000 A 
ATOM     24  C   UNL     1      -0.191  14.398  18.764  0.00  0.00    +0.000 A 
BRANCH  22  25
ATOM     25  N   UNL     1       1.137  17.840  19.239  0.00  0.00    +0.000 N 
ATOM     26  C   UNL     1       0.463  18.630  18.213  0.00  0.00    +0.000 C 
ATOM     27  C   UNL     1       1.647  18.630  20.359  0.00  0.00    +0.000 C 
ENDBRANCH  22  25
ENDBRANCH   3  19
BRANCH   4  28
ATOM     28  C   UNL     1      -1.523  11.885  21.141  0.00  0.00    +0.000 A 
ATOM     29  C   UNL     1      -2.672  12.430  20.571  0.00  0.00    +0.000 A 
ATOM     30  C   UNL     1      -3.718  12.906  21.365  0.00  0.00    +0.000 A 
ATOM     31  C   UNL     1      -3.710  12.784  22.760  0.00  0.00    +0.000 A 
ATOM     32  C   UNL     1      -2.557  12.201  23.309  0.00  0.00    +0.000 A 
ATOM     33  C   UNL     1      -1.477  11.768  22.527  0.00  0.00    +0.000 A 
BRANCH  31  34
ATOM     34  N   UNL     1      -4.762  13.240  23.531  0.00  0.00    +0.000 N 
ATOM     35  C   UNL     1      -5.411  12.383  24.522  0.00  0.00    +0.000 C 
ATOM     36  C   UNL     1      -5.108  14.652  23.639  0.00  0.00    +0.000 C 
ENDBRANCH  31  34
ENDBRANCH   4  28
TORSDOF 9
ENDMDL
MODEL 8
REMARK VINA RESULT:      -7.3      8.142     12.339
REMARK  Name = 
REMARK  14 active torsions:
REMARK  status: ('A' for Active; 'I' for Inactive)
REMARK    1  A    between atoms: C_1  and  C_2
REMARK    2  A    between atoms: C_2  and  O_3
REMARK    3  A    between atoms: O_3  and  C_4
REMARK    4  A    between atoms: C_4  and  C_5
REMARK    5  A    between atoms: C_6  and  C_7
REMARK    6  A    between atoms: C_10  and  C_11
REMARK    7  A    between atoms: C_13  and  C_14
REMARK    8  A    between atoms: C_17  and  N_18
REMARK    9  A    between atoms: N_18  and  C_19
REMARK   10  A    between atoms: N_18  and  C_20
REMARK   11  A    between atoms: C_23  and  C_24
REMARK   12  A    between atoms: C_27  and  N_28
REMARK   13  A    between atoms: N_28  and  C_29
REMARK   14  A    between atoms: N_28  and  C_30
REMARK                            x       y       z     vdW  Elec       q    Type
REMARK                         _______ _______ _______ _____ _____    ______ ____
ROOT
ATOM      1  C   UNL     1       0.961   9.927  19.776  0.00  0.00    +0.000 A 
ATOM      2  N   UNL     1      -0.094  10.015  20.560  0.00  0.00    +0.000 NA
ATOM      3  C   UNL     1      -0.416  11.357  20.619  0.00  0.00    +0.000 A 
ATOM      4  C   UNL     1       0.522  12.121  19.932  0.00  0.00    +0.000 A 
ATOM      5  N   UNL     1       1.387  11.186  19.440  0.00  0.00    +0.000 N 
ATOM      6  H   UNL     1       2.216  11.389  18.898  0.00  0.00    +0.000 HD
ENDROOT
BRANCH   1  10
ATOM      7  C   UNL     1       2.926   6.405  18.354  0.00  0.00    +0.000 A 
ATOM      8  C   UNL     1       2.516   6.494  19.688  0.00  0.00    +0.000 A 
ATOM      9  C   UNL     1       1.843   7.628  20.146  0.00  0.00    +0.000 A 
ATOM     10  C   UNL     1       1.615   8.714  19.297  0.00  0.00    +0.000 A 
ATOM     11  C   UNL     1       2.059   8.638  17.972  0.00  0.00    +0.000 A 
ATOM     12  C   UNL     1       2.714   7.496  17.505  0.00  0.00    +0.000 A 
BRANCH   7  14
ATOM     13  C   UNL     1       4.741   5.244  17.144  0.00  0.00    +0.000 C 
ATOM     14  C   UNL     1       3.600   5.204  17.851  0.00  0.00    +0.000 C 
BRANCH  13  15
ATOM     15  C   UNL     1       5.398   4.033  16.574  0.00  0.00    +0.000 C 
BRANCH  15  16
ATOM     16  O   UNL     1       6.771   4.318  16.340  0.00  0.00    +0.000 OA
BRANCH  16  18
ATOM     17  C   UNL     1       7.555   6.010  17.853  0.00  0.00    +0.000 C 
ATOM     18  C   UNL     1       7.455   4.525  17.575  0.00  0.00    +0.000 C 
ENDBRANCH  16  18
ENDBRANCH  15  16
ENDBRANCH  13  15
ENDBRANCH   7  14
ENDBRANCH   1  10
BRANCH   3  19
ATOM     19  C   UNL     1      -1.615  11.838  21.279  0.00  0.00    +0.000 A 
ATOM     20  C   UNL     1      -2.680  12.343  20.544  0.00  0.00    +0.000 A 
ATOM     21  C   UNL     1      -3.830  12.818  21.201  0.00  0.00    +0.000 A 
ATOM     22  C   UNL     1      -3.984  12.772  22.600  0.00  0.00    +0.000 A 
ATOM     23  C   UNL     1      -2.895  12.251  23.309  0.00  0.00    +0.000 A 
ATOM     24  C   UNL     1      -1.728  11.825  22.669  0.00  0.00    +0.000 A 
BRANCH  22  25
ATOM     25  N   UNL     1      -5.111  13.263  23.239  0.00  0.00    +0.000 N 
ATOM     26  C   UNL     1      -5.753  12.535  24.330  0.00  0.00    +0.000 C 
ATOM     27  C   UNL     1      -5.539  14.655  23.121  0.00  0.00    +0.000 C 
ENDBRANCH  22  25
ENDBRANCH   3  19
BRANCH   4  28
ATOM     28  C   UNL     1       0.689  13.554  19.700  0.00  0.00    +0.000 A 
ATOM     29  C   UNL     1       1.755  14.250  20.264  0.00  0.00    +0.000 A 
ATOM     30  C   UNL     1       1.870  15.636  20.126  0.00  0.00    +0.000 A 
ATOM     31  C   UNL     1       0.976  16.382  19.347  0.00  0.00    +0.000 A 
ATOM     32  C   UNL     1      -0.071  15.653  18.761  0.00  0.00    +0.000 A 
ATOM     33  C   UNL     1      -0.227  14.271  18.937  0.00  0.00    +0.000 A 
BRANCH  31  34
ATOM     34  N   UNL     1       1.114  17.749  19.201  0.00  0.00    +0.000 N 
ATOM     35  C   UNL     1       0.633  18.443  18.008  0.00  0.00    +0.000 C 
ATOM     36  C   UNL     1       1.463  18.631  20.309  0.00  0.00    +0.000 C 
ENDBRANCH  31  34
ENDBRANCH   4  28
TORSDOF 9
ENDMDL
MODEL 9
REMARK VINA RESULT:      -7.3      8.355     12.122
REMARK  Name = 
REMARK  14 active torsions:
REMARK  status: ('A' for Active; 'I' for Inactive)
REMARK    1  A    between atoms: C_1  and  C_2
REMARK    2  A    between atoms: C_2  and  O_3
REMARK    3  A    between atoms: O_3  and  C_4
REMARK    4  A    between atoms: C_4  and  C_5
REMARK    5  A    between atoms: C_6  and  C_7
REMARK    6  A    between atoms: C_10  and  C_11
REMARK    7  A    between atoms: C_13  and  C_14
REMARK    8  A    between atoms: C_17  and  N_18
REMARK    9  A    between atoms: N_18  and  C_19
REMARK   10  A    between atoms: N_18  and  C_20
REMARK   11  A    between atoms: C_23  and  C_24
REMARK   12  A    between atoms: C_27  and  N_28
REMARK   13  A    between atoms: N_28  and  C_29
REMARK   14  A    between atoms: N_28  and  C_30
REMARK                            x       y       z     vdW  Elec       q    Type
REMARK                         _______ _______ _______ _____ _____    ______ ____
ROOT
ATOM      1  C   UNL     1       0.909  10.094  19.286  0.00  0.00    +0.000 A 
ATOM      2  N   UNL     1       1.348  11.278  18.914  0.00  0.00    +0.000 NA
ATOM      3  C   UNL     1       0.432  12.195  19.391  0.00  0.00    +0.000 A 
ATOM      4  C   UNL     1      -0.646  11.550  19.989  0.00  0.00    +0.000 A 
ATOM      5  N   UNL     1      -0.321  10.229  19.877  0.00  0.00    +0.000 N 
ATOM      6  H   UNL     1      -0.897   9.460  20.192  0.00  0.00    +0.000 HD
ENDROOT
BRANCH   1  10
ATOM      7  C   UNL     1       2.923   6.350  18.825  0.00  0.00    +0.000 A 
ATOM      8  C   UNL     1       2.232   6.638  20.006  0.00  0.00    +0.000 A 
ATOM      9  C   UNL     1       1.544   7.844  20.145  0.00  0.00    +0.000 A 
ATOM     10  C   UNL     1       1.578   8.807  19.133  0.00  0.00    +0.000 A 
ATOM     11  C   UNL     1       2.302   8.532  17.966  0.00  0.00    +0.000 A 
ATOM     12  C   UNL     1       2.973   7.316  17.815  0.00  0.00    +0.000 A 
BRANCH   7  14
ATOM     13  C   UNL     1       3.386   4.244  17.617  0.00  0.00    +0.000 C 
ATOM     14  C   UNL     1       3.618   5.071  18.650  0.00  0.00    +0.000 C 
BRANCH  13  15
ATOM     15  C   UNL     1       4.042   2.913  17.467  0.00  0.00    +0.000 C 
BRANCH  15  16
ATOM     16  O   UNL     1       3.397   1.981  18.326  0.00  0.00    +0.000 OA
BRANCH  16  18
ATOM     17  C   UNL     1       1.379   2.155  19.616  0.00  0.00    +0.000 C 
ATOM     18  C   UNL     1       1.979   2.109  18.226  0.00  0.00    +0.000 C 
ENDBRANCH  16  18
ENDBRANCH  15  16
ENDBRANCH  13  15
ENDBRANCH   7  14
ENDBRANCH   1  10
BRANCH   3  19
ATOM     19  C   UNL     1       0.649  13.626  19.300  0.00  0.00    +0.000 A 
ATOM     20  C   UNL     1       1.814  14.204  19.790  0.00  0.00    +0.000 A 
ATOM     21  C   UNL     1       2.001  15.596  19.705  0.00  0.00    +0.000 A 
ATOM     22  C   UNL     1       1.065  16.457  19.099  0.00  0.00    +0.000 A 
ATOM     23  C   UNL     1      -0.092  15.841  18.611  0.00  0.00    +0.000 A 
ATOM     24  C   UNL     1      -0.311  14.466  18.736  0.00  0.00    +0.000 A 
BRANCH  22  25
ATOM     25  N   UNL     1       1.249  17.829  19.041  0.00  0.00    +0.000 N 
ATOM     26  C   UNL     1       0.808  18.615  17.892  0.00  0.00    +0.000 C 
ATOM     27  C   UNL     1       1.573  18.631  20.219  0.00  0.00    +0.000 C 
ENDBRANCH  22  25
ENDBRANCH   3  19
BRANCH   4  28
ATOM     28  C   UNL     1      -1.881  12.012  20.617  0.00  0.00    +0.000 A 
ATOM     29  C   UNL     1      -3.008  12.302  19.851  0.00  0.00    +0.000 A 
ATOM     30  C   UNL     1      -4.162  12.833  20.433  0.00  0.00    +0.000 A 
ATOM     31  C   UNL     1      -4.280  13.019  21.816  0.00  0.00    +0.000 A 
ATOM     32  C   UNL     1      -3.144  12.688  22.571  0.00  0.00    +0.000 A 
ATOM     33  C   UNL     1      -1.961  12.205  21.993  0.00  0.00    +0.000 A 
BRANCH  31  34
ATOM     34  N   UNL     1      -5.436  13.525  22.381  0.00  0.00    +0.000 N 
ATOM     35  C   UNL     1      -5.476  13.973  23.771  0.00  0.00    +0.000 C 
ATOM     36  C   UNL     1      -6.593  13.925  21.587  0.00  0.00    +0.000 C 
ENDBRANCH  31  34
ENDBRANCH   4  28
TORSDOF 9
ENDMDL
