MODEL 1
REMARK VINA RESULT:      -8.5      0.000      0.000
REMARK  Name = 
REMARK  5 active torsions:
REMARK  status: ('A' for Active; 'I' for Inactive)
REMARK    1  A    between atoms: C_1  and  C_2
REMARK    2  A    between atoms: N_7  and  C_8
REMARK    3  A    between atoms: C_13  and  N_14
REMARK    4  A    between atoms: C_15  and  C_17
REMARK    5  A    between atoms: C_17  and  C_18
REMARK                            x       y       z     vdW  Elec       q    Type
REMARK                         _______ _______ _______ _____ _____    ______ ____
ROOT
ATOM      1  C   UNL     1       5.620   4.834  16.600  0.00  0.00    +0.000 A 
ATOM      2  C   UNL     1       4.953   4.258  15.492  0.00  0.00    +0.000 A 
ATOM      3  C   UNL     1       5.533   4.156  14.219  0.00  0.00    +0.000 A 
ATOM      4  C   UNL     1       6.825   4.605  14.013  0.00  0.00    +0.000 A 
ATOM      5  C   UNL     1       7.535   5.151  15.079  0.00  0.00    +0.000 A 
ATOM      6  C   UNL     1       6.944   5.290  16.350  0.00  0.00    +0.000 A 
ENDROOT
BRANCH   1  13
ATOM      7  C   UNL     1       2.150   3.230  21.827  0.00  0.00    +0.000 C 
ATOM      8  C   UNL     1       1.841   4.101  20.634  0.00  0.00    +0.000 C 
ATOM      9  O   UNL     1       0.746   4.654  20.532  0.00  0.00    +0.000 OA
ATOM     10  N   UNL     1       2.874   4.308  19.729  0.00  0.00    +0.000 N 
ATOM     11  C   UNL     1       2.648   5.239  18.621  0.00  0.00    +0.000 C 
ATOM     12  C   UNL     1       3.963   5.901  18.170  0.00  0.00    +0.000 C 
ATOM     13  N   UNL     1       4.986   4.884  17.837  0.00  0.00    +0.000 N 
ATOM     14  C   UNL     1       5.209   3.879  18.892  0.00  0.00    +0.000 C 
ATOM     15  C   UNL     1       3.903   3.303  19.465  0.00  0.00    +0.000 C 
ENDBRANCH   1  13
BRANCH   6  16
ATOM     16  N   UNL     1       7.666   6.031  17.321  0.00  0.00    +0.000 N 
ATOM     17  C   UNL     1       7.517   7.405  17.486  0.00  0.00    +0.000 C 
ATOM     18  O   UNL     1       6.803   8.113  16.779  0.00  0.00    +0.000 OA
ATOM     19  H   UNL     1       8.523   5.599  17.639  0.00  0.00    +0.000 HD
BRANCH  17  20
ATOM     20  C   UNL     1       8.316   7.982  18.649  0.00  0.00    +0.000 C 
BRANCH  20  21
ATOM     21  C   UNL     1       8.704   9.453  18.596  0.00  0.00    +0.000 A 
ATOM     22  C   UNL     1       8.236  10.341  17.618  0.00  0.00    +0.000 A 
ATOM     23  C   UNL     1       8.545  11.707  17.684  0.00  0.00    +0.000 A 
ATOM     24  C   UNL     1       9.310  12.207  18.736  0.00  0.00    +0.000 A 
ATOM     25 CL   UNL     1       9.677  13.886  18.819  0.00  0.00    +0.000 Cl
ATOM     26  C   UNL     1       9.764  11.352  19.728  0.00  0.00    +0.000 A 
ATOM     27  C   UNL     1       9.458   9.984  19.661  0.00  0.00    +0.000 A 
ENDBRANCH  20  21
ENDBRANCH  17  20
ENDBRANCH   6  16
TORSDOF 4
ENDMDL
MODEL 2
REMARK VINA RESULT:      -8.2      3.867      7.006
REMARK  Name = 
REMARK  5 active torsions:
REMARK  status: ('A' for Active; 'I' for Inactive)
REMARK    1  A    between atoms: C_1  and  C_2
REMARK    2  A    between atoms: N_7  and  C_8
REMARK    3  A    between atoms: C_13  and  N_14
REMARK    4  A    between atoms: C_15  and  C_17
REMARK    5  A    between atoms: C_17  and  C_18
REMARK                            x       y       z     vdW  Elec       q    Type
REMARK                         _______ _______ _______ _____ _____    ______ ____
ROOT
ATOM      1  C   UNL     1       3.192   3.414  18.378  0.00  0.00    +0.000 A 
ATOM      2  C   UNL     1       3.057   2.006  18.459  0.00  0.00    +0.000 A 
ATOM      3  C   UNL     1       1.828   1.368  18.678  0.00  0.00    +0.000 A 
ATOM      4  C   UNL     1       0.673   2.120  18.796  0.00  0.00    +0.000 A 
ATOM      5  C   UNL     1       0.748   3.507  18.692  0.00  0.00    +0.000 A 
ATOM      6  C   UNL     1       1.985   4.155  18.511  0.00  0.00    +0.000 A 
ENDROOT
BRANCH   1  13
ATOM      7  C   UNL     1       8.412   7.230  18.728  0.00  0.00    +0.000 C 
ATOM      8  C   UNL     1       7.268   7.167  17.746  0.00  0.00    +0.000 C 
ATOM      9  O   UNL     1       7.215   7.948  16.798  0.00  0.00    +0.000 OA
ATOM     10  N   UNL     1       6.352   6.138  17.923  0.00  0.00    +0.000 N 
ATOM     11  C   UNL     1       5.293   5.974  16.924  0.00  0.00    +0.000 C 
ATOM     12  C   UNL     1       4.845   4.505  16.820  0.00  0.00    +0.000 C 
ATOM     13  N   UNL     1       4.444   3.974  18.142  0.00  0.00    +0.000 N 
ATOM     14  C   UNL     1       5.445   4.170  19.205  0.00  0.00    +0.000 C 
ATOM     15  C   UNL     1       6.019   5.596  19.240  0.00  0.00    +0.000 C 
ENDBRANCH   1  13
BRANCH   6  16
ATOM     16  N   UNL     1       1.994   5.570  18.611  0.00  0.00    +0.000 N 
ATOM     17  C   UNL     1       2.066   6.238  19.829  0.00  0.00    +0.000 C 
ATOM     18  O   UNL     1       2.067   5.682  20.925  0.00  0.00    +0.000 OA
ATOM     19  H   UNL     1       1.603   6.058  17.817  0.00  0.00    +0.000 HD
BRANCH  17  20
ATOM     20  C   UNL     1       2.159   7.755  19.702  0.00  0.00    +0.000 C 
BRANCH  20  21
ATOM     21  C   UNL     1       1.219   8.608  20.543  0.00  0.00    +0.000 A 
ATOM     22  C   UNL     1       1.213   8.599  21.943  0.00  0.00    +0.000 A 
ATOM     23  C   UNL     1       0.397   9.485  22.662  0.00  0.00    +0.000 A 
ATOM     24  C   UNL     1      -0.411  10.401  21.991  0.00  0.00    +0.000 A 
ATOM     25 CL   UNL     1      -1.402  11.493  22.877  0.00  0.00    +0.000 Cl
ATOM     26  C   UNL     1      -0.404  10.445  20.606  0.00  0.00    +0.000 A 
ATOM     27  C   UNL     1       0.411   9.557  19.886  0.00  0.00    +0.000 A 
ENDBRANCH  20  21
ENDBRANCH  17  20
ENDBRANCH   6  16
TORSDOF 4
ENDMDL
MODEL 3
REMARK VINA RESULT:      -8.1      3.776      6.818
REMARK  Name = 
REMARK  5 active torsions:
REMARK  status: ('A' for Active; 'I' for Inactive)
REMARK    1  A    between atoms: C_1  and  C_2
REMARK    2  A    between atoms: N_7  and  C_8
REMARK    3  A    between atoms: C_13  and  N_14
REMARK    4  A    between atoms: C_15  and  C_17
REMARK    5  A    between atoms: C_17  and  C_18
REMARK                            x       y       z     vdW  Elec       q    Type
REMARK                         _______ _______ _______ _____ _____    ______ ____
ROOT
ATOM      1  C   UNL     1       3.352   3.462  18.327  0.00  0.00    +0.000 A 
ATOM      2  C   UNL     1       3.200   2.094  18.660  0.00  0.00    +0.000 A 
ATOM      3  C   UNL     1       1.948   1.480  18.814  0.00  0.00    +0.000 A 
ATOM      4  C   UNL     1       0.792   2.213  18.610  0.00  0.00    +0.000 A 
ATOM      5  C   UNL     1       0.890   3.554  18.249  0.00  0.00    +0.000 A 
ATOM      6  C   UNL     1       2.143   4.185  18.131  0.00  0.00    +0.000 A 
ENDROOT
BRANCH   1  13
ATOM      7  C   UNL     1       8.555   7.278  18.887  0.00  0.00    +0.000 C 
ATOM      8  C   UNL     1       7.517   7.134  17.801  0.00  0.00    +0.000 C 
ATOM      9  O   UNL     1       7.571   7.831  16.789  0.00  0.00    +0.000 OA
ATOM     10  N   UNL     1       6.575   6.127  17.970  0.00  0.00    +0.000 N 
ATOM     11  C   UNL     1       5.622   5.880  16.884  0.00  0.00    +0.000 C 
ATOM     12  C   UNL     1       5.170   4.410  16.860  0.00  0.00    +0.000 C 
ATOM     13  N   UNL     1       4.629   3.996  18.174  0.00  0.00    +0.000 N 
ATOM     14  C   UNL     1       5.518   4.279  19.314  0.00  0.00    +0.000 C 
ATOM     15  C   UNL     1       6.102   5.702  19.287  0.00  0.00    +0.000 C 
ENDBRANCH   1  13
BRANCH   6  16
ATOM     16  N   UNL     1       2.145   5.593  17.953  0.00  0.00    +0.000 N 
ATOM     17  C   UNL     1       2.371   6.484  18.997  0.00  0.00    +0.000 C 
ATOM     18  O   UNL     1       2.529   6.151  20.169  0.00  0.00    +0.000 OA
ATOM     19  H   UNL     1       1.643   5.922  17.140  0.00  0.00    +0.000 HD
BRANCH  17  20
ATOM     20  C   UNL     1       2.423   7.946  18.567  0.00  0.00    +0.000 C 
BRANCH  20  21
ATOM     21  C   UNL     1       1.306   8.872  19.026  0.00  0.00    +0.000 A 
ATOM     22  C   UNL     1       1.075   9.197  20.369  0.00  0.00    +0.000 A 
ATOM     23  C   UNL     1       0.097  10.138  20.721  0.00  0.00    +0.000 A 
ATOM     24  C   UNL     1      -0.650  10.781  19.736  0.00  0.00    +0.000 A 
ATOM     25 CL   UNL     1      -1.840  11.944  20.171  0.00  0.00    +0.000 Cl
ATOM     26  C   UNL     1      -0.422  10.494  18.399  0.00  0.00    +0.000 A 
ATOM     27  C   UNL     1       0.554   9.550  18.046  0.00  0.00    +0.000 A 
ENDBRANCH  20  21
ENDBRANCH  17  20
ENDBRANCH   6  16
TORSDOF 4
ENDMDL
MODEL 4
REMARK VINA RESULT:      -7.7      4.302      6.761
REMARK  Name = 
REMARK  5 active torsions:
REMARK  status: ('A' for Active; 'I' for Inactive)
REMARK    1  A    between atoms: C_1  and  C_2
REMARK    2  A    between atoms: N_7  and  C_8
REMARK    3  A    between atoms: C_13  and  N_14
REMARK    4  A    between atoms: C_15  and  C_17
REMARK    5  A    between atoms: C_17  and  C_18
REMARK                            x       y       z     vdW  Elec       q    Type
REMARK                         _______ _______ _______ _____ _____    ______ ____
ROOT
ATOM      1  C   UNL     1       2.140   5.569  19.847  0.00  0.00    +0.000 A 
ATOM      2  C   UNL     1       1.158   4.850  20.570  0.00  0.00    +0.000 A 
ATOM      3  C   UNL     1       1.080   3.450  20.567  0.00  0.00    +0.000 A 
ATOM      4  C   UNL     1       2.009   2.710  19.857  0.00  0.00    +0.000 A 
ATOM      5  C   UNL     1       3.014   3.370  19.155  0.00  0.00    +0.000 A 
ATOM      6  C   UNL     1       3.074   4.777  19.123  0.00  0.00    +0.000 A 
ENDROOT
BRANCH   1  13
ATOM      7  C   UNL     1       0.413  11.734  20.825  0.00  0.00    +0.000 C 
ATOM      8  C   UNL     1       0.530  10.901  19.572  0.00  0.00    +0.000 C 
ATOM      9  O   UNL     1       0.263  11.386  18.473  0.00  0.00    +0.000 OA
ATOM     10  N   UNL     1       1.033   9.616  19.722  0.00  0.00    +0.000 N 
ATOM     11  C   UNL     1       1.270   8.818  18.516  0.00  0.00    +0.000 C 
ATOM     12  C   UNL     1       2.414   7.811  18.728  0.00  0.00    +0.000 C 
ATOM     13  N   UNL     1       2.164   6.959  19.912  0.00  0.00    +0.000 N 
ATOM     14  C   UNL     1       1.855   7.707  21.144  0.00  0.00    +0.000 C 
ATOM     15  C   UNL     1       0.816   8.821  20.931  0.00  0.00    +0.000 C 
ENDBRANCH   1  13
BRANCH   6  16
ATOM     16  N   UNL     1       4.007   5.365  18.230  0.00  0.00    +0.000 N 
ATOM     17  C   UNL     1       5.383   5.294  18.424  0.00  0.00    +0.000 C 
ATOM     18  O   UNL     1       5.918   4.778  19.401  0.00  0.00    +0.000 OA
ATOM     19  H   UNL     1       3.640   6.113  17.659  0.00  0.00    +0.000 HD
BRANCH  17  20
ATOM     20  C   UNL     1       6.202   5.910  17.294  0.00  0.00    +0.000 C 
BRANCH  20  21
ATOM     21  C   UNL     1       6.286   5.158  15.973  0.00  0.00    +0.000 A 
ATOM     22  C   UNL     1       5.266   4.331  15.488  0.00  0.00    +0.000 A 
ATOM     23  C   UNL     1       5.358   3.749  14.216  0.00  0.00    +0.000 A 
ATOM     24  C   UNL     1       6.462   4.000  13.404  0.00  0.00    +0.000 A 
ATOM     25 CL   UNL     1       6.567   3.294  11.839  0.00  0.00    +0.000 Cl
ATOM     26  C   UNL     1       7.474   4.836  13.853  0.00  0.00    +0.000 A 
ATOM     27  C   UNL     1       7.383   5.416  15.127  0.00  0.00    +0.000 A 
ENDBRANCH  20  21
ENDBRANCH  17  20
ENDBRANCH   6  16
TORSDOF 4
ENDMDL
MODEL 5
REMARK VINA RESULT:      -7.6      3.058      5.035
REMARK  Name = 
REMARK  5 active torsions:
REMARK  status: ('A' for Active; 'I' for Inactive)
REMARK    1  A    between atoms: C_1  and  C_2
REMARK    2  A    between atoms: N_7  and  C_8
REMARK    3  A    between atoms: C_13  and  N_14
REMARK    4  A    between atoms: C_15  and  C_17
REMARK    5  A    between atoms: C_17  and  C_18
REMARK                            x       y       z     vdW  Elec       q    Type
REMARK                         _______ _______ _______ _____ _____    ______ ____
ROOT
ATOM      1  C   UNL     1       2.079   4.748  19.308  0.00  0.00    +0.000 A 
ATOM      2  C   UNL     1       0.939   4.123  19.870  0.00  0.00    +0.000 A 
ATOM      3  C   UNL     1       0.684   2.749  19.750  0.00  0.00    +0.000 A 
ATOM      4  C   UNL     1       1.583   1.938  19.080  0.00  0.00    +0.000 A 
ATOM      5  C   UNL     1       2.735   2.500  18.537  0.00  0.00    +0.000 A 
ATOM      6  C   UNL     1       2.977   3.885  18.622  0.00  0.00    +0.000 A 
ENDROOT
BRANCH   1  13
ATOM      7  C   UNL     1       1.085  10.997  20.688  0.00  0.00    +0.000 C 
ATOM      8  C   UNL     1       1.168  10.249  19.379  0.00  0.00    +0.000 C 
ATOM      9  O   UNL     1       1.027  10.843  18.311  0.00  0.00    +0.000 OA
ATOM     10  N   UNL     1       1.496   8.902  19.452  0.00  0.00    +0.000 N 
ATOM     11  C   UNL     1       1.700   8.170  18.199  0.00  0.00    +0.000 C 
ATOM     12  C   UNL     1       2.695   7.010  18.384  0.00  0.00    +0.000 C 
ATOM     13  N   UNL     1       2.273   6.115  19.484  0.00  0.00    +0.000 N 
ATOM     14  C   UNL     1       1.990   6.805  20.755  0.00  0.00    +0.000 C 
ATOM     15  C   UNL     1       1.113   8.056  20.582  0.00  0.00    +0.000 C 
ENDBRANCH   1  13
BRANCH   6  16
ATOM     16  N   UNL     1       4.070   4.397  17.875  0.00  0.00    +0.000 N 
ATOM     17  C   UNL     1       5.389   4.298  18.306  0.00  0.00    +0.000 C 
ATOM     18  O   UNL     1       5.731   3.821  19.385  0.00  0.00    +0.000 OA
ATOM     19  H   UNL     1       3.833   5.124  17.214  0.00  0.00    +0.000 HD
BRANCH  17  20
ATOM     20  C   UNL     1       6.410   4.830  17.306  0.00  0.00    +0.000 C 
BRANCH  20  21
ATOM     21  C   UNL     1       7.146   6.119  17.645  0.00  0.00    +0.000 A 
ATOM     22  C   UNL     1       6.969   7.316  16.940  0.00  0.00    +0.000 A 
ATOM     23  C   UNL     1       7.595   8.498  17.365  0.00  0.00    +0.000 A 
ATOM     24  C   UNL     1       8.390   8.501  18.509  0.00  0.00    +0.000 A 
ATOM     25 CL   UNL     1       9.147   9.954  19.034  0.00  0.00    +0.000 Cl
ATOM     26  C   UNL     1       8.560   7.333  19.237  0.00  0.00    +0.000 A 
ATOM     27  C   UNL     1       7.936   6.151  18.811  0.00  0.00    +0.000 A 
ENDBRANCH  20  21
ENDBRANCH  17  20
ENDBRANCH   6  16
TORSDOF 4
ENDMDL
MODEL 6
REMARK VINA RESULT:      -7.6      6.845      9.550
REMARK  Name = 
REMARK  5 active torsions:
REMARK  status: ('A' for Active; 'I' for Inactive)
REMARK    1  A    between atoms: C_1  and  C_2
REMARK    2  A    between atoms: N_7  and  C_8
REMARK    3  A    between atoms: C_13  and  N_14
REMARK    4  A    between atoms: C_15  and  C_17
REMARK    5  A    between atoms: C_17  and  C_18
REMARK                            x       y       z     vdW  Elec       q    Type
REMARK                         _______ _______ _______ _____ _____    ______ ____
ROOT
ATOM      1  C   UNL     1      -1.731  11.798  18.644  0.00  0.00    +0.000 A 
ATOM      2  C   UNL     1      -3.121  12.058  18.723  0.00  0.00    +0.000 A 
ATOM      3  C   UNL     1      -4.091  11.197  18.190  0.00  0.00    +0.000 A 
ATOM      4  C   UNL     1      -3.704  10.018  17.578  0.00  0.00    +0.000 A 
ATOM      5  C   UNL     1      -2.350   9.701  17.504  0.00  0.00    +0.000 A 
ATOM      6  C   UNL     1      -1.370  10.581  18.003  0.00  0.00    +0.000 A 
ENDROOT
BRANCH   1  13
ATOM      7  C   UNL     1       3.657  15.156  19.921  0.00  0.00    +0.000 C 
ATOM      8  C   UNL     1       2.997  13.994  20.623  0.00  0.00    +0.000 C 
ATOM      9  O   UNL     1       3.499  13.510  21.637  0.00  0.00    +0.000 OA
ATOM     10  N   UNL     1       1.772  13.576  20.120  0.00  0.00    +0.000 N 
ATOM     11  C   UNL     1       1.046  12.528  20.842  0.00  0.00    +0.000 C 
ATOM     12  C   UNL     1      -0.474  12.666  20.648  0.00  0.00    +0.000 C 
ATOM     13  N   UNL     1      -0.829  12.692  19.212  0.00  0.00    +0.000 N 
ATOM     14  C   UNL     1      -0.082  13.685  18.420  0.00  0.00    +0.000 C 
ATOM     15  C   UNL     1       1.430  13.669  18.701  0.00  0.00    +0.000 C 
ENDBRANCH   1  13
BRANCH   6  16
ATOM     16  N   UNL     1      -0.015  10.273  17.712  0.00  0.00    +0.000 N 
ATOM     17  C   UNL     1       0.827   9.643  18.623  0.00  0.00    +0.000 C 
ATOM     18  O   UNL     1       0.508   9.350  19.772  0.00  0.00    +0.000 OA
ATOM     19  H   UNL     1       0.400  10.826  16.975  0.00  0.00    +0.000 HD
BRANCH  17  20
ATOM     20  C   UNL     1       2.211   9.322  18.070  0.00  0.00    +0.000 C 
BRANCH  20  21
ATOM     21  C   UNL     1       2.745   7.906  18.242  0.00  0.00    +0.000 A 
ATOM     22  C   UNL     1       2.232   6.995  19.173  0.00  0.00    +0.000 A 
ATOM     23  C   UNL     1       2.695   5.672  19.212  0.00  0.00    +0.000 A 
ATOM     24  C   UNL     1       3.662   5.237  18.309  0.00  0.00    +0.000 A 
ATOM     25 CL   UNL     1       4.219   3.610  18.352  0.00  0.00    +0.000 Cl
ATOM     26  C   UNL     1       4.168   6.114  17.361  0.00  0.00    +0.000 A 
ATOM     27  C   UNL     1       3.707   7.439  17.324  0.00  0.00    +0.000 A 
ENDBRANCH  20  21
ENDBRANCH  17  20
ENDBRANCH   6  16
TORSDOF 4
ENDMDL
MODEL 7
REMARK VINA RESULT:      -7.6      1.125      1.183
REMARK  Name = 
REMARK  5 active torsions:
REMARK  status: ('A' for Active; 'I' for Inactive)
REMARK    1  A    between atoms: C_1  and  C_2
REMARK    2  A    between atoms: N_7  and  C_8
REMARK    3  A    between atoms: C_13  and  N_14
REMARK    4  A    between atoms: C_15  and  C_17
REMARK    5  A    between atoms: C_17  and  C_18
REMARK                            x       y       z     vdW  Elec       q    Type
REMARK                         _______ _______ _______ _____ _____    ______ ____
ROOT
ATOM      1  C   UNL     1       5.591   5.006  16.542  0.00  0.00    +0.000 A 
ATOM      2  C   UNL     1       5.531   3.822  15.768  0.00  0.00    +0.000 A 
ATOM      3  C   UNL     1       6.255   3.648  14.580  0.00  0.00    +0.000 A 
ATOM      4  C   UNL     1       7.096   4.652  14.133  0.00  0.00    +0.000 A 
ATOM      5  C   UNL     1       7.214   5.824  14.876  0.00  0.00    +0.000 A 
ATOM      6  C   UNL     1       6.461   6.018  16.050  0.00  0.00    +0.000 A 
ENDROOT
BRANCH   1  13
ATOM      7  C   UNL     1       2.218   3.458  21.850  0.00  0.00    +0.000 C 
ATOM      8  C   UNL     1       1.796   3.978  20.497  0.00  0.00    +0.000 C 
ATOM      9  O   UNL     1       0.608   4.173  20.246  0.00  0.00    +0.000 OA
ATOM     10  N   UNL     1       2.813   4.300  19.608  0.00  0.00    +0.000 N 
ATOM     11  C   UNL     1       2.448   4.915  18.330  0.00  0.00    +0.000 C 
ATOM     12  C   UNL     1       3.572   5.827  17.807  0.00  0.00    +0.000 C 
ATOM     13  N   UNL     1       4.856   5.097  17.721  0.00  0.00    +0.000 N 
ATOM     14  C   UNL     1       5.244   4.403  18.961  0.00  0.00    +0.000 C 
ATOM     15  C   UNL     1       4.095   3.596  19.587  0.00  0.00    +0.000 C 
ENDBRANCH   1  13
BRANCH   6  16
ATOM     16  N   UNL     1       6.495   7.311  16.634  0.00  0.00    +0.000 N 
ATOM     17  C   UNL     1       7.465   7.697  17.553  0.00  0.00    +0.000 C 
ATOM     18  O   UNL     1       8.339   6.953  17.991  0.00  0.00    +0.000 OA
ATOM     19  H   UNL     1       5.614   7.807  16.627  0.00  0.00    +0.000 HD
BRANCH  17  20
ATOM     20  C   UNL     1       7.370   9.158  17.980  0.00  0.00    +0.000 C 
BRANCH  20  21
ATOM     21  C   UNL     1       8.656   9.884  18.355  0.00  0.00    +0.000 A 
ATOM     22  C   UNL     1       9.440  10.591  17.435  0.00  0.00    +0.000 A 
ATOM     23  C   UNL     1      10.556  11.327  17.861  0.00  0.00    +0.000 A 
ATOM     24  C   UNL     1      10.891  11.380  19.212  0.00  0.00    +0.000 A 
ATOM     25 CL   UNL     1      12.253  12.293  19.732  0.00  0.00    +0.000 Cl
ATOM     26  C   UNL     1      10.115  10.708  20.144  0.00  0.00    +0.000 A 
ATOM     27  C   UNL     1       9.000   9.969  19.718  0.00  0.00    +0.000 A 
ENDBRANCH  20  21
ENDBRANCH  17  20
ENDBRANCH   6  16
TORSDOF 4
ENDMDL
MODEL 8
REMARK VINA RESULT:      -7.6      4.311      6.801
REMARK  Name = 
REMARK  5 active torsions:
REMARK  status: ('A' for Active; 'I' for Inactive)
REMARK    1  A    between atoms: C_1  and  C_2
REMARK    2  A    between atoms: N_7  and  C_8
REMARK    3  A    between atoms: C_13  and  N_14
REMARK    4  A    between atoms: C_15  and  C_17
REMARK    5  A    between atoms: C_17  and  C_18
REMARK                            x       y       z     vdW  Elec       q    Type
REMARK                         _______ _______ _______ _____ _____    ______ ____
ROOT
ATOM      1  C   UNL     1       3.690   3.461  19.792  0.00  0.00    +0.000 A 
ATOM      2  C   UNL     1       3.512   2.285  20.561  0.00  0.00    +0.000 A 
ATOM      3  C   UNL     1       2.639   2.214  21.656  0.00  0.00    +0.000 A 
ATOM      4  C   UNL     1       1.884   3.319  22.008  0.00  0.00    +0.000 A 
ATOM      5  C   UNL     1       2.000   4.490  21.263  0.00  0.00    +0.000 A 
ATOM      6  C   UNL     1       2.904   4.578  20.186  0.00  0.00    +0.000 A 
ENDROOT
BRANCH   1  13
ATOM      7  C   UNL     1       7.350   5.347  14.793  0.00  0.00    +0.000 C 
ATOM      8  C   UNL     1       6.012   4.653  14.863  0.00  0.00    +0.000 C 
ATOM      9  O   UNL     1       5.411   4.349  13.834  0.00  0.00    +0.000 OA
ATOM     10  N   UNL     1       5.556   4.306  16.128  0.00  0.00    +0.000 N 
ATOM     11  C   UNL     1       4.318   3.529  16.230  0.00  0.00    +0.000 C 
ATOM     12  C   UNL     1       4.314   2.645  17.490  0.00  0.00    +0.000 C 
ATOM     13  N   UNL     1       4.563   3.449  18.707  0.00  0.00    +0.000 N 
ATOM     14  C   UNL     1       5.763   4.302  18.638  0.00  0.00    +0.000 C 
ATOM     15  C   UNL     1       5.868   5.091  17.322  0.00  0.00    +0.000 C 
ENDBRANCH   1  13
BRANCH   6  16
ATOM     16  N   UNL     1       3.099   5.860  19.610  0.00  0.00    +0.000 N 
ATOM     17  C   UNL     1       2.505   6.247  18.413  0.00  0.00    +0.000 C 
ATOM     18  O   UNL     1       1.813   5.511  17.714  0.00  0.00    +0.000 OA
ATOM     19  H   UNL     1       3.938   6.339  19.907  0.00  0.00    +0.000 HD
BRANCH  17  20
ATOM     20  C   UNL     1       2.774   7.697  18.026  0.00  0.00    +0.000 C 
BRANCH  20  21
ATOM     21  C   UNL     1       1.908   8.782  18.653  0.00  0.00    +0.000 A 
ATOM     22  C   UNL     1       1.420   9.886  17.943  0.00  0.00    +0.000 A 
ATOM     23  C   UNL     1       0.541  10.796  18.549  0.00  0.00    +0.000 A 
ATOM     24  C   UNL     1       0.124  10.603  19.865  0.00  0.00    +0.000 A 
ATOM     25 CL   UNL     1      -0.963  11.715  20.601  0.00  0.00    +0.000 Cl
ATOM     26  C   UNL     1       0.575   9.504  20.579  0.00  0.00    +0.000 A 
ATOM     27  C   UNL     1       1.457   8.595  19.974  0.00  0.00    +0.000 A 
ENDBRANCH  20  21
ENDBRANCH  17  20
ENDBRANCH   6  16
TORSDOF 4
ENDMDL
MODEL 9
REMARK VINA RESULT:      -7.5      6.476      9.867
REMARK  Name = 
REMARK  5 active torsions:
REMARK  status: ('A' for Active; 'I' for Inactive)
REMARK    1  A    between atoms: C_1  and  C_2
REMARK    2  A    between atoms: N_7  and  C_8
REMARK    3  A    between atoms: C_13  and  N_14
REMARK    4  A    between atoms: C_15  and  C_17
REMARK    5  A    between atoms: C_17  and  C_18
REMARK                            x       y       z     vdW  Elec       q    Type
REMARK                         _______ _______ _______ _____ _____    ______ ____
ROOT
ATOM      1  C   UNL     1       0.273  11.710  18.840  0.00  0.00    +0.000 A 
ATOM      2  C   UNL     1      -0.719  12.572  18.314  0.00  0.00    +0.000 A 
ATOM      3  C   UNL     1      -1.994  12.129  17.935  0.00  0.00    +0.000 A 
ATOM      4  C   UNL     1      -2.336  10.797  18.096  0.00  0.00    +0.000 A 
ATOM      5  C   UNL     1      -1.406   9.915  18.639  0.00  0.00    +0.000 A 
ATOM      6  C   UNL     1      -0.111  10.348  18.985  0.00  0.00    +0.000 A 
ENDROOT
BRANCH   1  13
ATOM      7  C   UNL     1       4.879  15.581  21.236  0.00  0.00    +0.000 C 
ATOM      8  C   UNL     1       4.414  15.312  19.825  0.00  0.00    +0.000 C 
ATOM      9  O   UNL     1       4.937  15.892  18.875  0.00  0.00    +0.000 OA
ATOM     10  N   UNL     1       3.447  14.328  19.665  0.00  0.00    +0.000 N 
ATOM     11  C   UNL     1       3.055  13.958  18.302  0.00  0.00    +0.000 C 
ATOM     12  C   UNL     1       2.590  12.492  18.233  0.00  0.00    +0.000 C 
ATOM     13  N   UNL     1       1.511  12.227  19.210  0.00  0.00    +0.000 N 
ATOM     14  C   UNL     1       1.825  12.640  20.589  0.00  0.00    +0.000 C 
ATOM     15  C   UNL     1       2.427  14.052  20.676  0.00  0.00    +0.000 C 
ENDBRANCH   1  13
BRANCH   6  16
ATOM     16  N   UNL     1       0.830   9.349  19.345  0.00  0.00    +0.000 N 
ATOM     17  C   UNL     1       1.740   8.811  18.440  0.00  0.00    +0.000 C 
ATOM     18  O   UNL     1       1.780   9.096  17.246  0.00  0.00    +0.000 OA
ATOM     19  H   UNL     1       0.588   8.807  20.163  0.00  0.00    +0.000 HD
BRANCH  17  20
ATOM     20  C   UNL     1       2.721   7.821  19.060  0.00  0.00    +0.000 C 
BRANCH  20  21
ATOM     21  C   UNL     1       2.324   6.352  19.116  0.00  0.00    +0.000 A 
ATOM     22  C   UNL     1       1.882   5.716  20.283  0.00  0.00    +0.000 A 
ATOM     23  C   UNL     1       1.430   4.389  20.248  0.00  0.00    +0.000 A 
ATOM     24  C   UNL     1       1.397   3.687  19.045  0.00  0.00    +0.000 A 
ATOM     25 CL   UNL     1       0.831   2.063  19.004  0.00  0.00    +0.000 Cl
ATOM     26  C   UNL     1       1.806   4.304  17.872  0.00  0.00    +0.000 A 
ATOM     27  C   UNL     1       2.261   5.631  17.907  0.00  0.00    +0.000 A 
ENDBRANCH  20  21
ENDBRANCH  17  20
ENDBRANCH   6  16
TORSDOF 4
ENDMDL
