MODEL 1
REMARK VINA RESULT:      -7.2      0.000      0.000
REMARK  Name = 
REMARK  10 active torsions:
REMARK  status: ('A' for Active; 'I' for Inactive)
REMARK    1  A    between atoms: C_1  and  O_2
REMARK    2  A    between atoms: O_2  and  C_3
REMARK    3  A    between atoms: C_6  and  C_7
REMARK    4  A    between atoms: N_9  and  C_10
REMARK    5  A    between atoms: C_10  and  C_11
REMARK    6  A    between atoms: C_10  and  C_21
REMARK    7  A    between atoms: C_11  and  C_13
REMARK    8  A    between atoms: C_16  and  C_17
REMARK    9  A    between atoms: C_21  and  C_22
REMARK   10  A    between atoms: C_21  and  C_23
REMARK                            x       y       z     vdW  Elec       q    Type
REMARK                         _______ _______ _______ _____ _____    ______ ____
ROOT
ATOM      1  C   UNL     1       2.654   4.550  18.895  0.00  0.00    +0.000 C 
ENDROOT
BRANCH   1   4
ATOM      2  C   UNL     1       2.113   6.987  18.990  0.00  0.00    +0.000 C 
ATOM      3  O   UNL     1       2.476   7.193  17.837  0.00  0.00    +0.000 OA
ATOM      4  N   UNL     1       2.167   5.746  19.591  0.00  0.00    +0.000 N 
ATOM      5  H   UNL     1       2.015   5.662  20.590  0.00  0.00    +0.000 HD
BRANCH   2   9
ATOM      6  C   UNL     1       0.696  10.174  21.493  0.00  0.00    +0.000 A 
ATOM      7  C   UNL     1       0.814  10.370  20.114  0.00  0.00    +0.000 A 
ATOM      8  C   UNL     1       1.277   9.344  19.285  0.00  0.00    +0.000 A 
ATOM      9  C   UNL     1       1.640   8.113  19.840  0.00  0.00    +0.000 A 
ATOM     10  C   UNL     1       1.577   7.936  21.228  0.00  0.00    +0.000 A 
ATOM     11  C   UNL     1       1.100   8.962  22.053  0.00  0.00    +0.000 A 
BRANCH   6  13
ATOM     12  C   UNL     1      -0.958  11.006  22.963  0.00  0.00    +0.000 C 
ATOM     13  O   UNL     1       0.213  11.246  22.191  0.00  0.00    +0.000 OA
ENDBRANCH   6  13
ENDBRANCH   2   9
ENDBRANCH   1   4
BRANCH   1  14
ATOM     14  C   UNL     1       2.110   3.279  19.597  0.00  0.00    +0.000 C 
ATOM     15  C   UNL     1       1.273   3.639  20.831  0.00  0.00    +0.000 C 
ATOM     16  C   UNL     1       1.258   2.417  18.658  0.00  0.00    +0.000 C 
ENDBRANCH   1  14
BRANCH   1  17
ATOM     17  C   UNL     1       4.190   4.603  18.967  0.00  0.00    +0.000 C 
ATOM     18  O   UNL     1       4.802   4.511  20.032  0.00  0.00    +0.000 OA
BRANCH  17  19
ATOM     19  C   UNL     1       4.974   4.858  17.726  0.00  0.00    +0.000 A 
ATOM     20  C   UNL     1       5.973   5.834  17.679  0.00  0.00    +0.000 A 
ATOM     21  C   UNL     1       6.763   5.980  16.534  0.00  0.00    +0.000 A 
ATOM     22  C   UNL     1       6.555   5.157  15.423  0.00  0.00    +0.000 A 
ATOM     23  C   UNL     1       5.543   4.192  15.460  0.00  0.00    +0.000 A 
ATOM     24  C   UNL     1       4.760   4.038  16.611  0.00  0.00    +0.000 A 
BRANCH  22  25
ATOM     25  C   UNL     1       7.389   5.291  14.264  0.00  0.00    +0.000 C 
ATOM     26  N   UNL     1       8.072   5.394  13.331  0.00  0.00    +0.000 NA
ENDBRANCH  22  25
ENDBRANCH  17  19
ENDBRANCH   1  17
TORSDOF 7
ENDMDL
MODEL 2
REMARK VINA RESULT:      -7.1      0.621      1.485
REMARK  Name = 
REMARK  10 active torsions:
REMARK  status: ('A' for Active; 'I' for Inactive)
REMARK    1  A    between atoms: C_1  and  O_2
REMARK    2  A    between atoms: O_2  and  C_3
REMARK    3  A    between atoms: C_6  and  C_7
REMARK    4  A    between atoms: N_9  and  C_10
REMARK    5  A    between atoms: C_10  and  C_11
REMARK    6  A    between atoms: C_10  and  C_21
REMARK    7  A    between atoms: C_11  and  C_13
REMARK    8  A    between atoms: C_16  and  C_17
REMARK    9  A    between atoms: C_21  and  C_22
REMARK   10  A    between atoms: C_21  and  C_23
REMARK                            x       y       z     vdW  Elec       q    Type
REMARK                         _______ _______ _______ _____ _____    ______ ____
ROOT
ATOM      1  C   UNL     1       2.935   4.632  18.880  0.00  0.00    +0.000 C 
ENDROOT
BRANCH   1   4
ATOM      2  C   UNL     1       2.264   7.037  18.947  0.00  0.00    +0.000 C 
ATOM      3  O   UNL     1       2.646   7.258  17.803  0.00  0.00    +0.000 OA
ATOM      4  N   UNL     1       2.368   5.803  19.556  0.00  0.00    +0.000 N 
ATOM      5  H   UNL     1       2.194   5.715  20.551  0.00  0.00    +0.000 HD
BRANCH   2   9
ATOM      6  C   UNL     1       0.715  10.281  21.294  0.00  0.00    +0.000 A 
ATOM      7  C   UNL     1       1.059   9.077  21.911  0.00  0.00    +0.000 A 
ATOM      8  C   UNL     1       1.561   8.009  21.162  0.00  0.00    +0.000 A 
ATOM      9  C   UNL     1       1.709   8.140  19.778  0.00  0.00    +0.000 A 
ATOM     10  C   UNL     1       1.309   9.326  19.151  0.00  0.00    +0.000 A 
ATOM     11  C   UNL     1       0.819  10.399  19.907  0.00  0.00    +0.000 A 
BRANCH   6  13
ATOM     12  C   UNL     1      -0.208  12.447  21.512  0.00  0.00    +0.000 C 
ATOM     13  O   UNL     1       0.254  11.254  22.137  0.00  0.00    +0.000 OA
ENDBRANCH   6  13
ENDBRANCH   2   9
ENDBRANCH   1   4
BRANCH   1  14
ATOM     14  C   UNL     1       2.517   3.341  19.629  0.00  0.00    +0.000 C 
ATOM     15  C   UNL     1       1.075   3.438  20.143  0.00  0.00    +0.000 C 
ATOM     16  C   UNL     1       2.643   2.092  18.749  0.00  0.00    +0.000 C 
ENDBRANCH   1  14
BRANCH   1  17
ATOM     17  C   UNL     1       4.463   4.814  18.909  0.00  0.00    +0.000 C 
ATOM     18  O   UNL     1       5.081   5.024  19.954  0.00  0.00    +0.000 OA
BRANCH  17  19
ATOM     19  C   UNL     1       5.226   4.823  17.630  0.00  0.00    +0.000 A 
ATOM     20  C   UNL     1       4.708   4.254  16.463  0.00  0.00    +0.000 A 
ATOM     21  C   UNL     1       5.400   4.369  15.254  0.00  0.00    +0.000 A 
ATOM     22  C   UNL     1       6.623   5.046  15.202  0.00  0.00    +0.000 A 
ATOM     23  C   UNL     1       7.154   5.600  16.371  0.00  0.00    +0.000 A 
ATOM     24  C   UNL     1       6.455   5.495  17.580  0.00  0.00    +0.000 A 
BRANCH  22  25
ATOM     25  C   UNL     1       7.312   5.187  13.952  0.00  0.00    +0.000 C 
ATOM     26  N   UNL     1       7.876   5.294  12.944  0.00  0.00    +0.000 NA
ENDBRANCH  22  25
ENDBRANCH  17  19
ENDBRANCH   1  17
TORSDOF 7
ENDMDL
MODEL 3
REMARK VINA RESULT:      -7.1      0.929      1.035
REMARK  Name = 
REMARK  10 active torsions:
REMARK  status: ('A' for Active; 'I' for Inactive)
REMARK    1  A    between atoms: C_1  and  O_2
REMARK    2  A    between atoms: O_2  and  C_3
REMARK    3  A    between atoms: C_6  and  C_7
REMARK    4  A    between atoms: N_9  and  C_10
REMARK    5  A    between atoms: C_10  and  C_11
REMARK    6  A    between atoms: C_10  and  C_21
REMARK    7  A    between atoms: C_11  and  C_13
REMARK    8  A    between atoms: C_16  and  C_17
REMARK    9  A    between atoms: C_21  and  C_22
REMARK   10  A    between atoms: C_21  and  C_23
REMARK                            x       y       z     vdW  Elec       q    Type
REMARK                         _______ _______ _______ _____ _____    ______ ____
ROOT
ATOM      1  C   UNL     1       3.488   4.672  19.356  0.00  0.00    +0.000 C 
ENDROOT
BRANCH   1   4
ATOM      2  C   UNL     1       2.264   6.843  19.189  0.00  0.00    +0.000 C 
ATOM      3  O   UNL     1       2.167   6.785  17.968  0.00  0.00    +0.000 OA
ATOM      4  N   UNL     1       2.890   5.874  19.946  0.00  0.00    +0.000 N 
ATOM      5  H   UNL     1       3.090   6.049  20.925  0.00  0.00    +0.000 HD
BRANCH   2   9
ATOM      6  C   UNL     1       0.720  10.202  21.371  0.00  0.00    +0.000 A 
ATOM      7  C   UNL     1       0.891  10.289  19.988  0.00  0.00    +0.000 A 
ATOM      8  C   UNL     1       1.396   9.206  19.262  0.00  0.00    +0.000 A 
ATOM      9  C   UNL     1       1.747   8.027  19.927  0.00  0.00    +0.000 A 
ATOM     10  C   UNL     1       1.631   7.961  21.321  0.00  0.00    +0.000 A 
ATOM     11  C   UNL     1       1.112   9.043  22.043  0.00  0.00    +0.000 A 
BRANCH   6  13
ATOM     12  C   UNL     1      -0.939  11.110  22.790  0.00  0.00    +0.000 C 
ATOM     13  O   UNL     1       0.200  11.320  21.963  0.00  0.00    +0.000 OA
ENDBRANCH   6  13
ENDBRANCH   2   9
ENDBRANCH   1   4
BRANCH   1  14
ATOM     14  C   UNL     1       3.473   3.518  20.391  0.00  0.00    +0.000 C 
ATOM     15  C   UNL     1       2.046   3.214  20.866  0.00  0.00    +0.000 C 
ATOM     16  C   UNL     1       4.092   2.231  19.834  0.00  0.00    +0.000 C 
ENDBRANCH   1  14
BRANCH   1  17
ATOM     17  C   UNL     1       4.931   5.049  18.975  0.00  0.00    +0.000 C 
ATOM     18  O   UNL     1       5.729   5.509  19.794  0.00  0.00    +0.000 OA
BRANCH  17  19
ATOM     19  C   UNL     1       5.368   4.941  17.555  0.00  0.00    +0.000 A 
ATOM     20  C   UNL     1       6.630   5.373  17.142  0.00  0.00    +0.000 A 
ATOM     21  C   UNL     1       7.052   5.164  15.825  0.00  0.00    +0.000 A 
ATOM     22  C   UNL     1       6.211   4.528  14.907  0.00  0.00    +0.000 A 
ATOM     23  C   UNL     1       4.939   4.110  15.312  0.00  0.00    +0.000 A 
ATOM     24  C   UNL     1       4.521   4.310  16.634  0.00  0.00    +0.000 A 
BRANCH  22  25
ATOM     25  C   UNL     1       6.662   4.288  13.567  0.00  0.00    +0.000 C 
ATOM     26  N   UNL     1       7.030   4.103  12.482  0.00  0.00    +0.000 NA
ENDBRANCH  22  25
ENDBRANCH  17  19
ENDBRANCH   1  17
TORSDOF 7
ENDMDL
MODEL 4
REMARK VINA RESULT:      -7.1      0.924      1.198
REMARK  Name = 
REMARK  10 active torsions:
REMARK  status: ('A' for Active; 'I' for Inactive)
REMARK    1  A    between atoms: C_1  and  O_2
REMARK    2  A    between atoms: O_2  and  C_3
REMARK    3  A    between atoms: C_6  and  C_7
REMARK    4  A    between atoms: N_9  and  C_10
REMARK    5  A    between atoms: C_10  and  C_11
REMARK    6  A    between atoms: C_10  and  C_21
REMARK    7  A    between atoms: C_11  and  C_13
REMARK    8  A    between atoms: C_16  and  C_17
REMARK    9  A    between atoms: C_21  and  C_22
REMARK   10  A    between atoms: C_21  and  C_23
REMARK                            x       y       z     vdW  Elec       q    Type
REMARK                         _______ _______ _______ _____ _____    ______ ____
ROOT
ATOM      1  C   UNL     1       2.566   5.038  18.803  0.00  0.00    +0.000 C 
ENDROOT
BRANCH   1   4
ATOM      2  C   UNL     1       1.897   7.437  18.993  0.00  0.00    +0.000 C 
ATOM      3  O   UNL     1       2.168   7.687  17.823  0.00  0.00    +0.000 OA
ATOM      4  N   UNL     1       2.061   6.189  19.558  0.00  0.00    +0.000 N 
ATOM      5  H   UNL     1       1.982   6.076  20.563  0.00  0.00    +0.000 HD
BRANCH   2   9
ATOM      6  C   UNL     1       0.472  10.487  21.656  0.00  0.00    +0.000 A 
ATOM      7  C   UNL     1       0.555  10.742  20.285  0.00  0.00    +0.000 A 
ATOM      8  C   UNL     1       1.020   9.761  19.404  0.00  0.00    +0.000 A 
ATOM      9  C   UNL     1       1.420   8.517  19.899  0.00  0.00    +0.000 A 
ATOM     10  C   UNL     1       1.393   8.281  21.279  0.00  0.00    +0.000 A 
ATOM     11  C   UNL     1       0.914   9.261  22.157  0.00  0.00    +0.000 A 
BRANCH   6  13
ATOM     12  C   UNL     1      -1.307  11.315  22.974  0.00  0.00    +0.000 C 
ATOM     13  O   UNL     1      -0.016  11.518  22.409  0.00  0.00    +0.000 OA
ENDBRANCH   6  13
ENDBRANCH   2   9
ENDBRANCH   1   4
BRANCH   1  14
ATOM     14  C   UNL     1       2.246   3.729  19.570  0.00  0.00    +0.000 C 
ATOM     15  C   UNL     1       1.787   4.020  21.004  0.00  0.00    +0.000 C 
ATOM     16  C   UNL     1       1.169   2.893  18.868  0.00  0.00    +0.000 C 
ENDBRANCH   1  14
BRANCH   1  17
ATOM     17  C   UNL     1       4.085   5.240  18.670  0.00  0.00    +0.000 C 
ATOM     18  O   UNL     1       4.769   5.706  19.583  0.00  0.00    +0.000 OA
BRANCH  17  19
ATOM     19  C   UNL     1       4.755   4.945  17.372  0.00  0.00    +0.000 A 
ATOM     20  C   UNL     1       5.093   3.641  17.002  0.00  0.00    +0.000 A 
ATOM     21  C   UNL     1       5.625   3.382  15.735  0.00  0.00    +0.000 A 
ATOM     22  C   UNL     1       5.832   4.427  14.830  0.00  0.00    +0.000 A 
ATOM     23  C   UNL     1       5.513   5.737  15.204  0.00  0.00    +0.000 A 
ATOM     24  C   UNL     1       4.969   5.994  16.469  0.00  0.00    +0.000 A 
BRANCH  22  25
ATOM     25  C   UNL     1       6.348   4.151  13.521  0.00  0.00    +0.000 C 
ATOM     26  N   UNL     1       6.775   3.924  12.465  0.00  0.00    +0.000 NA
ENDBRANCH  22  25
ENDBRANCH  17  19
ENDBRANCH   1  17
TORSDOF 7
ENDMDL
MODEL 5
REMARK VINA RESULT:      -7.1      2.438      8.364
REMARK  Name = 
REMARK  10 active torsions:
REMARK  status: ('A' for Active; 'I' for Inactive)
REMARK    1  A    between atoms: C_1  and  O_2
REMARK    2  A    between atoms: O_2  and  C_3
REMARK    3  A    between atoms: C_6  and  C_7
REMARK    4  A    between atoms: N_9  and  C_10
REMARK    5  A    between atoms: C_10  and  C_11
REMARK    6  A    between atoms: C_10  and  C_21
REMARK    7  A    between atoms: C_11  and  C_13
REMARK    8  A    between atoms: C_16  and  C_17
REMARK    9  A    between atoms: C_21  and  C_22
REMARK   10  A    between atoms: C_21  and  C_23
REMARK                            x       y       z     vdW  Elec       q    Type
REMARK                         _______ _______ _______ _____ _____    ______ ____
ROOT
ATOM      1  C   UNL     1       2.942   6.459  19.130  0.00  0.00    +0.000 C 
ENDROOT
BRANCH   1   4
ATOM      2  C   UNL     1       4.947   5.557  17.945  0.00  0.00    +0.000 C 
ATOM      3  O   UNL     1       5.641   5.551  18.956  0.00  0.00    +0.000 OA
ATOM      4  N   UNL     1       3.635   5.983  17.928  0.00  0.00    +0.000 N 
ATOM      5  H   UNL     1       3.162   6.126  17.043  0.00  0.00    +0.000 HD
BRANCH   2   9
ATOM      6  C   UNL     1       6.661   4.463  14.163  0.00  0.00    +0.000 A 
ATOM      7  C   UNL     1       5.350   4.090  14.469  0.00  0.00    +0.000 A 
ATOM      8  C   UNL     1       4.777   4.435  15.697  0.00  0.00    +0.000 A 
ATOM      9  C   UNL     1       5.526   5.148  16.636  0.00  0.00    +0.000 A 
ATOM     10  C   UNL     1       6.860   5.472  16.354  0.00  0.00    +0.000 A 
ATOM     11  C   UNL     1       7.425   5.136  15.118  0.00  0.00    +0.000 A 
BRANCH   6  13
ATOM     12  C   UNL     1       6.195   3.287  12.167  0.00  0.00    +0.000 C 
ATOM     13  O   UNL     1       7.098   4.084  12.925  0.00  0.00    +0.000 OA
ENDBRANCH   6  13
ENDBRANCH   2   9
ENDBRANCH   1   4
BRANCH   1  14
ATOM     14  C   UNL     1       1.878   5.419  19.566  0.00  0.00    +0.000 C 
ATOM     15  C   UNL     1       1.601   4.404  18.450  0.00  0.00    +0.000 C 
ATOM     16  C   UNL     1       2.293   4.659  20.831  0.00  0.00    +0.000 C 
ENDBRANCH   1  14
BRANCH   1  17
ATOM     17  C   UNL     1       2.281   7.795  18.748  0.00  0.00    +0.000 C 
ATOM     18  O   UNL     1       2.463   8.330  17.653  0.00  0.00    +0.000 OA
BRANCH  17  19
ATOM     19  C   UNL     1       1.458   8.521  19.755  0.00  0.00    +0.000 A 
ATOM     20  C   UNL     1       1.536   8.222  21.118  0.00  0.00    +0.000 A 
ATOM     21  C   UNL     1       0.830   8.990  22.050  0.00  0.00    +0.000 A 
ATOM     22  C   UNL     1       0.033  10.057  21.627  0.00  0.00    +0.000 A 
ATOM     23  C   UNL     1      -0.063  10.347  20.262  0.00  0.00    +0.000 A 
ATOM     24  C   UNL     1       0.653   9.586  19.329  0.00  0.00    +0.000 A 
BRANCH  22  25
ATOM     25  C   UNL     1      -0.663  10.859  22.591  0.00  0.00    +0.000 C 
ATOM     26  N   UNL     1      -1.227  11.500  23.377  0.00  0.00    +0.000 NA
ENDBRANCH  22  25
ENDBRANCH  17  19
ENDBRANCH   1  17
TORSDOF 7
ENDMDL
MODEL 6
REMARK VINA RESULT:      -7.0      0.598      1.279
REMARK  Name = 
REMARK  10 active torsions:
REMARK  status: ('A' for Active; 'I' for Inactive)
REMARK    1  A    between atoms: C_1  and  O_2
REMARK    2  A    between atoms: O_2  and  C_3
REMARK    3  A    between atoms: C_6  and  C_7
REMARK    4  A    between atoms: N_9  and  C_10
REMARK    5  A    between atoms: C_10  and  C_11
REMARK    6  A    between atoms: C_10  and  C_21
REMARK    7  A    between atoms: C_11  and  C_13
REMARK    8  A    between atoms: C_16  and  C_17
REMARK    9  A    between atoms: C_21  and  C_22
REMARK   10  A    between atoms: C_21  and  C_23
REMARK                            x       y       z     vdW  Elec       q    Type
REMARK                         _______ _______ _______ _____ _____    ______ ____
ROOT
ATOM      1  C   UNL     1       2.519   4.473  18.203  0.00  0.00    +0.000 C 
ENDROOT
BRANCH   1   4
ATOM      2  C   UNL     1       2.295   6.928  18.603  0.00  0.00    +0.000 C 
ATOM      3  O   UNL     1       2.925   7.230  17.595  0.00  0.00    +0.000 OA
ATOM      4  N   UNL     1       2.053   5.624  18.983  0.00  0.00    +0.000 N 
ATOM      5  H   UNL     1       1.677   5.428  19.904  0.00  0.00    +0.000 HD
BRANCH   2   9
ATOM      6  C   UNL     1       0.815   9.920  21.302  0.00  0.00    +0.000 A 
ATOM      7  C   UNL     1       0.934  10.207  19.940  0.00  0.00    +0.000 A 
ATOM      8  C   UNL     1       1.417   9.246  19.048  0.00  0.00    +0.000 A 
ATOM      9  C   UNL     1       1.800   7.988  19.522  0.00  0.00    +0.000 A 
ATOM     10  C   UNL     1       1.737   7.720  20.895  0.00  0.00    +0.000 A 
ATOM     11  C   UNL     1       1.240   8.681  21.784  0.00  0.00    +0.000 A 
BRANCH   6  13
ATOM     12  C   UNL     1      -0.821  10.607  22.864  0.00  0.00    +0.000 C 
ATOM     13  O   UNL     1       0.312  10.935  22.067  0.00  0.00    +0.000 OA
ENDBRANCH   6  13
ENDBRANCH   2   9
ENDBRANCH   1   4
BRANCH   1  14
ATOM     14  C   UNL     1       1.785   3.191  18.674  0.00  0.00    +0.000 C 
ATOM     15  C   UNL     1       2.687   1.956  18.554  0.00  0.00    +0.000 C 
ATOM     16  C   UNL     1       1.294   3.302  20.123  0.00  0.00    +0.000 C 
ENDBRANCH   1  14
BRANCH   1  17
ATOM     17  C   UNL     1       4.033   4.363  18.455  0.00  0.00    +0.000 C 
ATOM     18  O   UNL     1       4.503   4.211  19.584  0.00  0.00    +0.000 OA
BRANCH  17  19
ATOM     19  C   UNL     1       4.980   4.529  17.317  0.00  0.00    +0.000 A 
ATOM     20  C   UNL     1       4.654   4.110  16.025  0.00  0.00    +0.000 A 
ATOM     21  C   UNL     1       5.519   4.372  14.958  0.00  0.00    +0.000 A 
ATOM     22  C   UNL     1       6.723   5.048  15.175  0.00  0.00    +0.000 A 
ATOM     23  C   UNL     1       7.063   5.453  16.471  0.00  0.00    +0.000 A 
ATOM     24  C   UNL     1       6.190   5.200  17.537  0.00  0.00    +0.000 A 
BRANCH  22  25
ATOM     25  C   UNL     1       7.591   5.342  14.072  0.00  0.00    +0.000 C 
ATOM     26  N   UNL     1       8.293   5.569  13.176  0.00  0.00    +0.000 NA
ENDBRANCH  22  25
ENDBRANCH  17  19
ENDBRANCH   1  17
TORSDOF 7
ENDMDL
MODEL 7
REMARK VINA RESULT:      -7.0      1.031      1.431
REMARK  Name = 
REMARK  10 active torsions:
REMARK  status: ('A' for Active; 'I' for Inactive)
REMARK    1  A    between atoms: C_1  and  O_2
REMARK    2  A    between atoms: O_2  and  C_3
REMARK    3  A    between atoms: C_6  and  C_7
REMARK    4  A    between atoms: N_9  and  C_10
REMARK    5  A    between atoms: C_10  and  C_11
REMARK    6  A    between atoms: C_10  and  C_21
REMARK    7  A    between atoms: C_11  and  C_13
REMARK    8  A    between atoms: C_16  and  C_17
REMARK    9  A    between atoms: C_21  and  C_22
REMARK   10  A    between atoms: C_21  and  C_23
REMARK                            x       y       z     vdW  Elec       q    Type
REMARK                         _______ _______ _______ _____ _____    ______ ____
ROOT
ATOM      1  C   UNL     1       3.449   4.581  19.350  0.00  0.00    +0.000 C 
ENDROOT
BRANCH   1   4
ATOM      2  C   UNL     1       2.320   6.798  19.134  0.00  0.00    +0.000 C 
ATOM      3  O   UNL     1       2.290   6.752  17.909  0.00  0.00    +0.000 OA
ATOM      4  N   UNL     1       2.864   5.801  19.917  0.00  0.00    +0.000 N 
ATOM      5  H   UNL     1       3.015   5.961  20.906  0.00  0.00    +0.000 HD
BRANCH   2   9
ATOM      6  C   UNL     1       0.790  10.198  21.262  0.00  0.00    +0.000 A 
ATOM      7  C   UNL     1       0.950  10.258  19.875  0.00  0.00    +0.000 A 
ATOM      8  C   UNL     1       1.450   9.161  19.167  0.00  0.00    +0.000 A 
ATOM      9  C   UNL     1       1.808   7.996  19.852  0.00  0.00    +0.000 A 
ATOM     10  C   UNL     1       1.703   7.957  21.249  0.00  0.00    +0.000 A 
ATOM     11  C   UNL     1       1.188   9.053  21.953  0.00  0.00    +0.000 A 
BRANCH   6  13
ATOM     12  C   UNL     1      -0.564  12.118  20.999  0.00  0.00    +0.000 C 
ATOM     13  O   UNL     1       0.274  11.328  21.835  0.00  0.00    +0.000 OA
ENDBRANCH   6  13
ENDBRANCH   2   9
ENDBRANCH   1   4
BRANCH   1  14
ATOM     14  C   UNL     1       3.393   3.439  20.397  0.00  0.00    +0.000 C 
ATOM     15  C   UNL     1       1.950   2.986  20.651  0.00  0.00    +0.000 C 
ATOM     16  C   UNL     1       4.224   2.222  19.974  0.00  0.00    +0.000 C 
ENDBRANCH   1  14
BRANCH   1  17
ATOM     17  C   UNL     1       4.905   4.925  18.990  0.00  0.00    +0.000 C 
ATOM     18  O   UNL     1       5.674   5.456  19.794  0.00  0.00    +0.000 OA
BRANCH  17  19
ATOM     19  C   UNL     1       5.393   4.693  17.602  0.00  0.00    +0.000 A 
ATOM     20  C   UNL     1       4.530   4.285  16.581  0.00  0.00    +0.000 A 
ATOM     21  C   UNL     1       4.995   4.175  15.266  0.00  0.00    +0.000 A 
ATOM     22  C   UNL     1       6.328   4.464  14.963  0.00  0.00    +0.000 A 
ATOM     23  C   UNL     1       7.200   4.855  15.985  0.00  0.00    +0.000 A 
ATOM     24  C   UNL     1       6.731   4.976  17.299  0.00  0.00    +0.000 A 
BRANCH  22  25
ATOM     25  C   UNL     1       6.790   4.380  13.607  0.00  0.00    +0.000 C 
ATOM     26  N   UNL     1       7.172   4.315  12.513  0.00  0.00    +0.000 NA
ENDBRANCH  22  25
ENDBRANCH  17  19
ENDBRANCH   1  17
TORSDOF 7
ENDMDL
MODEL 8
REMARK VINA RESULT:      -6.9      1.009      1.448
REMARK  Name = 
REMARK  10 active torsions:
REMARK  status: ('A' for Active; 'I' for Inactive)
REMARK    1  A    between atoms: C_1  and  O_2
REMARK    2  A    between atoms: O_2  and  C_3
REMARK    3  A    between atoms: C_6  and  C_7
REMARK    4  A    between atoms: N_9  and  C_10
REMARK    5  A    between atoms: C_10  and  C_11
REMARK    6  A    between atoms: C_10  and  C_21
REMARK    7  A    between atoms: C_11  and  C_13
REMARK    8  A    between atoms: C_16  and  C_17
REMARK    9  A    between atoms: C_21  and  C_22
REMARK   10  A    between atoms: C_21  and  C_23
REMARK                            x       y       z     vdW  Elec       q    Type
REMARK                         _______ _______ _______ _____ _____    ______ ____
ROOT
ATOM      1  C   UNL     1       3.038   4.065  18.377  0.00  0.00    +0.000 C 
ENDROOT
BRANCH   1   4
ATOM      2  C   UNL     1       2.571   6.516  18.472  0.00  0.00    +0.000 C 
ATOM      3  O   UNL     1       3.143   6.747  17.412  0.00  0.00    +0.000 OA
ATOM      4  N   UNL     1       2.474   5.255  19.022  0.00  0.00    +0.000 N 
ATOM      5  H   UNL     1       2.141   5.143  19.973  0.00  0.00    +0.000 HD
BRANCH   2   9
ATOM      6  C   UNL     1       0.837   9.670  20.813  0.00  0.00    +0.000 A 
ATOM      7  C   UNL     1       1.119   9.880  19.461  0.00  0.00    +0.000 A 
ATOM      8  C   UNL     1       1.687   8.865  18.685  0.00  0.00    +0.000 A 
ATOM      9  C   UNL     1       1.990   7.631  19.268  0.00  0.00    +0.000 A 
ATOM     10  C   UNL     1       1.761   7.440  20.637  0.00  0.00    +0.000 A 
ATOM     11  C   UNL     1       1.180   8.455  21.408  0.00  0.00    +0.000 A 
BRANCH   6  13
ATOM     12  C   UNL     1       0.627  12.019  20.970  0.00  0.00    +0.000 C 
ATOM     13  O   UNL     1       0.265  10.732  21.457  0.00  0.00    +0.000 OA
ENDBRANCH   6  13
ENDBRANCH   2   9
ENDBRANCH   1   4
BRANCH   1  14
ATOM     14  C   UNL     1       2.545   2.790  19.109  0.00  0.00    +0.000 C 
ATOM     15  C   UNL     1       1.027   2.620  18.974  0.00  0.00    +0.000 C 
ATOM     16  C   UNL     1       3.231   1.521  18.589  0.00  0.00    +0.000 C 
ENDBRANCH   1  14
BRANCH   1  17
ATOM     17  C   UNL     1       4.567   4.201  18.479  0.00  0.00    +0.000 C 
ATOM     18  O   UNL     1       5.155   4.226  19.562  0.00  0.00    +0.000 OA
BRANCH  17  19
ATOM     19  C   UNL     1       5.371   4.394  17.239  0.00  0.00    +0.000 A 
ATOM     20  C   UNL     1       4.892   4.003  15.987  0.00  0.00    +0.000 A 
ATOM     21  C   UNL     1       5.623   4.290  14.830  0.00  0.00    +0.000 A 
ATOM     22  C   UNL     1       6.845   4.965  14.917  0.00  0.00    +0.000 A 
ATOM     23  C   UNL     1       7.337   5.341  16.171  0.00  0.00    +0.000 A 
ATOM     24  C   UNL     1       6.599   5.063  17.328  0.00  0.00    +0.000 A 
BRANCH  22  25
ATOM     25  C   UNL     1       7.574   5.285  13.724  0.00  0.00    +0.000 C 
ATOM     26  N   UNL     1       8.163   5.534  12.755  0.00  0.00    +0.000 NA
ENDBRANCH  22  25
ENDBRANCH  17  19
ENDBRANCH   1  17
TORSDOF 7
ENDMDL
MODEL 9
REMARK VINA RESULT:      -6.9      0.791      1.250
REMARK  Name = 
REMARK  10 active torsions:
REMARK  status: ('A' for Active; 'I' for Inactive)
REMARK    1  A    between atoms: C_1  and  O_2
REMARK    2  A    between atoms: O_2  and  C_3
REMARK    3  A    between atoms: C_6  and  C_7
REMARK    4  A    between atoms: N_9  and  C_10
REMARK    5  A    between atoms: C_10  and  C_11
REMARK    6  A    between atoms: C_10  and  C_21
REMARK    7  A    between atoms: C_11  and  C_13
REMARK    8  A    between atoms: C_16  and  C_17
REMARK    9  A    between atoms: C_21  and  C_22
REMARK   10  A    between atoms: C_21  and  C_23
REMARK                            x       y       z     vdW  Elec       q    Type
REMARK                         _______ _______ _______ _____ _____    ______ ____
ROOT
ATOM      1  C   UNL     1       2.434   5.027  18.737  0.00  0.00    +0.000 C 
ENDROOT
BRANCH   1   4
ATOM      2  C   UNL     1       1.825   7.429  19.050  0.00  0.00    +0.000 C 
ATOM      3  O   UNL     1       2.150   7.742  17.910  0.00  0.00    +0.000 OA
ATOM      4  N   UNL     1       1.932   6.145  19.543  0.00  0.00    +0.000 N 
ATOM      5  H   UNL     1       1.809   5.973  20.534  0.00  0.00    +0.000 HD
BRANCH   2   9
ATOM      6  C   UNL     1       0.482  10.484  21.751  0.00  0.00    +0.000 A 
ATOM      7  C   UNL     1       0.815   9.218  22.240  0.00  0.00    +0.000 A 
ATOM      8  C   UNL     1       1.250   8.210  21.374  0.00  0.00    +0.000 A 
ATOM      9  C   UNL     1       1.342   8.465  20.003  0.00  0.00    +0.000 A 
ATOM     10  C   UNL     1       0.953   9.715  19.505  0.00  0.00    +0.000 A 
ATOM     11  C   UNL     1       0.530  10.726  20.378  0.00  0.00    +0.000 A 
BRANCH   6  13
ATOM     12  C   UNL     1      -0.849  12.367  22.271  0.00  0.00    +0.000 C 
ATOM     13  O   UNL     1       0.090  11.387  22.700  0.00  0.00    +0.000 OA
ENDBRANCH   6  13
ENDBRANCH   2   9
ENDBRANCH   1   4
BRANCH   1  14
ATOM     14  C   UNL     1       2.072   3.685  19.421  0.00  0.00    +0.000 C 
ATOM     15  C   UNL     1       1.279   3.914  20.714  0.00  0.00    +0.000 C 
ATOM     16  C   UNL     1       1.259   2.766  18.501  0.00  0.00    +0.000 C 
ENDBRANCH   1  14
BRANCH   1  17
ATOM     17  C   UNL     1       3.961   5.207  18.653  0.00  0.00    +0.000 C 
ATOM     18  O   UNL     1       4.645   5.493  19.637  0.00  0.00    +0.000 OA
BRANCH  17  19
ATOM     19  C   UNL     1       4.638   5.117  17.329  0.00  0.00    +0.000 A 
ATOM     20  C   UNL     1       4.911   6.256  16.567  0.00  0.00    +0.000 A 
ATOM     21  C   UNL     1       5.640   6.152  15.378  0.00  0.00    +0.000 A 
ATOM     22  C   UNL     1       6.096   4.906  14.937  0.00  0.00    +0.000 A 
ATOM     23  C   UNL     1       5.809   3.761  15.687  0.00  0.00    +0.000 A 
ATOM     24  C   UNL     1       5.088   3.867  16.884  0.00  0.00    +0.000 A 
BRANCH  22  25
ATOM     25  C   UNL     1       6.871   4.811  13.733  0.00  0.00    +0.000 C 
ATOM     26  N   UNL     1       7.491   4.740  12.755  0.00  0.00    +0.000 NA
ENDBRANCH  22  25
ENDBRANCH  17  19
ENDBRANCH   1  17
TORSDOF 7
ENDMDL
