MODEL 1
REMARK VINA RESULT:      -8.6      0.000      0.000
REMARK  Name = 
REMARK  8 active torsions:
REMARK  status: ('A' for Active; 'I' for Inactive)
REMARK    1  A    between atoms: C_1  and  C_2
REMARK    2  A    between atoms: C_2  and  S_3
REMARK    3  A    between atoms: S_3  and  N_6
REMARK    4  A    between atoms: N_6  and  C_7
REMARK    5  A    between atoms: C_13  and  N_14
REMARK    6  A    between atoms: N_17  and  C_18
REMARK    7  A    between atoms: C_26  and  C_27
REMARK    8  A    between atoms: C_26  and  C_28
REMARK                            x       y       z     vdW  Elec       q    Type
REMARK                         _______ _______ _______ _____ _____    ______ ____
ROOT
ATOM      1  C   UNL     1       4.742   5.321  17.346  0.00  0.00    +0.000 A 
ATOM      2  C   UNL     1       5.067   3.968  17.374  0.00  0.00    +0.000 A 
ATOM      3  C   UNL     1       4.415   3.119  18.266  0.00  0.00    +0.000 A 
ATOM      4  C   UNL     1       3.440   3.618  19.130  0.00  0.00    +0.000 A 
ATOM      5  C   UNL     1       3.122   4.981  19.133  0.00  0.00    +0.000 A 
ATOM      6  C   UNL     1       3.757   5.824  18.199  0.00  0.00    +0.000 A 
ATOM      7  C   UNL     1       2.047   5.501  20.051  0.00  0.00    +0.000 C 
ATOM      8  C   UNL     1       1.798   4.509  21.194  0.00  0.00    +0.000 C 
ATOM      9  C   UNL     1       1.676   3.075  20.659  0.00  0.00    +0.000 C 
ATOM     10  C   UNL     1       1.574   2.097  21.841  0.00  0.00    +0.000 C 
ATOM     11  C   UNL     1       0.446   2.863  19.761  0.00  0.00    +0.000 C 
ATOM     12  O   UNL     1       2.859   2.686  19.942  0.00  0.00    +0.000 OA
ENDROOT
BRANCH   7  13
ATOM     13  N   UNL     1       2.354   6.835  20.572  0.00  0.00    +0.000 N 
ATOM     14  C   UNL     1       1.301   7.651  20.925  0.00  0.00    +0.000 C 
ATOM     15  O   UNL     1       0.145   7.276  20.793  0.00  0.00    +0.000 OA
ATOM     16  N   UNL     1       1.705   8.892  21.372  0.00  0.00    +0.000 N 
ATOM     17  H   UNL     1       3.218   6.949  21.080  0.00  0.00    +0.000 HD
ATOM     18  H   UNL     1       2.645   9.171  21.131  0.00  0.00    +0.000 HD
BRANCH  16  19
ATOM     19  C   UNL     1       0.819   9.918  21.801  0.00  0.00    +0.000 A 
ATOM     20  C   UNL     1      -0.058   9.748  22.880  0.00  0.00    +0.000 A 
ATOM     21  C   UNL     1      -0.983  10.738  23.227  0.00  0.00    +0.000 A 
ATOM     22  C   UNL     1      -1.026  11.924  22.506  0.00  0.00    +0.000 A 
ATOM     23  C   UNL     1      -0.126  12.122  21.460  0.00  0.00    +0.000 A 
ATOM     24 CL   UNL     1      -0.188  13.594  20.567  0.00  0.00    +0.000 Cl
ATOM     25  C   UNL     1       0.803  11.135  21.112  0.00  0.00    +0.000 A 
ENDBRANCH  16  19
ENDBRANCH   7  13
BRANCH   1  26
ATOM     26  N   UNL     1       5.403   6.176  16.418  0.00  0.00    +0.000 N 
ATOM     27  H   UNL     1       5.108   6.073  15.445  0.00  0.00    +0.000 HD
BRANCH  26  28
ATOM     28  S   UNL     1       7.094   6.244  16.459  0.00  0.00    +0.000 S 
ATOM     29  O   UNL     1       7.398   7.617  16.792  0.00  0.00    +0.000 OA
ATOM     30  O   UNL     1       7.635   5.624  15.269  0.00  0.00    +0.000 OA
BRANCH  28  32
ATOM     31  C   UNL     1       7.828   6.084  19.092  0.00  0.00    +0.000 C 
ATOM     32  C   UNL     1       7.470   5.231  17.888  0.00  0.00    +0.000 C 
ENDBRANCH  28  32
ENDBRANCH  26  28
ENDBRANCH   1  26
TORSDOF 5
ENDMDL
MODEL 2
REMARK VINA RESULT:      -8.4      1.118      1.267
REMARK  Name = 
REMARK  8 active torsions:
REMARK  status: ('A' for Active; 'I' for Inactive)
REMARK    1  A    between atoms: C_1  and  C_2
REMARK    2  A    between atoms: C_2  and  S_3
REMARK    3  A    between atoms: S_3  and  N_6
REMARK    4  A    between atoms: N_6  and  C_7
REMARK    5  A    between atoms: C_13  and  N_14
REMARK    6  A    between atoms: N_17  and  C_18
REMARK    7  A    between atoms: C_26  and  C_27
REMARK    8  A    between atoms: C_26  and  C_28
REMARK                            x       y       z     vdW  Elec       q    Type
REMARK                         _______ _______ _______ _____ _____    ______ ____
ROOT
ATOM      1  C   UNL     1       5.000   5.932  17.930  0.00  0.00    +0.000 A 
ATOM      2  C   UNL     1       5.393   4.599  17.852  0.00  0.00    +0.000 A 
ATOM      3  C   UNL     1       4.705   3.632  18.582  0.00  0.00    +0.000 A 
ATOM      4  C   UNL     1       3.627   3.993  19.391  0.00  0.00    +0.000 A 
ATOM      5  C   UNL     1       3.237   5.332  19.502  0.00  0.00    +0.000 A 
ATOM      6  C   UNL     1       3.912   6.297  18.727  0.00  0.00    +0.000 A 
ATOM      7  C   UNL     1       2.054   5.704  20.357  0.00  0.00    +0.000 C 
ATOM      8  C   UNL     1       1.752   4.585  21.361  0.00  0.00    +0.000 C 
ATOM      9  C   UNL     1       1.757   3.212  20.672  0.00  0.00    +0.000 C 
ATOM     10  C   UNL     1       1.596   2.110  21.731  0.00  0.00    +0.000 C 
ATOM     11  C   UNL     1       0.632   3.045  19.639  0.00  0.00    +0.000 C 
ATOM     12  O   UNL     1       3.023   2.954  20.041  0.00  0.00    +0.000 OA
ENDROOT
BRANCH   7  13
ATOM     13  N   UNL     1       2.238   6.986  21.040  0.00  0.00    +0.000 N 
ATOM     14  C   UNL     1       1.150   7.825  21.149  0.00  0.00    +0.000 C 
ATOM     15  O   UNL     1       0.067   7.511  20.675  0.00  0.00    +0.000 OA
ATOM     16  N   UNL     1       1.445   9.015  21.780  0.00  0.00    +0.000 N 
ATOM     17  H   UNL     1       2.930   7.027  21.774  0.00  0.00    +0.000 HD
ATOM     18  H   UNL     1       2.422   9.266  21.830  0.00  0.00    +0.000 HD
BRANCH  16  19
ATOM     19  C   UNL     1       0.502  10.050  22.024  0.00  0.00    +0.000 A 
ATOM     20  C   UNL     1      -0.423   9.990  23.075  0.00  0.00    +0.000 A 
ATOM     21  C   UNL     1      -1.399  10.977  23.240  0.00  0.00    +0.000 A 
ATOM     22  C   UNL     1      -1.449  12.051  22.362  0.00  0.00    +0.000 A 
ATOM     23  C   UNL     1      -0.505  12.145  21.341  0.00  0.00    +0.000 A 
ATOM     24 CL   UNL     1      -0.574  13.478  20.253  0.00  0.00    +0.000 Cl
ATOM     25  C   UNL     1       0.477  11.160  21.174  0.00  0.00    +0.000 A 
ENDBRANCH  16  19
ENDBRANCH   7  13
BRANCH   1  26
ATOM     26  N   UNL     1       5.699   6.910  17.166  0.00  0.00    +0.000 N 
ATOM     27  H   UNL     1       5.509   6.895  16.162  0.00  0.00    +0.000 HD
BRANCH  26  28
ATOM     28  S   UNL     1       7.370   7.053  17.390  0.00  0.00    +0.000 S 
ATOM     29  O   UNL     1       7.949   6.559  16.162  0.00  0.00    +0.000 OA
ATOM     30  O   UNL     1       7.740   6.491  18.671  0.00  0.00    +0.000 OA
BRANCH  28  32
ATOM     31  C   UNL     1       8.602   9.242  18.480  0.00  0.00    +0.000 C 
ATOM     32  C   UNL     1       7.587   8.831  17.429  0.00  0.00    +0.000 C 
ENDBRANCH  28  32
ENDBRANCH  26  28
ENDBRANCH   1  26
TORSDOF 5
ENDMDL
MODEL 3
REMARK VINA RESULT:      -8.4      6.352     10.584
REMARK  Name = 
REMARK  8 active torsions:
REMARK  status: ('A' for Active; 'I' for Inactive)
REMARK    1  A    between atoms: C_1  and  C_2
REMARK    2  A    between atoms: C_2  and  S_3
REMARK    3  A    between atoms: S_3  and  N_6
REMARK    4  A    between atoms: N_6  and  C_7
REMARK    5  A    between atoms: C_13  and  N_14
REMARK    6  A    between atoms: N_17  and  C_18
REMARK    7  A    between atoms: C_26  and  C_27
REMARK    8  A    between atoms: C_26  and  C_28
REMARK                            x       y       z     vdW  Elec       q    Type
REMARK                         _______ _______ _______ _____ _____    ______ ____
ROOT
ATOM      1  C   UNL     1       8.608  12.005  22.514  0.00  0.00    +0.000 A 
ATOM      2  C   UNL     1       9.387  13.156  22.593  0.00  0.00    +0.000 A 
ATOM      3  C   UNL     1      10.138  13.559  21.492  0.00  0.00    +0.000 A 
ATOM      4  C   UNL     1      10.115  12.816  20.312  0.00  0.00    +0.000 A 
ATOM      5  C   UNL     1       9.360  11.641  20.225  0.00  0.00    +0.000 A 
ATOM      6  C   UNL     1       8.571  11.264  21.330  0.00  0.00    +0.000 A 
ATOM      7  C   UNL     1       9.323  10.863  18.936  0.00  0.00    +0.000 C 
ATOM      8  C   UNL     1      10.520  11.240  18.053  0.00  0.00    +0.000 C 
ATOM      9  C   UNL     1      10.694  12.764  17.986  0.00  0.00    +0.000 C 
ATOM     10  C   UNL     1      11.984  13.095  17.217  0.00  0.00    +0.000 C 
ATOM     11  C   UNL     1       9.528  13.481  17.288  0.00  0.00    +0.000 C 
ATOM     12  O   UNL     1      10.878  13.323  19.298  0.00  0.00    +0.000 OA
ENDROOT
BRANCH   7  13
ATOM     13  N   UNL     1       9.268   9.417  19.156  0.00  0.00    +0.000 N 
ATOM     14  C   UNL     1       8.337   8.688  18.448  0.00  0.00    +0.000 C 
ATOM     15  O   UNL     1       7.571   9.237  17.670  0.00  0.00    +0.000 OA
ATOM     16  N   UNL     1       8.353   7.344  18.758  0.00  0.00    +0.000 N 
ATOM     17  H   UNL     1      10.128   8.952  19.406  0.00  0.00    +0.000 HD
ATOM     18  H   UNL     1       8.803   7.089  19.626  0.00  0.00    +0.000 HD
BRANCH  16  19
ATOM     19  C   UNL     1       7.499   6.374  18.167  0.00  0.00    +0.000 A 
ATOM     20  C   UNL     1       7.372   6.231  16.779  0.00  0.00    +0.000 A 
ATOM     21  C   UNL     1       6.458   5.332  16.222  0.00  0.00    +0.000 A 
ATOM     22  C   UNL     1       5.671   4.546  17.052  0.00  0.00    +0.000 A 
ATOM     23  C   UNL     1       5.822   4.645  18.434  0.00  0.00    +0.000 A 
ATOM     24 CL   UNL     1       4.840   3.670  19.458  0.00  0.00    +0.000 Cl
ATOM     25  C   UNL     1       6.738   5.543  18.996  0.00  0.00    +0.000 A 
ENDBRANCH  16  19
ENDBRANCH   7  13
BRANCH   1  26
ATOM     26  N   UNL     1       7.830  11.612  23.640  0.00  0.00    +0.000 N 
ATOM     27  H   UNL     1       7.699  10.603  23.747  0.00  0.00    +0.000 HD
BRANCH  26  28
ATOM     28  S   UNL     1       6.339  12.373  23.886  0.00  0.00    +0.000 S 
ATOM     29  O   UNL     1       5.478  11.334  24.404  0.00  0.00    +0.000 OA
ATOM     30  O   UNL     1       5.976  13.126  22.705  0.00  0.00    +0.000 OA
BRANCH  28  32
ATOM     31  C   UNL     1       5.530  13.666  26.159  0.00  0.00    +0.000 C 
ATOM     32  C   UNL     1       6.715  13.500  25.226  0.00  0.00    +0.000 C 
ENDBRANCH  28  32
ENDBRANCH  26  28
ENDBRANCH   1  26
TORSDOF 5
ENDMDL
MODEL 4
REMARK VINA RESULT:      -7.9      1.049      1.440
REMARK  Name = 
REMARK  8 active torsions:
REMARK  status: ('A' for Active; 'I' for Inactive)
REMARK    1  A    between atoms: C_1  and  C_2
REMARK    2  A    between atoms: C_2  and  S_3
REMARK    3  A    between atoms: S_3  and  N_6
REMARK    4  A    between atoms: N_6  and  C_7
REMARK    5  A    between atoms: C_13  and  N_14
REMARK    6  A    between atoms: N_17  and  C_18
REMARK    7  A    between atoms: C_26  and  C_27
REMARK    8  A    between atoms: C_26  and  C_28
REMARK                            x       y       z     vdW  Elec       q    Type
REMARK                         _______ _______ _______ _____ _____    ______ ____
ROOT
ATOM      1  C   UNL     1       4.693   5.000  17.274  0.00  0.00    +0.000 A 
ATOM      2  C   UNL     1       4.991   3.646  17.399  0.00  0.00    +0.000 A 
ATOM      3  C   UNL     1       4.326   2.877  18.352  0.00  0.00    +0.000 A 
ATOM      4  C   UNL     1       3.366   3.457  19.181  0.00  0.00    +0.000 A 
ATOM      5  C   UNL     1       3.075   4.822  19.087  0.00  0.00    +0.000 A 
ATOM      6  C   UNL     1       3.722   5.582  18.092  0.00  0.00    +0.000 A 
ATOM      7  C   UNL     1       2.016   5.429  19.969  0.00  0.00    +0.000 C 
ATOM      8  C   UNL     1       1.753   4.527  21.182  0.00  0.00    +0.000 C 
ATOM      9  C   UNL     1       1.599   3.061  20.752  0.00  0.00    +0.000 C 
ATOM     10  C   UNL     1       1.484   2.173  22.002  0.00  0.00    +0.000 C 
ATOM     11  C   UNL     1       0.361   2.810  19.877  0.00  0.00    +0.000 C 
ATOM     12  O   UNL     1       2.771   2.597  20.061  0.00  0.00    +0.000 OA
ENDROOT
BRANCH   7  13
ATOM     13  N   UNL     1       2.351   6.791  20.391  0.00  0.00    +0.000 N 
ATOM     14  C   UNL     1       1.328   7.607  20.823  0.00  0.00    +0.000 C 
ATOM     15  O   UNL     1       0.172   7.208  20.838  0.00  0.00    +0.000 OA
ATOM     16  N   UNL     1       1.754   8.873  21.164  0.00  0.00    +0.000 N 
ATOM     17  H   UNL     1       3.264   6.941  20.794  0.00  0.00    +0.000 HD
ATOM     18  H   UNL     1       2.655   9.155  20.807  0.00  0.00    +0.000 HD
BRANCH  16  19
ATOM     19  C   UNL     1       0.901   9.905  21.643  0.00  0.00    +0.000 A 
ATOM     20  C   UNL     1       0.045   9.723  22.738  0.00  0.00    +0.000 A 
ATOM     21  C   UNL     1      -0.849  10.723  23.133  0.00  0.00    +0.000 A 
ATOM     22  C   UNL     1      -0.884  11.929  22.447  0.00  0.00    +0.000 A 
ATOM     23  C   UNL     1      -0.004  12.138  21.386  0.00  0.00    +0.000 A 
ATOM     24 CL   UNL     1      -0.055  13.635  20.536  0.00  0.00    +0.000 Cl
ATOM     25  C   UNL     1       0.895  11.141  20.988  0.00  0.00    +0.000 A 
ENDBRANCH  16  19
ENDBRANCH   7  13
BRANCH   1  26
ATOM     26  N   UNL     1       5.366   5.772  16.285  0.00  0.00    +0.000 N 
ATOM     27  H   UNL     1       4.931   5.768  15.359  0.00  0.00    +0.000 HD
BRANCH  26  28
ATOM     28  S   UNL     1       7.032   5.546  16.092  0.00  0.00    +0.000 S 
ATOM     29  O   UNL     1       7.339   4.379  16.887  0.00  0.00    +0.000 OA
ATOM     30  O   UNL     1       7.721   6.800  16.306  0.00  0.00    +0.000 OA
BRANCH  28  32
ATOM     31  C   UNL     1       6.142   4.002  14.014  0.00  0.00    +0.000 C 
ATOM     32  C   UNL     1       7.145   5.086  14.364  0.00  0.00    +0.000 C 
ENDBRANCH  28  32
ENDBRANCH  26  28
ENDBRANCH   1  26
TORSDOF 5
ENDMDL
MODEL 5
REMARK VINA RESULT:      -7.8      6.545     10.674
REMARK  Name = 
REMARK  8 active torsions:
REMARK  status: ('A' for Active; 'I' for Inactive)
REMARK    1  A    between atoms: C_1  and  C_2
REMARK    2  A    between atoms: C_2  and  S_3
REMARK    3  A    between atoms: S_3  and  N_6
REMARK    4  A    between atoms: N_6  and  C_7
REMARK    5  A    between atoms: C_13  and  N_14
REMARK    6  A    between atoms: N_17  and  C_18
REMARK    7  A    between atoms: C_26  and  C_27
REMARK    8  A    between atoms: C_26  and  C_28
REMARK                            x       y       z     vdW  Elec       q    Type
REMARK                         _______ _______ _______ _____ _____    ______ ____
ROOT
ATOM      1  C   UNL     1       8.782  12.317  22.453  0.00  0.00    +0.000 A 
ATOM      2  C   UNL     1       9.562  13.469  22.445  0.00  0.00    +0.000 A 
ATOM      3  C   UNL     1      10.259  13.823  21.292  0.00  0.00    +0.000 A 
ATOM      4  C   UNL     1      10.181  13.028  20.148  0.00  0.00    +0.000 A 
ATOM      5  C   UNL     1       9.424  11.851  20.150  0.00  0.00    +0.000 A 
ATOM      6  C   UNL     1       8.689  11.524  21.307  0.00  0.00    +0.000 A 
ATOM      7  C   UNL     1       9.326  11.017  18.900  0.00  0.00    +0.000 C 
ATOM      8  C   UNL     1      10.479  11.353  17.945  0.00  0.00    +0.000 C 
ATOM      9  C   UNL     1      10.649  12.872  17.803  0.00  0.00    +0.000 C 
ATOM     10  C   UNL     1      11.899  13.168  16.958  0.00  0.00    +0.000 C 
ATOM     11  C   UNL     1       9.449  13.558  17.130  0.00  0.00    +0.000 C 
ATOM     12  O   UNL     1      10.894  13.488  19.078  0.00  0.00    +0.000 OA
ENDROOT
BRANCH   7  13
ATOM     13  N   UNL     1       9.284   9.581  19.186  0.00  0.00    +0.000 N 
ATOM     14  C   UNL     1       8.371   8.810  18.501  0.00  0.00    +0.000 C 
ATOM     15  O   UNL     1       7.609   9.314  17.688  0.00  0.00    +0.000 OA
ATOM     16  N   UNL     1       8.397   7.482  18.873  0.00  0.00    +0.000 N 
ATOM     17  H   UNL     1      10.146   9.138  19.469  0.00  0.00    +0.000 HD
ATOM     18  H   UNL     1       8.838   7.273  19.757  0.00  0.00    +0.000 HD
BRANCH  16  19
ATOM     19  C   UNL     1       7.561   6.476  18.317  0.00  0.00    +0.000 A 
ATOM     20  C   UNL     1       6.792   5.616  19.112  0.00  0.00    +0.000 A 
ATOM     21  C   UNL     1       6.047   4.576  18.547  0.00  0.00    +0.000 A 
ATOM     22  C   UNL     1       6.049   4.396  17.171  0.00  0.00    +0.000 A 
ATOM     23  C   UNL     1       6.773   5.275  16.366  0.00  0.00    +0.000 A 
ATOM     24 CL   UNL     1       6.773   5.044  14.659  0.00  0.00    +0.000 Cl
ATOM     25  C   UNL     1       7.518   6.319  16.928  0.00  0.00    +0.000 A 
ENDBRANCH  16  19
ENDBRANCH   7  13
BRANCH   1  26
ATOM     26  N   UNL     1       8.059  11.974  23.632  0.00  0.00    +0.000 N 
ATOM     27  H   UNL     1       8.030  10.975  23.850  0.00  0.00    +0.000 HD
BRANCH  26  28
ATOM     28  S   UNL     1       6.501  12.607  23.826  0.00  0.00    +0.000 S 
ATOM     29  O   UNL     1       6.541  13.295  25.097  0.00  0.00    +0.000 OA
ATOM     30  O   UNL     1       5.520  11.577  23.562  0.00  0.00    +0.000 OA
BRANCH  28  32
ATOM     31  C   UNL     1       6.109  15.214  23.088  0.00  0.00    +0.000 C 
ATOM     32  C   UNL     1       6.440  13.842  22.530  0.00  0.00    +0.000 C 
ENDBRANCH  28  32
ENDBRANCH  26  28
ENDBRANCH   1  26
TORSDOF 5
ENDMDL
MODEL 6
REMARK VINA RESULT:      -7.8      5.180      8.765
REMARK  Name = 
REMARK  8 active torsions:
REMARK  status: ('A' for Active; 'I' for Inactive)
REMARK    1  A    between atoms: C_1  and  C_2
REMARK    2  A    between atoms: C_2  and  S_3
REMARK    3  A    between atoms: S_3  and  N_6
REMARK    4  A    between atoms: N_6  and  C_7
REMARK    5  A    between atoms: C_13  and  N_14
REMARK    6  A    between atoms: N_17  and  C_18
REMARK    7  A    between atoms: C_26  and  C_27
REMARK    8  A    between atoms: C_26  and  C_28
REMARK                            x       y       z     vdW  Elec       q    Type
REMARK                         _______ _______ _______ _____ _____    ______ ____
ROOT
ATOM      1  C   UNL     1       2.916  14.169  18.257  0.00  0.00    +0.000 A 
ATOM      2  C   UNL     1       1.954  15.169  18.365  0.00  0.00    +0.000 A 
ATOM      3  C   UNL     1       0.629  14.828  18.625  0.00  0.00    +0.000 A 
ATOM      4  C   UNL     1       0.261  13.491  18.777  0.00  0.00    +0.000 A 
ATOM      5  C   UNL     1       1.211  12.472  18.643  0.00  0.00    +0.000 A 
ATOM      6  C   UNL     1       2.556  12.829  18.422  0.00  0.00    +0.000 A 
ATOM      7  C   UNL     1       0.805  11.034  18.837  0.00  0.00    +0.000 C 
ATOM      8  C   UNL     1      -0.714  10.885  18.681  0.00  0.00    +0.000 C 
ATOM      9  C   UNL     1      -1.456  11.971  19.475  0.00  0.00    +0.000 C 
ATOM     10  C   UNL     1      -2.962  11.878  19.178  0.00  0.00    +0.000 C 
ATOM     11  C   UNL     1      -1.264  11.852  20.995  0.00  0.00    +0.000 C 
ATOM     12  O   UNL     1      -1.063  13.285  19.047  0.00  0.00    +0.000 OA
ENDROOT
BRANCH   7  13
ATOM     13  N   UNL     1       1.516  10.126  17.935  0.00  0.00    +0.000 N 
ATOM     14  C   UNL     1       1.910   8.900  18.427  0.00  0.00    +0.000 C 
ATOM     15  O   UNL     1       1.684   8.589  19.588  0.00  0.00    +0.000 OA
ATOM     16  N   UNL     1       2.598   8.142  17.504  0.00  0.00    +0.000 N 
ATOM     17  H   UNL     1       1.297  10.181  16.951  0.00  0.00    +0.000 HD
ATOM     18  H   UNL     1       2.981   8.638  16.712  0.00  0.00    +0.000 HD
BRANCH  16  19
ATOM     19  C   UNL     1       3.109   6.840  17.755  0.00  0.00    +0.000 A 
ATOM     20  C   UNL     1       2.278   5.754  18.063  0.00  0.00    +0.000 A 
ATOM     21  C   UNL     1       2.809   4.504  18.395  0.00  0.00    +0.000 A 
ATOM     22  C   UNL     1       4.185   4.320  18.402  0.00  0.00    +0.000 A 
ATOM     23  C   UNL     1       5.020   5.380  18.051  0.00  0.00    +0.000 A 
ATOM     24 CL   UNL     1       6.726   5.145  18.066  0.00  0.00    +0.000 Cl
ATOM     25  C   UNL     1       4.491   6.632  17.715  0.00  0.00    +0.000 A 
ENDBRANCH  16  19
ENDBRANCH   7  13
BRANCH   1  26
ATOM     26  N   UNL     1       4.271  14.530  18.008  0.00  0.00    +0.000 N 
ATOM     27  H   UNL     1       4.904  13.747  17.828  0.00  0.00    +0.000 HD
BRANCH  26  28
ATOM     28  S   UNL     1       5.027  15.589  19.090  0.00  0.00    +0.000 S 
ATOM     29  O   UNL     1       4.510  15.219  20.388  0.00  0.00    +0.000 OA
ATOM     30  O   UNL     1       4.919  16.945  18.600  0.00  0.00    +0.000 OA
BRANCH  28  32
ATOM     31  C   UNL     1       7.043  14.411  17.661  0.00  0.00    +0.000 C 
ATOM     32  C   UNL     1       6.734  15.052  19.001  0.00  0.00    +0.000 C 
ENDBRANCH  28  32
ENDBRANCH  26  28
ENDBRANCH   1  26
TORSDOF 5
ENDMDL
MODEL 7
REMARK VINA RESULT:      -7.8      1.439      1.817
REMARK  Name = 
REMARK  8 active torsions:
REMARK  status: ('A' for Active; 'I' for Inactive)
REMARK    1  A    between atoms: C_1  and  C_2
REMARK    2  A    between atoms: C_2  and  S_3
REMARK    3  A    between atoms: S_3  and  N_6
REMARK    4  A    between atoms: N_6  and  C_7
REMARK    5  A    between atoms: C_13  and  N_14
REMARK    6  A    between atoms: N_17  and  C_18
REMARK    7  A    between atoms: C_26  and  C_27
REMARK    8  A    between atoms: C_26  and  C_28
REMARK                            x       y       z     vdW  Elec       q    Type
REMARK                         _______ _______ _______ _____ _____    ______ ____
ROOT
ATOM      1  C   UNL     1       4.985   6.046  17.921  0.00  0.00    +0.000 A 
ATOM      2  C   UNL     1       5.347   4.704  17.850  0.00  0.00    +0.000 A 
ATOM      3  C   UNL     1       4.627   3.755  18.572  0.00  0.00    +0.000 A 
ATOM      4  C   UNL     1       3.547   4.142  19.366  0.00  0.00    +0.000 A 
ATOM      5  C   UNL     1       3.188   5.491  19.470  0.00  0.00    +0.000 A 
ATOM      6  C   UNL     1       3.896   6.438  18.704  0.00  0.00    +0.000 A 
ATOM      7  C   UNL     1       2.003   5.892  20.309  0.00  0.00    +0.000 C 
ATOM      8  C   UNL     1       1.660   4.781  21.311  0.00  0.00    +0.000 C 
ATOM      9  C   UNL     1       1.642   3.408  20.623  0.00  0.00    +0.000 C 
ATOM     10  C   UNL     1       1.441   2.311  21.681  0.00  0.00    +0.000 C 
ATOM     11  C   UNL     1       0.527   3.267  19.575  0.00  0.00    +0.000 C 
ATOM     12  O   UNL     1       2.909   3.119  20.009  0.00  0.00    +0.000 OA
ENDROOT
BRANCH   7  13
ATOM     13  N   UNL     1       2.208   7.170  20.993  0.00  0.00    +0.000 N 
ATOM     14  C   UNL     1       1.250   8.149  20.840  0.00  0.00    +0.000 C 
ATOM     15  O   UNL     1       0.265   7.958  20.141  0.00  0.00    +0.000 OA
ATOM     16  N   UNL     1       1.562   9.318  21.500  0.00  0.00    +0.000 N 
ATOM     17  H   UNL     1       2.720   7.155  21.863  0.00  0.00    +0.000 HD
ATOM     18  H   UNL     1       2.529   9.441  21.763  0.00  0.00    +0.000 HD
BRANCH  16  19
ATOM     19  C   UNL     1       0.741  10.479  21.507  0.00  0.00    +0.000 A 
ATOM     20  C   UNL     1       1.042  11.615  20.743  0.00  0.00    +0.000 A 
ATOM     21  C   UNL     1       0.270  12.777  20.836  0.00  0.00    +0.000 A 
ATOM     22  C   UNL     1      -0.829  12.809  21.683  0.00  0.00    +0.000 A 
ATOM     23  C   UNL     1      -1.165  11.670  22.412  0.00  0.00    +0.000 A 
ATOM     24 CL   UNL     1      -2.527  11.718  23.465  0.00  0.00    +0.000 Cl
ATOM     25  C   UNL     1      -0.396  10.503  22.321  0.00  0.00    +0.000 A 
ENDBRANCH  16  19
ENDBRANCH   7  13
BRANCH   1  26
ATOM     26  N   UNL     1       5.717   7.005  17.166  0.00  0.00    +0.000 N 
ATOM     27  H   UNL     1       5.591   6.950  16.153  0.00  0.00    +0.000 HD
BRANCH  26  28
ATOM     28  S   UNL     1       7.369   7.184  17.488  0.00  0.00    +0.000 S 
ATOM     29  O   UNL     1       8.028   6.738  16.281  0.00  0.00    +0.000 OA
ATOM     30  O   UNL     1       7.681   6.596  18.772  0.00  0.00    +0.000 OA
BRANCH  28  32
ATOM     31  C   UNL     1       8.721   9.362  18.447  0.00  0.00    +0.000 C 
ATOM     32  C   UNL     1       7.537   8.965  17.585  0.00  0.00    +0.000 C 
ENDBRANCH  28  32
ENDBRANCH  26  28
ENDBRANCH   1  26
TORSDOF 5
ENDMDL
MODEL 8
REMARK VINA RESULT:      -7.7      5.107      8.772
REMARK  Name = 
REMARK  8 active torsions:
REMARK  status: ('A' for Active; 'I' for Inactive)
REMARK    1  A    between atoms: C_1  and  C_2
REMARK    2  A    between atoms: C_2  and  S_3
REMARK    3  A    between atoms: S_3  and  N_6
REMARK    4  A    between atoms: N_6  and  C_7
REMARK    5  A    between atoms: C_13  and  N_14
REMARK    6  A    between atoms: N_17  and  C_18
REMARK    7  A    between atoms: C_26  and  C_27
REMARK    8  A    between atoms: C_26  and  C_28
REMARK                            x       y       z     vdW  Elec       q    Type
REMARK                         _______ _______ _______ _____ _____    ______ ____
ROOT
ATOM      1  C   UNL     1       2.897  14.097  18.453  0.00  0.00    +0.000 A 
ATOM      2  C   UNL     1       1.945  15.110  18.526  0.00  0.00    +0.000 A 
ATOM      3  C   UNL     1       0.602  14.784  18.697  0.00  0.00    +0.000 A 
ATOM      4  C   UNL     1       0.206  13.450  18.794  0.00  0.00    +0.000 A 
ATOM      5  C   UNL     1       1.148  12.419  18.694  0.00  0.00    +0.000 A 
ATOM      6  C   UNL     1       2.508  12.760  18.563  0.00  0.00    +0.000 A 
ATOM      7  C   UNL     1       0.710  10.984  18.828  0.00  0.00    +0.000 C 
ATOM      8  C   UNL     1      -0.799  10.862  18.577  0.00  0.00    +0.000 C 
ATOM      9  C   UNL     1      -1.572  11.941  19.350  0.00  0.00    +0.000 C 
ATOM     10  C   UNL     1      -3.058  11.879  18.961  0.00  0.00    +0.000 C 
ATOM     11  C   UNL     1      -1.474  11.784  20.876  0.00  0.00    +0.000 C 
ATOM     12  O   UNL     1      -1.134  13.259  18.979  0.00  0.00    +0.000 OA
ENDROOT
BRANCH   7  13
ATOM     13  N   UNL     1       1.461  10.085  17.949  0.00  0.00    +0.000 N 
ATOM     14  C   UNL     1       1.855   8.865  18.453  0.00  0.00    +0.000 C 
ATOM     15  O   UNL     1       1.595   8.549  19.606  0.00  0.00    +0.000 OA
ATOM     16  N   UNL     1       2.582   8.116  17.551  0.00  0.00    +0.000 N 
ATOM     17  H   UNL     1       1.273  10.139  16.959  0.00  0.00    +0.000 HD
ATOM     18  H   UNL     1       2.984   8.618  16.773  0.00  0.00    +0.000 HD
BRANCH  16  19
ATOM     19  C   UNL     1       3.101   6.820  17.818  0.00  0.00    +0.000 A 
ATOM     20  C   UNL     1       4.477   6.551  17.829  0.00  0.00    +0.000 A 
ATOM     21  C   UNL     1       4.960   5.251  18.005  0.00  0.00    +0.000 A 
ATOM     22  C   UNL     1       4.070   4.203  18.193  0.00  0.00    +0.000 A 
ATOM     23  C   UNL     1       2.701   4.466  18.230  0.00  0.00    +0.000 A 
ATOM     24 CL   UNL     1       1.601   3.161  18.460  0.00  0.00    +0.000 Cl
ATOM     25  C   UNL     1       2.213   5.767  18.058  0.00  0.00    +0.000 A 
ENDBRANCH  16  19
ENDBRANCH   7  13
BRANCH   1  26
ATOM     26  N   UNL     1       4.270  14.442  18.295  0.00  0.00    +0.000 N 
ATOM     27  H   UNL     1       4.884  13.671  18.022  0.00  0.00    +0.000 HD
BRANCH  26  28
ATOM     28  S   UNL     1       5.023  15.310  19.536  0.00  0.00    +0.000 S 
ATOM     29  O   UNL     1       4.568  14.679  20.754  0.00  0.00    +0.000 OA
ATOM     30  O   UNL     1       4.845  16.729  19.316  0.00  0.00    +0.000 OA
BRANCH  28  32
ATOM     31  C   UNL     1       7.126  14.911  17.830  0.00  0.00    +0.000 C 
ATOM     32  C   UNL     1       6.745  14.877  19.298  0.00  0.00    +0.000 C 
ENDBRANCH  28  32
ENDBRANCH  26  28
ENDBRANCH   1  26
TORSDOF 5
ENDMDL
MODEL 9
REMARK VINA RESULT:      -7.7      0.901      1.286
REMARK  Name = 
REMARK  8 active torsions:
REMARK  status: ('A' for Active; 'I' for Inactive)
REMARK    1  A    between atoms: C_1  and  C_2
REMARK    2  A    between atoms: C_2  and  S_3
REMARK    3  A    between atoms: S_3  and  N_6
REMARK    4  A    between atoms: N_6  and  C_7
REMARK    5  A    between atoms: C_13  and  N_14
REMARK    6  A    between atoms: N_17  and  C_18
REMARK    7  A    between atoms: C_26  and  C_27
REMARK    8  A    between atoms: C_26  and  C_28
REMARK                            x       y       z     vdW  Elec       q    Type
REMARK                         _______ _______ _______ _____ _____    ______ ____
ROOT
ATOM      1  C   UNL     1       4.642   5.245  17.232  0.00  0.00    +0.000 A 
ATOM      2  C   UNL     1       4.901   3.880  17.324  0.00  0.00    +0.000 A 
ATOM      3  C   UNL     1       4.232   3.112  18.274  0.00  0.00    +0.000 A 
ATOM      4  C   UNL     1       3.305   3.703  19.133  0.00  0.00    +0.000 A 
ATOM      5  C   UNL     1       3.054   5.078  19.072  0.00  0.00    +0.000 A 
ATOM      6  C   UNL     1       3.705   5.839  18.081  0.00  0.00    +0.000 A 
ATOM      7  C   UNL     1       2.031   5.698  19.988  0.00  0.00    +0.000 C 
ATOM      8  C   UNL     1       1.764   4.779  21.187  0.00  0.00    +0.000 C 
ATOM      9  C   UNL     1       1.557   3.327  20.730  0.00  0.00    +0.000 C 
ATOM     10  C   UNL     1       1.439   2.417  21.964  0.00  0.00    +0.000 C 
ATOM     11  C   UNL     1       0.296   3.132  19.874  0.00  0.00    +0.000 C 
ATOM     12  O   UNL     1       2.701   2.843  20.007  0.00  0.00    +0.000 OA
ENDROOT
BRANCH   7  13
ATOM     13  N   UNL     1       2.416   7.039  20.431  0.00  0.00    +0.000 N 
ATOM     14  C   UNL     1       1.425   7.987  20.565  0.00  0.00    +0.000 C 
ATOM     15  O   UNL     1       0.261   7.718  20.307  0.00  0.00    +0.000 OA
ATOM     16  N   UNL     1       1.905   9.220  20.956  0.00  0.00    +0.000 N 
ATOM     17  H   UNL     1       3.216   7.116  21.042  0.00  0.00    +0.000 HD
ATOM     18  H   UNL     1       2.894   9.378  20.824  0.00  0.00    +0.000 HD
BRANCH  16  19
ATOM     19  C   UNL     1       1.093  10.366  21.170  0.00  0.00    +0.000 A 
ATOM     20  C   UNL     1       1.365  11.602  20.568  0.00  0.00    +0.000 A 
ATOM     21  C   UNL     1       0.605  12.737  20.865  0.00  0.00    +0.000 A 
ATOM     22  C   UNL     1      -0.455  12.644  21.757  0.00  0.00    +0.000 A 
ATOM     23  C   UNL     1      -0.764  11.410  22.325  0.00  0.00    +0.000 A 
ATOM     24 CL   UNL     1      -2.078  11.302  23.434  0.00  0.00    +0.000 Cl
ATOM     25  C   UNL     1      -0.007  10.270  22.029  0.00  0.00    +0.000 A 
ENDBRANCH  16  19
ENDBRANCH   7  13
BRANCH   1  26
ATOM     26  N   UNL     1       5.319   6.017  16.246  0.00  0.00    +0.000 N 
ATOM     27  H   UNL     1       5.136   5.744  15.278  0.00  0.00    +0.000 HD
BRANCH  26  28
ATOM     28  S   UNL     1       6.985   6.259  16.425  0.00  0.00    +0.000 S 
ATOM     29  O   UNL     1       7.110   7.617  16.902  0.00  0.00    +0.000 OA
ATOM     30  O   UNL     1       7.672   5.818  15.231  0.00  0.00    +0.000 OA
BRANCH  28  32
ATOM     31  C   UNL     1       7.820   5.929  19.011  0.00  0.00    +0.000 C 
ATOM     32  C   UNL     1       7.374   5.157  17.783  0.00  0.00    +0.000 C 
ENDBRANCH  28  32
ENDBRANCH  26  28
ENDBRANCH   1  26
TORSDOF 5
ENDMDL
