MODEL 1
REMARK VINA RESULT:      -6.4      0.000      0.000
REMARK  Name = 
REMARK  3 active torsions:
REMARK  status: ('A' for Active; 'I' for Inactive)
REMARK    1  A    between atoms: C_1  and  O_2
REMARK    2  A    between atoms: O_2  and  C_3
REMARK    3  A    between atoms: C_3  and  C_5
REMARK                            x       y       z     vdW  Elec       q    Type
REMARK                         _______ _______ _______ _____ _____    ______ ____
ROOT
ATOM      1  C   UNL     1       6.175   5.271  17.608  0.00  0.00    +0.000 A 
ATOM      2  N   UNL     1       6.401   4.200  18.437  0.00  0.00    +0.000 N 
ATOM      3  N   UNL     1       5.441   3.960  19.346  0.00  0.00    +0.000 NA
ATOM      4  C   UNL     1       4.511   4.897  19.107  0.00  0.00    +0.000 A 
ATOM      5  C   UNL     1       3.281   5.118  19.749  0.00  0.00    +0.000 A 
ATOM      6  C   UNL     1       2.543   6.199  19.223  0.00  0.00    +0.000 A 
ATOM      7  C   UNL     1       2.998   7.006  18.137  0.00  0.00    +0.000 A 
ATOM      8  C   UNL     1       4.230   6.814  17.477  0.00  0.00    +0.000 A 
ATOM      9  C   UNL     1       4.944   5.740  18.012  0.00  0.00    +0.000 A 
ATOM     10  H   UNL     1       7.216   3.594  18.427  0.00  0.00    +0.000 HD
ENDROOT
BRANCH   1  11
ATOM     11  C   UNL     1       7.146   5.633  16.617  0.00  0.00    +0.000 C 
ATOM     12  O   UNL     1       7.609   6.759  16.496  0.00  0.00    +0.000 OA
BRANCH  11  14
ATOM     13  C   UNL     1       6.634   4.418  14.675  0.00  0.00    +0.000 C 
ATOM     14  O   UNL     1       7.464   4.573  15.826  0.00  0.00    +0.000 OA
ENDBRANCH  11  14
ENDBRANCH   1  11
TORSDOF 2
ENDMDL
MODEL 2
REMARK VINA RESULT:      -6.3      1.618      2.131
REMARK  Name = 
REMARK  3 active torsions:
REMARK  status: ('A' for Active; 'I' for Inactive)
REMARK    1  A    between atoms: C_1  and  O_2
REMARK    2  A    between atoms: O_2  and  C_3
REMARK    3  A    between atoms: C_3  and  C_5
REMARK                            x       y       z     vdW  Elec       q    Type
REMARK                         _______ _______ _______ _____ _____    ______ ____
ROOT
ATOM      1  C   UNL     1       6.873   4.749  16.047  0.00  0.00    +0.000 A 
ATOM      2  N   UNL     1       7.931   4.421  16.857  0.00  0.00    +0.000 N 
ATOM      3  N   UNL     1       7.696   4.507  18.177  0.00  0.00    +0.000 NA
ATOM      4  C   UNL     1       6.412   4.888  18.266  0.00  0.00    +0.000 A 
ATOM      5  C   UNL     1       5.628   5.124  19.408  0.00  0.00    +0.000 A 
ATOM      6  C   UNL     1       4.300   5.505  19.124  0.00  0.00    +0.000 A 
ATOM      7  C   UNL     1       3.789   5.645  17.799  0.00  0.00    +0.000 A 
ATOM      8  C   UNL     1       4.553   5.423  16.633  0.00  0.00    +0.000 A 
ATOM      9  C   UNL     1       5.863   5.047  16.935  0.00  0.00    +0.000 A 
ATOM     10  H   UNL     1       8.856   4.133  16.551  0.00  0.00    +0.000 HD
ENDROOT
BRANCH   1  11
ATOM     11  C   UNL     1       7.019   4.715  14.621  0.00  0.00    +0.000 C 
ATOM     12  O   UNL     1       7.735   5.482  13.991  0.00  0.00    +0.000 OA
BRANCH  11  14
ATOM     13  C   UNL     1       6.354   3.635  12.647  0.00  0.00    +0.000 C 
ATOM     14  O   UNL     1       6.251   3.740  14.067  0.00  0.00    +0.000 OA
ENDBRANCH  11  14
ENDBRANCH   1  11
TORSDOF 2
ENDMDL
MODEL 3
REMARK VINA RESULT:      -6.2      2.282      3.001
REMARK  Name = 
REMARK  3 active torsions:
REMARK  status: ('A' for Active; 'I' for Inactive)
REMARK    1  A    between atoms: C_1  and  O_2
REMARK    2  A    between atoms: O_2  and  C_3
REMARK    3  A    between atoms: C_3  and  C_5
REMARK                            x       y       z     vdW  Elec       q    Type
REMARK                         _______ _______ _______ _____ _____    ______ ____
ROOT
ATOM      1  C   UNL     1       4.185   3.825  18.453  0.00  0.00    +0.000 A 
ATOM      2  N   UNL     1       5.132   3.027  19.044  0.00  0.00    +0.000 N 
ATOM      3  N   UNL     1       4.753   2.430  20.187  0.00  0.00    +0.000 NA
ATOM      4  C   UNL     1       3.483   2.823  20.366  0.00  0.00    +0.000 A 
ATOM      5  C   UNL     1       2.583   2.495  21.394  0.00  0.00    +0.000 A 
ATOM      6  C   UNL     1       1.311   3.086  21.255  0.00  0.00    +0.000 A 
ATOM      7  C   UNL     1       0.958   3.946  20.171  0.00  0.00    +0.000 A 
ATOM      8  C   UNL     1       1.840   4.299  19.128  0.00  0.00    +0.000 A 
ATOM      9  C   UNL     1       3.093   3.703  19.283  0.00  0.00    +0.000 A 
ATOM     10  H   UNL     1       6.075   2.860  18.705  0.00  0.00    +0.000 HD
ENDROOT
BRANCH   1  11
ATOM     11  C   UNL     1       4.491   4.529  17.242  0.00  0.00    +0.000 C 
ATOM     12  O   UNL     1       4.284   5.725  17.079  0.00  0.00    +0.000 OA
BRANCH  11  14
ATOM     13  C   UNL     1       6.261   4.132  15.755  0.00  0.00    +0.000 C 
ATOM     14  O   UNL     1       5.017   3.698  16.304  0.00  0.00    +0.000 OA
ENDBRANCH  11  14
ENDBRANCH   1  11
TORSDOF 2
ENDMDL
MODEL 4
REMARK VINA RESULT:      -6.2      2.103      2.895
REMARK  Name = 
REMARK  3 active torsions:
REMARK  status: ('A' for Active; 'I' for Inactive)
REMARK    1  A    between atoms: C_1  and  O_2
REMARK    2  A    between atoms: O_2  and  C_3
REMARK    3  A    between atoms: C_3  and  C_5
REMARK                            x       y       z     vdW  Elec       q    Type
REMARK                         _______ _______ _______ _____ _____    ______ ____
ROOT
ATOM      1  C   UNL     1       4.885   4.211  19.357  0.00  0.00    +0.000 A 
ATOM      2  N   UNL     1       5.141   2.877  19.165  0.00  0.00    +0.000 N 
ATOM      3  N   UNL     1       4.120   2.047  19.440  0.00  0.00    +0.000 NA
ATOM      4  C   UNL     1       3.119   2.859  19.814  0.00  0.00    +0.000 A 
ATOM      5  C   UNL     1       1.808   2.538  20.204  0.00  0.00    +0.000 A 
ATOM      6  C   UNL     1       1.013   3.658  20.522  0.00  0.00    +0.000 A 
ATOM      7  C   UNL     1       1.489   5.003  20.461  0.00  0.00    +0.000 A 
ATOM      8  C   UNL     1       2.800   5.356  20.081  0.00  0.00    +0.000 A 
ATOM      9  C   UNL     1       3.571   4.234  19.769  0.00  0.00    +0.000 A 
ATOM     10  H   UNL     1       6.017   2.472  18.848  0.00  0.00    +0.000 HD
ENDROOT
BRANCH   1  11
ATOM     11  C   UNL     1       5.911   5.184  19.118  0.00  0.00    +0.000 C 
ATOM     12  O   UNL     1       6.886   5.338  19.841  0.00  0.00    +0.000 OA
BRANCH  11  14
ATOM     13  C   UNL     1       6.484   5.615  16.883  0.00  0.00    +0.000 C 
ATOM     14  O   UNL     1       5.649   5.915  18.002  0.00  0.00    +0.000 OA
ENDBRANCH  11  14
ENDBRANCH   1  11
TORSDOF 2
ENDMDL
MODEL 5
REMARK VINA RESULT:      -6.2      2.324      2.737
REMARK  Name = 
REMARK  3 active torsions:
REMARK  status: ('A' for Active; 'I' for Inactive)
REMARK    1  A    between atoms: C_1  and  O_2
REMARK    2  A    between atoms: O_2  and  C_3
REMARK    3  A    between atoms: C_3  and  C_5
REMARK                            x       y       z     vdW  Elec       q    Type
REMARK                         _______ _______ _______ _____ _____    ______ ____
ROOT
ATOM      1  C   UNL     1       4.967   3.965  18.997  0.00  0.00    +0.000 A 
ATOM      2  N   UNL     1       5.218   2.768  19.620  0.00  0.00    +0.000 N 
ATOM      3  N   UNL     1       4.162   1.946  19.738  0.00  0.00    +0.000 NA
ATOM      4  C   UNL     1       3.154   2.606  19.148  0.00  0.00    +0.000 A 
ATOM      5  C   UNL     1       1.816   2.217  18.967  0.00  0.00    +0.000 A 
ATOM      6  C   UNL     1       1.028   3.167  18.285  0.00  0.00    +0.000 A 
ATOM      7  C   UNL     1       1.534   4.417  17.818  0.00  0.00    +0.000 A 
ATOM      8  C   UNL     1       2.869   4.839  17.990  0.00  0.00    +0.000 A 
ATOM      9  C   UNL     1       3.633   3.886  18.666  0.00  0.00    +0.000 A 
ATOM     10  H   UNL     1       6.110   2.462  19.997  0.00  0.00    +0.000 HD
ENDROOT
BRANCH   1  11
ATOM     11  C   UNL     1       6.017   4.929  18.839  0.00  0.00    +0.000 C 
ATOM     12  O   UNL     1       6.659   5.396  19.770  0.00  0.00    +0.000 OA
BRANCH  11  14
ATOM     13  C   UNL     1       7.251   4.573  16.875  0.00  0.00    +0.000 C 
ATOM     14  O   UNL     1       6.188   5.264  17.532  0.00  0.00    +0.000 OA
ENDBRANCH  11  14
ENDBRANCH   1  11
TORSDOF 2
ENDMDL
MODEL 6
REMARK VINA RESULT:      -6.2      2.148      3.044
REMARK  Name = 
REMARK  3 active torsions:
REMARK  status: ('A' for Active; 'I' for Inactive)
REMARK    1  A    between atoms: C_1  and  O_2
REMARK    2  A    between atoms: O_2  and  C_3
REMARK    3  A    between atoms: C_3  and  C_5
REMARK                            x       y       z     vdW  Elec       q    Type
REMARK                         _______ _______ _______ _____ _____    ______ ____
ROOT
ATOM      1  C   UNL     1       4.909   4.198  19.214  0.00  0.00    +0.000 A 
ATOM      2  N   UNL     1       5.189   2.855  19.208  0.00  0.00    +0.000 N 
ATOM      3  N   UNL     1       4.212   2.059  19.677  0.00  0.00    +0.000 NA
ATOM      4  C   UNL     1       3.216   2.901  19.994  0.00  0.00    +0.000 A 
ATOM      5  C   UNL     1       1.944   2.621  20.520  0.00  0.00    +0.000 A 
ATOM      6  C   UNL     1       1.141   3.763  20.720  0.00  0.00    +0.000 A 
ATOM      7  C   UNL     1       1.574   5.090  20.423  0.00  0.00    +0.000 A 
ATOM      8  C   UNL     1       2.847   5.404  19.902  0.00  0.00    +0.000 A 
ATOM      9  C   UNL     1       3.626   4.261  19.710  0.00  0.00    +0.000 A 
ATOM     10  H   UNL     1       6.053   2.421  18.895  0.00  0.00    +0.000 HD
ENDROOT
BRANCH   1  11
ATOM     11  C   UNL     1       5.889   5.140  18.758  0.00  0.00    +0.000 C 
ATOM     12  O   UNL     1       5.897   5.626  17.635  0.00  0.00    +0.000 OA
BRANCH  11  14
ATOM     13  C   UNL     1       8.050   5.919  19.240  0.00  0.00    +0.000 C 
ATOM     14  O   UNL     1       6.809   5.404  19.724  0.00  0.00    +0.000 OA
ENDBRANCH  11  14
ENDBRANCH   1  11
TORSDOF 2
ENDMDL
MODEL 7
REMARK VINA RESULT:      -6.2      2.238      3.289
REMARK  Name = 
REMARK  3 active torsions:
REMARK  status: ('A' for Active; 'I' for Inactive)
REMARK    1  A    between atoms: C_1  and  O_2
REMARK    2  A    between atoms: O_2  and  C_3
REMARK    3  A    between atoms: C_3  and  C_5
REMARK                            x       y       z     vdW  Elec       q    Type
REMARK                         _______ _______ _______ _____ _____    ______ ____
ROOT
ATOM      1  C   UNL     1       4.371   3.685  18.642  0.00  0.00    +0.000 A 
ATOM      2  N   UNL     1       5.223   2.826  19.291  0.00  0.00    +0.000 N 
ATOM      3  N   UNL     1       4.723   2.241  20.393  0.00  0.00    +0.000 NA
ATOM      4  C   UNL     1       3.468   2.706  20.481  0.00  0.00    +0.000 A 
ATOM      5  C   UNL     1       2.476   2.422  21.435  0.00  0.00    +0.000 A 
ATOM      6  C   UNL     1       1.254   3.089  21.208  0.00  0.00    +0.000 A 
ATOM      7  C   UNL     1       1.035   3.979  20.114  0.00  0.00    +0.000 A 
ATOM      8  C   UNL     1       2.013   4.290  19.145  0.00  0.00    +0.000 A 
ATOM      9  C   UNL     1       3.214   3.619  19.386  0.00  0.00    +0.000 A 
ATOM     10  H   UNL     1       6.177   2.607  19.021  0.00  0.00    +0.000 HD
ENDROOT
BRANCH   1  11
ATOM     11  C   UNL     1       4.808   4.382  17.468  0.00  0.00    +0.000 C 
ATOM     12  O   UNL     1       4.798   3.899  16.344  0.00  0.00    +0.000 OA
BRANCH  11  14
ATOM     13  C   UNL     1       4.379   6.687  17.355  0.00  0.00    +0.000 C 
ATOM     14  O   UNL     1       5.249   5.633  17.771  0.00  0.00    +0.000 OA
ENDBRANCH  11  14
ENDBRANCH   1  11
TORSDOF 2
ENDMDL
MODEL 8
REMARK VINA RESULT:      -6.1      2.401      3.024
REMARK  Name = 
REMARK  3 active torsions:
REMARK  status: ('A' for Active; 'I' for Inactive)
REMARK    1  A    between atoms: C_1  and  O_2
REMARK    2  A    between atoms: O_2  and  C_3
REMARK    3  A    between atoms: C_3  and  C_5
REMARK                            x       y       z     vdW  Elec       q    Type
REMARK                         _______ _______ _______ _____ _____    ______ ____
ROOT
ATOM      1  C   UNL     1       4.910   3.887  18.768  0.00  0.00    +0.000 A 
ATOM      2  N   UNL     1       5.240   2.824  19.571  0.00  0.00    +0.000 N 
ATOM      3  N   UNL     1       4.217   2.027  19.923  0.00  0.00    +0.000 NA
ATOM      4  C   UNL     1       3.149   2.561  19.312  0.00  0.00    +0.000 A 
ATOM      5  C   UNL     1       1.810   2.134  19.318  0.00  0.00    +0.000 A 
ATOM      6  C   UNL     1       0.947   2.938  18.546  0.00  0.00    +0.000 A 
ATOM      7  C   UNL     1       1.382   4.088  17.821  0.00  0.00    +0.000 A 
ATOM      8  C   UNL     1       2.716   4.547  17.801  0.00  0.00    +0.000 A 
ATOM      9  C   UNL     1       3.555   3.737  18.570  0.00  0.00    +0.000 A 
ATOM     10  H   UNL     1       6.167   2.599  19.919  0.00  0.00    +0.000 HD
ENDROOT
BRANCH   1  11
ATOM     11  C   UNL     1       5.919   4.816  18.351  0.00  0.00    +0.000 C 
ATOM     12  O   UNL     1       6.009   5.261  17.215  0.00  0.00    +0.000 OA
BRANCH  11  14
ATOM     13  C   UNL     1       7.830   6.003  19.021  0.00  0.00    +0.000 C 
ATOM     14  O   UNL     1       6.765   5.119  19.372  0.00  0.00    +0.000 OA
ENDBRANCH  11  14
ENDBRANCH   1  11
TORSDOF 2
ENDMDL
MODEL 9
REMARK VINA RESULT:      -6.1      1.620      2.317
REMARK  Name = 
REMARK  3 active torsions:
REMARK  status: ('A' for Active; 'I' for Inactive)
REMARK    1  A    between atoms: C_1  and  O_2
REMARK    2  A    between atoms: O_2  and  C_3
REMARK    3  A    between atoms: C_3  and  C_5
REMARK                            x       y       z     vdW  Elec       q    Type
REMARK                         _______ _______ _______ _____ _____    ______ ____
ROOT
ATOM      1  C   UNL     1       6.799   4.663  16.059  0.00  0.00    +0.000 A 
ATOM      2  N   UNL     1       7.901   4.430  16.843  0.00  0.00    +0.000 N 
ATOM      3  N   UNL     1       7.705   4.556  18.167  0.00  0.00    +0.000 NA
ATOM      4  C   UNL     1       6.405   4.867  18.286  0.00  0.00    +0.000 A 
ATOM      5  C   UNL     1       5.647   5.103  19.445  0.00  0.00    +0.000 A 
ATOM      6  C   UNL     1       4.291   5.395  19.195  0.00  0.00    +0.000 A 
ATOM      7  C   UNL     1       3.728   5.452  17.884  0.00  0.00    +0.000 A 
ATOM      8  C   UNL     1       4.464   5.227  16.702  0.00  0.00    +0.000 A 
ATOM      9  C   UNL     1       5.804   4.939  16.971  0.00  0.00    +0.000 A 
ATOM     10  H   UNL     1       8.831   4.184  16.516  0.00  0.00    +0.000 HD
ENDROOT
BRANCH   1  11
ATOM     11  C   UNL     1       6.900   4.580  14.631  0.00  0.00    +0.000 C 
ATOM     12  O   UNL     1       6.264   3.788  13.948  0.00  0.00    +0.000 OA
BRANCH  11  14
ATOM     13  C   UNL     1       8.016   5.398  12.737  0.00  0.00    +0.000 C 
ATOM     14  O   UNL     1       7.799   5.477  14.145  0.00  0.00    +0.000 OA
ENDBRANCH  11  14
ENDBRANCH   1  11
TORSDOF 2
ENDMDL
