MODEL 1
REMARK VINA RESULT:      -7.8      0.000      0.000
REMARK  Name = 
REMARK  9 active torsions:
REMARK  status: ('A' for Active; 'I' for Inactive)
REMARK    1  A    between atoms: C_2  and  C_3
REMARK    2  A    between atoms: C_3  and  O_4
REMARK    3  A    between atoms: O_4  and  C_5
REMARK    4  A    between atoms: C_10  and  N_11
REMARK    5  A    between atoms: N_14  and  N_15
REMARK    6  A    between atoms: C_16  and  C_17
REMARK    7  A    between atoms: C_20  and  O_21
REMARK    8  A    between atoms: O_21  and  C_22
REMARK    9  A    between atoms: C_22  and  C_24
REMARK                            x       y       z     vdW  Elec       q    Type
REMARK                         _______ _______ _______ _____ _____    ______ ____
ROOT
ATOM      1  N   UNL     1       8.268   8.255  17.409  0.00  0.00    +0.000 NA
ATOM      2  C   UNL     1       8.030   9.108  18.356  0.00  0.00    +0.000 C 
ENDROOT
BRANCH   2   3
ATOM      3  C   UNL     1       8.962  10.193  18.709  0.00  0.00    +0.000 A 
ATOM      4  C   UNL     1       9.291  10.477  20.037  0.00  0.00    +0.000 A 
ATOM      5  C   UNL     1      10.202  11.499  20.314  0.00  0.00    +0.000 A 
ATOM      6  C   UNL     1      10.782  12.217  19.263  0.00  0.00    +0.000 A 
ATOM      7  C   UNL     1      10.430  11.956  17.941  0.00  0.00    +0.000 A 
ATOM      8  C   UNL     1       9.526  10.931  17.663  0.00  0.00    +0.000 A 
BRANCH   6   9
ATOM      9  O   UNL     1      11.675  13.243  19.634  0.00  0.00    +0.000 OA
BRANCH   9  10
ATOM     10  C   UNL     1      11.225  14.498  20.051  0.00  0.00    +0.000 C 
ATOM     11  O   UNL     1      10.902  14.798  21.196  0.00  0.00    +0.000 OA
BRANCH  10  12
ATOM     12  C   UNL     1      11.198  15.405  18.928  0.00  0.00    +0.000 A 
ATOM     13  C   UNL     1      10.477  16.569  18.732  0.00  0.00    +0.000 A 
ATOM     14  C   UNL     1      10.827  17.055  17.449  0.00  0.00    +0.000 A 
ATOM     15  C   UNL     1      11.737  16.160  16.938  0.00  0.00    +0.000 A 
ATOM     16  O   UNL     1      11.971  15.160  17.824  0.00  0.00    +0.000 OA
ENDBRANCH  10  12
ENDBRANCH   9  10
ENDBRANCH   6   9
ENDBRANCH   2   3
BRANCH   1  19
ATOM     17  O   UNL     1       7.855   5.686  18.658  0.00  0.00    +0.000 OA
ATOM     18  C   UNL     1       7.111   6.134  17.785  0.00  0.00    +0.000 C 
ATOM     19  N   UNL     1       7.265   7.354  17.127  0.00  0.00    +0.000 N 
ATOM     20  H   UNL     1       6.430   7.785  16.738  0.00  0.00    +0.000 HD
BRANCH  18  21
ATOM     21  C   UNL     1       5.937   5.318  17.267  0.00  0.00    +0.000 C 
BRANCH  21  22
ATOM     22  O   UNL     1       5.534   4.331  18.208  0.00  0.00    +0.000 OA
BRANCH  22  23
ATOM     23  C   UNL     1       4.387   4.627  18.898  0.00  0.00    +0.000 A 
ATOM     24  C   UNL     1       3.822   5.908  18.925  0.00  0.00    +0.000 A 
ATOM     25  C   UNL     1       2.651   6.164  19.642  0.00  0.00    +0.000 A 
ATOM     26  C   UNL     1       2.003   5.136  20.321  0.00  0.00    +0.000 A 
ATOM     27  C   UNL     1       2.516   3.842  20.274  0.00  0.00    +0.000 A 
ATOM     28  C   UNL     1       3.700   3.602  19.559  0.00  0.00    +0.000 A 
BRANCH  28  29
ATOM     29  N   UNL     1       4.222   2.249  19.558  0.00  0.00    +0.000 N 
ATOM     30  O   UNL     1       5.004   1.940  20.467  0.00  0.00    +0.000 OA
ATOM     31  O   UNL     1       3.788   1.479  18.688  0.00  0.00    +0.000 OA
ENDBRANCH  28  29
ENDBRANCH  22  23
ENDBRANCH  21  22
ENDBRANCH  18  21
ENDBRANCH   1  19
TORSDOF 9
ENDMDL
MODEL 2
REMARK VINA RESULT:      -7.7      1.628      2.024
REMARK  Name = 
REMARK  9 active torsions:
REMARK  status: ('A' for Active; 'I' for Inactive)
REMARK    1  A    between atoms: C_2  and  C_3
REMARK    2  A    between atoms: C_3  and  O_4
REMARK    3  A    between atoms: O_4  and  C_5
REMARK    4  A    between atoms: C_10  and  N_11
REMARK    5  A    between atoms: N_14  and  N_15
REMARK    6  A    between atoms: C_16  and  C_17
REMARK    7  A    between atoms: C_20  and  O_21
REMARK    8  A    between atoms: O_21  and  C_22
REMARK    9  A    between atoms: C_22  and  C_24
REMARK                            x       y       z     vdW  Elec       q    Type
REMARK                         _______ _______ _______ _____ _____    ______ ____
ROOT
ATOM      1  N   UNL     1       7.984   8.419  17.548  0.00  0.00    +0.000 NA
ATOM      2  C   UNL     1       8.539   9.139  18.473  0.00  0.00    +0.000 C 
ENDROOT
BRANCH   2   3
ATOM      3  C   UNL     1       8.994  10.523  18.246  0.00  0.00    +0.000 A 
ATOM      4  C   UNL     1      10.290  10.933  18.568  0.00  0.00    +0.000 A 
ATOM      5  C   UNL     1      10.678  12.249  18.306  0.00  0.00    +0.000 A 
ATOM      6  C   UNL     1       9.772  13.136  17.714  0.00  0.00    +0.000 A 
ATOM      7  C   UNL     1       8.469  12.736  17.424  0.00  0.00    +0.000 A 
ATOM      8  C   UNL     1       8.083  11.420  17.678  0.00  0.00    +0.000 A 
BRANCH   6   9
ATOM      9  O   UNL     1      10.239  14.449  17.504  0.00  0.00    +0.000 OA
BRANCH   9  10
ATOM     10  C   UNL     1      10.414  15.348  18.557  0.00  0.00    +0.000 C 
ATOM     11  O   UNL     1      11.485  15.633  19.086  0.00  0.00    +0.000 OA
BRANCH  10  12
ATOM     12  C   UNL     1       9.138  15.906  18.940  0.00  0.00    +0.000 A 
ATOM     13  C   UNL     1       8.390  15.730  20.090  0.00  0.00    +0.000 A 
ATOM     14  C   UNL     1       7.217  16.508  19.937  0.00  0.00    +0.000 A 
ATOM     15  C   UNL     1       7.317  17.109  18.705  0.00  0.00    +0.000 A 
ATOM     16  O   UNL     1       8.475  16.756  18.095  0.00  0.00    +0.000 OA
ENDBRANCH  10  12
ENDBRANCH   9  10
ENDBRANCH   6   9
ENDBRANCH   2   3
BRANCH   1  19
ATOM     17  O   UNL     1       5.911   6.877  16.261  0.00  0.00    +0.000 OA
ATOM     18  C   UNL     1       6.529   6.478  17.249  0.00  0.00    +0.000 C 
ATOM     19  N   UNL     1       7.524   7.179  17.929  0.00  0.00    +0.000 N 
ATOM     20  H   UNL     1       8.207   6.635  18.451  0.00  0.00    +0.000 HD
BRANCH  18  21
ATOM     21  C   UNL     1       6.191   5.142  17.892  0.00  0.00    +0.000 C 
BRANCH  21  22
ATOM     22  O   UNL     1       4.871   4.726  17.564  0.00  0.00    +0.000 OA
BRANCH  22  23
ATOM     23  C   UNL     1       3.931   4.979  18.529  0.00  0.00    +0.000 A 
ATOM     24  C   UNL     1       3.316   6.226  18.688  0.00  0.00    +0.000 A 
ATOM     25  C   UNL     1       2.363   6.438  19.687  0.00  0.00    +0.000 A 
ATOM     26  C   UNL     1       1.981   5.396  20.528  0.00  0.00    +0.000 A 
ATOM     27  C   UNL     1       2.541   4.132  20.363  0.00  0.00    +0.000 A 
ATOM     28  C   UNL     1       3.507   3.937  19.363  0.00  0.00    +0.000 A 
BRANCH  28  29
ATOM     29  N   UNL     1       4.092   2.615  19.241  0.00  0.00    +0.000 N 
ATOM     30  O   UNL     1       4.981   2.310  20.047  0.00  0.00    +0.000 OA
ATOM     31  O   UNL     1       3.605   1.860  18.386  0.00  0.00    +0.000 OA
ENDBRANCH  28  29
ENDBRANCH  22  23
ENDBRANCH  21  22
ENDBRANCH  18  21
ENDBRANCH   1  19
TORSDOF 9
ENDMDL
MODEL 3
REMARK VINA RESULT:      -7.7      6.755     10.502
REMARK  Name = 
REMARK  9 active torsions:
REMARK  status: ('A' for Active; 'I' for Inactive)
REMARK    1  A    between atoms: C_2  and  C_3
REMARK    2  A    between atoms: C_3  and  O_4
REMARK    3  A    between atoms: O_4  and  C_5
REMARK    4  A    between atoms: C_10  and  N_11
REMARK    5  A    between atoms: N_14  and  N_15
REMARK    6  A    between atoms: C_16  and  C_17
REMARK    7  A    between atoms: C_20  and  O_21
REMARK    8  A    between atoms: O_21  and  C_22
REMARK    9  A    between atoms: C_22  and  C_24
REMARK                            x       y       z     vdW  Elec       q    Type
REMARK                         _______ _______ _______ _____ _____    ______ ____
ROOT
ATOM      1  N   UNL     1       1.158   7.007  21.061  0.00  0.00    +0.000 NA
ATOM      2  C   UNL     1       1.556   8.230  21.228  0.00  0.00    +0.000 C 
ENDROOT
BRANCH   2   3
ATOM      3  C   UNL     1       0.639   9.330  21.577  0.00  0.00    +0.000 A 
ATOM      4  C   UNL     1      -0.015   9.379  22.810  0.00  0.00    +0.000 A 
ATOM      5  C   UNL     1      -0.852  10.459  23.099  0.00  0.00    +0.000 A 
ATOM      6  C   UNL     1      -1.015  11.483  22.161  0.00  0.00    +0.000 A 
ATOM      7  C   UNL     1      -0.389  11.418  20.918  0.00  0.00    +0.000 A 
ATOM      8  C   UNL     1       0.453  10.344  20.631  0.00  0.00    +0.000 A 
BRANCH   6   9
ATOM      9  O   UNL     1      -1.892  12.524  22.527  0.00  0.00    +0.000 OA
BRANCH   9  10
ATOM     10  C   UNL     1      -3.131  12.699  21.906  0.00  0.00    +0.000 C 
ATOM     11  O   UNL     1      -3.314  12.848  20.701  0.00  0.00    +0.000 OA
BRANCH  10  12
ATOM     12  C   UNL     1      -4.182  12.676  22.896  0.00  0.00    +0.000 A 
ATOM     13  C   UNL     1      -4.114  12.702  24.277  0.00  0.00    +0.000 A 
ATOM     14  C   UNL     1      -5.447  12.651  24.752  0.00  0.00    +0.000 A 
ATOM     15  C   UNL     1      -6.248  12.595  23.636  0.00  0.00    +0.000 A 
ATOM     16  O   UNL     1      -5.494  12.612  22.508  0.00  0.00    +0.000 OA
ENDBRANCH  10  12
ENDBRANCH   9  10
ENDBRANCH   6   9
ENDBRANCH   2   3
BRANCH   1  19
ATOM     17  O   UNL     1       2.001   5.985  18.497  0.00  0.00    +0.000 OA
ATOM     18  C   UNL     1       2.511   5.631  19.560  0.00  0.00    +0.000 C 
ATOM     19  N   UNL     1       2.138   6.068  20.831  0.00  0.00    +0.000 N 
ATOM     20  H   UNL     1       2.841   6.026  21.566  0.00  0.00    +0.000 HD
BRANCH  18  21
ATOM     21  C   UNL     1       3.603   4.573  19.587  0.00  0.00    +0.000 C 
BRANCH  21  22
ATOM     22  O   UNL     1       4.890   5.149  19.401  0.00  0.00    +0.000 OA
BRANCH  22  23
ATOM     23  C   UNL     1       5.501   4.823  18.217  0.00  0.00    +0.000 A 
ATOM     24  C   UNL     1       4.834   4.180  17.167  0.00  0.00    +0.000 A 
ATOM     25  C   UNL     1       5.498   3.867  15.978  0.00  0.00    +0.000 A 
ATOM     26  C   UNL     1       6.833   4.220  15.803  0.00  0.00    +0.000 A 
ATOM     27  C   UNL     1       7.508   4.902  16.812  0.00  0.00    +0.000 A 
ATOM     28  C   UNL     1       6.832   5.199  18.006  0.00  0.00    +0.000 A 
BRANCH  28  29
ATOM     29  N   UNL     1       7.576   5.882  19.048  0.00  0.00    +0.000 N 
ATOM     30  O   UNL     1       7.683   5.308  20.140  0.00  0.00    +0.000 OA
ATOM     31  O   UNL     1       8.113   6.957  18.743  0.00  0.00    +0.000 OA
ENDBRANCH  28  29
ENDBRANCH  22  23
ENDBRANCH  21  22
ENDBRANCH  18  21
ENDBRANCH   1  19
TORSDOF 9
ENDMDL
MODEL 4
REMARK VINA RESULT:      -7.6      7.086     10.199
REMARK  Name = 
REMARK  9 active torsions:
REMARK  status: ('A' for Active; 'I' for Inactive)
REMARK    1  A    between atoms: C_2  and  C_3
REMARK    2  A    between atoms: C_3  and  O_4
REMARK    3  A    between atoms: O_4  and  C_5
REMARK    4  A    between atoms: C_10  and  N_11
REMARK    5  A    between atoms: N_14  and  N_15
REMARK    6  A    between atoms: C_16  and  C_17
REMARK    7  A    between atoms: C_20  and  O_21
REMARK    8  A    between atoms: O_21  and  C_22
REMARK    9  A    between atoms: C_22  and  C_24
REMARK                            x       y       z     vdW  Elec       q    Type
REMARK                         _______ _______ _______ _____ _____    ______ ____
ROOT
ATOM      1  N   UNL     1       1.451   9.405  17.720  0.00  0.00    +0.000 NA
ATOM      2  C   UNL     1       1.892   8.498  18.536  0.00  0.00    +0.000 C 
ENDROOT
BRANCH   2   3
ATOM      3  C   UNL     1       2.759   7.387  18.106  0.00  0.00    +0.000 A 
ATOM      4  C   UNL     1       2.476   6.061  18.442  0.00  0.00    +0.000 A 
ATOM      5  C   UNL     1       3.317   5.044  17.985  0.00  0.00    +0.000 A 
ATOM      6  C   UNL     1       4.422   5.361  17.188  0.00  0.00    +0.000 A 
ATOM      7  C   UNL     1       4.723   6.686  16.881  0.00  0.00    +0.000 A 
ATOM      8  C   UNL     1       3.880   7.702  17.330  0.00  0.00    +0.000 A 
BRANCH   6   9
ATOM      9  O   UNL     1       5.227   4.275  16.787  0.00  0.00    +0.000 OA
BRANCH   9  10
ATOM     10  C   UNL     1       6.586   4.429  16.504  0.00  0.00    +0.000 C 
ATOM     11  O   UNL     1       7.488   4.500  17.334  0.00  0.00    +0.000 OA
BRANCH  10  12
ATOM     12  C   UNL     1       6.784   4.491  15.075  0.00  0.00    +0.000 A 
ATOM     13  C   UNL     1       6.126   3.838  14.048  0.00  0.00    +0.000 A 
ATOM     14  C   UNL     1       6.731   4.263  12.841  0.00  0.00    +0.000 A 
ATOM     15  C   UNL     1       7.721   5.146  13.200  0.00  0.00    +0.000 A 
ATOM     16  O   UNL     1       7.760   5.295  14.548  0.00  0.00    +0.000 OA
ENDBRANCH  10  12
ENDBRANCH   9  10
ENDBRANCH   6   9
ENDBRANCH   2   3
BRANCH   1  19
ATOM     17  O   UNL     1      -1.368   9.923  17.375  0.00  0.00    +0.000 OA
ATOM     18  C   UNL     1      -0.640  10.617  18.086  0.00  0.00    +0.000 C 
ATOM     19  N   UNL     1       0.729  10.435  18.279  0.00  0.00    +0.000 N 
ATOM     20  H   UNL     1       1.132  10.791  19.142  0.00  0.00    +0.000 HD
BRANCH  18  21
ATOM     21  C   UNL     1      -1.188  11.845  18.797  0.00  0.00    +0.000 C 
BRANCH  21  22
ATOM     22  O   UNL     1      -1.954  11.486  19.941  0.00  0.00    +0.000 OA
BRANCH  22  23
ATOM     23  C   UNL     1      -1.958  12.418  20.946  0.00  0.00    +0.000 A 
ATOM     24  C   UNL     1      -2.798  13.538  20.945  0.00  0.00    +0.000 A 
ATOM     25  C   UNL     1      -2.766  14.463  21.993  0.00  0.00    +0.000 A 
ATOM     26  C   UNL     1      -1.917  14.267  23.078  0.00  0.00    +0.000 A 
ATOM     27  C   UNL     1      -1.104  13.138  23.129  0.00  0.00    +0.000 A 
ATOM     28  C   UNL     1      -1.137  12.224  22.064  0.00  0.00    +0.000 A 
BRANCH  28  29
ATOM     29  N   UNL     1      -0.254  11.075  22.135  0.00  0.00    +0.000 N 
ATOM     30  O   UNL     1      -0.680  10.066  22.712  0.00  0.00    +0.000 OA
ATOM     31  O   UNL     1       0.835  11.164  21.548  0.00  0.00    +0.000 OA
ENDBRANCH  28  29
ENDBRANCH  22  23
ENDBRANCH  21  22
ENDBRANCH  18  21
ENDBRANCH   1  19
TORSDOF 9
ENDMDL
MODEL 5
REMARK VINA RESULT:      -7.6      6.530      9.929
REMARK  Name = 
REMARK  9 active torsions:
REMARK  status: ('A' for Active; 'I' for Inactive)
REMARK    1  A    between atoms: C_2  and  C_3
REMARK    2  A    between atoms: C_3  and  O_4
REMARK    3  A    between atoms: O_4  and  C_5
REMARK    4  A    between atoms: C_10  and  N_11
REMARK    5  A    between atoms: N_14  and  N_15
REMARK    6  A    between atoms: C_16  and  C_17
REMARK    7  A    between atoms: C_20  and  O_21
REMARK    8  A    between atoms: O_21  and  C_22
REMARK    9  A    between atoms: C_22  and  C_24
REMARK                            x       y       z     vdW  Elec       q    Type
REMARK                         _______ _______ _______ _____ _____    ______ ____
ROOT
ATOM      1  N   UNL     1       1.763   6.757  20.642  0.00  0.00    +0.000 NA
ATOM      2  C   UNL     1       1.779   8.046  20.497  0.00  0.00    +0.000 C 
ENDROOT
BRANCH   2   3
ATOM      3  C   UNL     1       0.844   8.943  21.198  0.00  0.00    +0.000 A 
ATOM      4  C   UNL     1       0.637   8.858  22.577  0.00  0.00    +0.000 A 
ATOM      5  C   UNL     1      -0.240   9.752  23.195  0.00  0.00    +0.000 A 
ATOM      6  C   UNL     1      -0.890  10.728  22.433  0.00  0.00    +0.000 A 
ATOM      7  C   UNL     1      -0.709  10.792  21.053  0.00  0.00    +0.000 A 
ATOM      8  C   UNL     1       0.172   9.905  20.435  0.00  0.00    +0.000 A 
BRANCH   6   9
ATOM      9  O   UNL     1      -1.772  11.575  23.134  0.00  0.00    +0.000 OA
BRANCH   9  10
ATOM     10  C   UNL     1      -1.943  12.916  22.782  0.00  0.00    +0.000 C 
ATOM     11  O   UNL     1      -1.147  13.823  23.009  0.00  0.00    +0.000 OA
BRANCH  10  12
ATOM     12  C   UNL     1      -3.206  13.086  22.103  0.00  0.00    +0.000 A 
ATOM     13  C   UNL     1      -3.554  13.908  21.047  0.00  0.00    +0.000 A 
ATOM     14  C   UNL     1      -4.926  13.678  20.785  0.00  0.00    +0.000 A 
ATOM     15  C   UNL     1      -5.335  12.733  21.696  0.00  0.00    +0.000 A 
ATOM     16  O   UNL     1      -4.303  12.365  22.496  0.00  0.00    +0.000 OA
ENDBRANCH  10  12
ENDBRANCH   9  10
ENDBRANCH   6   9
ENDBRANCH   2   3
BRANCH   1  19
ATOM     17  O   UNL     1       2.389   3.959  20.974  0.00  0.00    +0.000 OA
ATOM     18  C   UNL     1       2.992   4.693  20.191  0.00  0.00    +0.000 C 
ATOM     19  N   UNL     1       2.755   6.054  19.998  0.00  0.00    +0.000 N 
ATOM     20  H   UNL     1       3.017   6.452  19.099  0.00  0.00    +0.000 HD
BRANCH  18  21
ATOM     21  C   UNL     1       4.162   4.167  19.374  0.00  0.00    +0.000 C 
BRANCH  21  22
ATOM     22  O   UNL     1       4.921   5.229  18.807  0.00  0.00    +0.000 OA
BRANCH  22  23
ATOM     23  C   UNL     1       5.460   4.958  17.576  0.00  0.00    +0.000 A 
ATOM     24  C   UNL     1       4.706   4.464  16.505  0.00  0.00    +0.000 A 
ATOM     25  C   UNL     1       5.299   4.202  15.267  0.00  0.00    +0.000 A 
ATOM     26  C   UNL     1       6.653   4.459  15.067  0.00  0.00    +0.000 A 
ATOM     27  C   UNL     1       7.417   4.994  16.101  0.00  0.00    +0.000 A 
ATOM     28  C   UNL     1       6.811   5.241  17.342  0.00  0.00    +0.000 A 
BRANCH  28  29
ATOM     29  N   UNL     1       7.645   5.769  18.405  0.00  0.00    +0.000 N 
ATOM     30  O   UNL     1       8.085   4.964  19.236  0.00  0.00    +0.000 OA
ATOM     31  O   UNL     1       7.916   6.978  18.360  0.00  0.00    +0.000 OA
ENDBRANCH  28  29
ENDBRANCH  22  23
ENDBRANCH  21  22
ENDBRANCH  18  21
ENDBRANCH   1  19
TORSDOF 9
ENDMDL
MODEL 6
REMARK VINA RESULT:      -7.6      2.148      2.959
REMARK  Name = 
REMARK  9 active torsions:
REMARK  status: ('A' for Active; 'I' for Inactive)
REMARK    1  A    between atoms: C_2  and  C_3
REMARK    2  A    between atoms: C_3  and  O_4
REMARK    3  A    between atoms: O_4  and  C_5
REMARK    4  A    between atoms: C_10  and  N_11
REMARK    5  A    between atoms: N_14  and  N_15
REMARK    6  A    between atoms: C_16  and  C_17
REMARK    7  A    between atoms: C_20  and  O_21
REMARK    8  A    between atoms: O_21  and  C_22
REMARK    9  A    between atoms: C_22  and  C_24
REMARK                            x       y       z     vdW  Elec       q    Type
REMARK                         _______ _______ _______ _____ _____    ______ ____
ROOT
ATOM      1  N   UNL     1       8.440   8.824  17.739  0.00  0.00    +0.000 NA
ATOM      2  C   UNL     1       8.765   9.713  18.626  0.00  0.00    +0.000 C 
ENDROOT
BRANCH   2   3
ATOM      3  C   UNL     1       9.487  10.952  18.290  0.00  0.00    +0.000 A 
ATOM      4  C   UNL     1      10.867  11.071  18.468  0.00  0.00    +0.000 A 
ATOM      5  C   UNL     1      11.506  12.259  18.107  0.00  0.00    +0.000 A 
ATOM      6  C   UNL     1      10.762  13.311  17.562  0.00  0.00    +0.000 A 
ATOM      7  C   UNL     1       9.380  13.205  17.415  0.00  0.00    +0.000 A 
ATOM      8  C   UNL     1       8.743  12.016  17.768  0.00  0.00    +0.000 A 
BRANCH   6   9
ATOM      9  O   UNL     1      11.482  14.480  17.245  0.00  0.00    +0.000 OA
BRANCH   9  10
ATOM     10  C   UNL     1      10.938  15.754  17.423  0.00  0.00    +0.000 C 
ATOM     11  O   UNL     1      10.475  16.466  16.537  0.00  0.00    +0.000 OA
BRANCH  10  12
ATOM     12  C   UNL     1      10.997  16.119  18.819  0.00  0.00    +0.000 A 
ATOM     13  C   UNL     1      10.017  16.614  19.660  0.00  0.00    +0.000 A 
ATOM     14  C   UNL     1      10.622  16.804  20.925  0.00  0.00    +0.000 A 
ATOM     15  C   UNL     1      11.933  16.417  20.783  0.00  0.00    +0.000 A 
ATOM     16  O   UNL     1      12.171  15.997  19.515  0.00  0.00    +0.000 OA
ENDBRANCH  10  12
ENDBRANCH   9  10
ENDBRANCH   6   9
ENDBRANCH   2   3
BRANCH   1  19
ATOM     17  O   UNL     1       7.598   6.539  16.189  0.00  0.00    +0.000 OA
ATOM     18  C   UNL     1       7.328   6.676  17.383  0.00  0.00    +0.000 C 
ATOM     19  N   UNL     1       7.685   7.762  18.182  0.00  0.00    +0.000 N 
ATOM     20  H   UNL     1       7.758   7.601  19.184  0.00  0.00    +0.000 HD
BRANCH  18  21
ATOM     21  C   UNL     1       6.472   5.651  18.111  0.00  0.00    +0.000 C 
BRANCH  21  22
ATOM     22  O   UNL     1       5.141   6.118  18.290  0.00  0.00    +0.000 OA
BRANCH  22  23
ATOM     23  C   UNL     1       4.166   5.185  18.049  0.00  0.00    +0.000 A 
ATOM     24  C   UNL     1       4.448   3.876  17.638  0.00  0.00    +0.000 A 
ATOM     25  C   UNL     1       3.421   2.958  17.404  0.00  0.00    +0.000 A 
ATOM     26  C   UNL     1       2.092   3.321  17.607  0.00  0.00    +0.000 A 
ATOM     27  C   UNL     1       1.785   4.602  18.060  0.00  0.00    +0.000 A 
ATOM     28  C   UNL     1       2.826   5.517  18.279  0.00  0.00    +0.000 A 
BRANCH  28  29
ATOM     29  N   UNL     1       2.466   6.852  18.721  0.00  0.00    +0.000 N 
ATOM     30  O   UNL     1       2.331   7.721  17.850  0.00  0.00    +0.000 OA
ATOM     31  O   UNL     1       2.248   7.004  19.932  0.00  0.00    +0.000 OA
ENDBRANCH  28  29
ENDBRANCH  22  23
ENDBRANCH  21  22
ENDBRANCH  18  21
ENDBRANCH   1  19
TORSDOF 9
ENDMDL
MODEL 7
REMARK VINA RESULT:      -7.5      2.493     11.434
REMARK  Name = 
REMARK  9 active torsions:
REMARK  status: ('A' for Active; 'I' for Inactive)
REMARK    1  A    between atoms: C_2  and  C_3
REMARK    2  A    between atoms: C_3  and  O_4
REMARK    3  A    between atoms: O_4  and  C_5
REMARK    4  A    between atoms: C_10  and  N_11
REMARK    5  A    between atoms: N_14  and  N_15
REMARK    6  A    between atoms: C_16  and  C_17
REMARK    7  A    between atoms: C_20  and  O_21
REMARK    8  A    between atoms: O_21  and  C_22
REMARK    9  A    between atoms: C_22  and  C_24
REMARK                            x       y       z     vdW  Elec       q    Type
REMARK                         _______ _______ _______ _____ _____    ______ ____
ROOT
ATOM      1  N   UNL     1       8.350   8.611  18.332  0.00  0.00    +0.000 NA
ATOM      2  C   UNL     1       7.457   8.205  17.485  0.00  0.00    +0.000 C 
ENDROOT
BRANCH   2   3
ATOM      3  C   UNL     1       6.720   6.939  17.641  0.00  0.00    +0.000 A 
ATOM      4  C   UNL     1       5.403   6.794  17.198  0.00  0.00    +0.000 A 
ATOM      5  C   UNL     1       4.761   5.563  17.347  0.00  0.00    +0.000 A 
ATOM      6  C   UNL     1       5.445   4.487  17.925  0.00  0.00    +0.000 A 
ATOM      7  C   UNL     1       6.746   4.641  18.397  0.00  0.00    +0.000 A 
ATOM      8  C   UNL     1       7.391   5.868  18.243  0.00  0.00    +0.000 A 
BRANCH   6   9
ATOM      9  O   UNL     1       4.716   3.288  18.054  0.00  0.00    +0.000 OA
BRANCH   9  10
ATOM     10  C   UNL     1       4.257   2.833  19.292  0.00  0.00    +0.000 C 
ATOM     11  O   UNL     1       4.958   2.388  20.197  0.00  0.00    +0.000 OA
BRANCH  10  12
ATOM     12  C   UNL     1       2.820   2.964  19.360  0.00  0.00    +0.000 A 
ATOM     13  C   UNL     1       1.829   2.392  18.584  0.00  0.00    +0.000 A 
ATOM     14  C   UNL     1       0.593   2.871  19.083  0.00  0.00    +0.000 A 
ATOM     15  C   UNL     1       0.902   3.706  20.129  0.00  0.00    +0.000 A 
ATOM     16  O   UNL     1       2.245   3.769  20.309  0.00  0.00    +0.000 OA
ENDBRANCH  10  12
ENDBRANCH   9  10
ENDBRANCH   6   9
ENDBRANCH   2   3
BRANCH   1  19
ATOM     17  O   UNL     1       9.351  10.444  20.325  0.00  0.00    +0.000 OA
ATOM     18  C   UNL     1       9.373  10.687  19.118  0.00  0.00    +0.000 C 
ATOM     19  N   UNL     1       8.889   9.858  18.107  0.00  0.00    +0.000 N 
ATOM     20  H   UNL     1       9.293   9.964  17.180  0.00  0.00    +0.000 HD
BRANCH  18  21
ATOM     21  C   UNL     1       9.893  12.020  18.602  0.00  0.00    +0.000 C 
BRANCH  21  22
ATOM     22  O   UNL     1       8.929  13.053  18.762  0.00  0.00    +0.000 OA
BRANCH  22  23
ATOM     23  C   UNL     1       9.382  14.314  18.473  0.00  0.00    +0.000 A 
ATOM     24  C   UNL     1      10.733  14.607  18.253  0.00  0.00    +0.000 A 
ATOM     25  C   UNL     1      11.150  15.909  17.961  0.00  0.00    +0.000 A 
ATOM     26  C   UNL     1      10.218  16.937  17.851  0.00  0.00    +0.000 A 
ATOM     27  C   UNL     1       8.862  16.666  18.018  0.00  0.00    +0.000 A 
ATOM     28  C   UNL     1       8.460  15.357  18.323  0.00  0.00    +0.000 A 
BRANCH  28  29
ATOM     29  N   UNL     1       7.043  15.117  18.522  0.00  0.00    +0.000 N 
ATOM     30  O   UNL     1       6.571  15.387  19.635  0.00  0.00    +0.000 OA
ATOM     31  O   UNL     1       6.394  14.731  17.539  0.00  0.00    +0.000 OA
ENDBRANCH  28  29
ENDBRANCH  22  23
ENDBRANCH  21  22
ENDBRANCH  18  21
ENDBRANCH   1  19
TORSDOF 9
ENDMDL
MODEL 8
REMARK VINA RESULT:      -7.5      2.071     11.426
REMARK  Name = 
REMARK  9 active torsions:
REMARK  status: ('A' for Active; 'I' for Inactive)
REMARK    1  A    between atoms: C_2  and  C_3
REMARK    2  A    between atoms: C_3  and  O_4
REMARK    3  A    between atoms: O_4  and  C_5
REMARK    4  A    between atoms: C_10  and  N_11
REMARK    5  A    between atoms: N_14  and  N_15
REMARK    6  A    between atoms: C_16  and  C_17
REMARK    7  A    between atoms: C_20  and  O_21
REMARK    8  A    between atoms: O_21  and  C_22
REMARK    9  A    between atoms: C_22  and  C_24
REMARK                            x       y       z     vdW  Elec       q    Type
REMARK                         _______ _______ _______ _____ _____    ______ ____
ROOT
ATOM      1  N   UNL     1       8.139   8.514  18.016  0.00  0.00    +0.000 NA
ATOM      2  C   UNL     1       7.186   8.021  17.287  0.00  0.00    +0.000 C 
ENDROOT
BRANCH   2   3
ATOM      3  C   UNL     1       6.562   6.714  17.560  0.00  0.00    +0.000 A 
ATOM      4  C   UNL     1       7.176   5.763  18.379  0.00  0.00    +0.000 A 
ATOM      5  C   UNL     1       6.527   4.551  18.626  0.00  0.00    +0.000 A 
ATOM      6  C   UNL     1       5.270   4.308  18.064  0.00  0.00    +0.000 A 
ATOM      7  C   UNL     1       4.672   5.243  17.221  0.00  0.00    +0.000 A 
ATOM      8  C   UNL     1       5.316   6.456  16.979  0.00  0.00    +0.000 A 
BRANCH   6   9
ATOM      9  O   UNL     1       4.696   3.052  18.350  0.00  0.00    +0.000 OA
BRANCH   9  10
ATOM     10  C   UNL     1       4.310   2.694  19.644  0.00  0.00    +0.000 C 
ATOM     11  O   UNL     1       4.979   2.033  20.433  0.00  0.00    +0.000 OA
BRANCH  10  12
ATOM     12  C   UNL     1       2.996   3.222  19.925  0.00  0.00    +0.000 A 
ATOM     13  C   UNL     1       1.744   2.697  19.665  0.00  0.00    +0.000 A 
ATOM     14  C   UNL     1       0.800   3.636  20.147  0.00  0.00    +0.000 A 
ATOM     15  C   UNL     1       1.530   4.677  20.670  0.00  0.00    +0.000 A 
ATOM     16  O   UNL     1       2.859   4.436  20.545  0.00  0.00    +0.000 OA
ENDBRANCH  10  12
ENDBRANCH   9  10
ENDBRANCH   6   9
ENDBRANCH   2   3
BRANCH   1  19
ATOM     17  O   UNL     1       9.476  10.376  19.769  0.00  0.00    +0.000 OA
ATOM     18  C   UNL     1       9.220  10.629  18.591  0.00  0.00    +0.000 C 
ATOM     19  N   UNL     1       8.560   9.785  17.699  0.00  0.00    +0.000 N 
ATOM     20  H   UNL     1       8.744   9.916  16.707  0.00  0.00    +0.000 HD
BRANCH  18  21
ATOM     21  C   UNL     1       9.555  11.988  17.995  0.00  0.00    +0.000 C 
BRANCH  21  22
ATOM     22  O   UNL     1      10.530  12.672  18.773  0.00  0.00    +0.000 OA
BRANCH  22  23
ATOM     23  C   UNL     1      10.694  13.995  18.456  0.00  0.00    +0.000 A 
ATOM     24  C   UNL     1      11.303  14.427  17.272  0.00  0.00    +0.000 A 
ATOM     25  C   UNL     1      11.449  15.788  16.991  0.00  0.00    +0.000 A 
ATOM     26  C   UNL     1      10.959  16.745  17.875  0.00  0.00    +0.000 A 
ATOM     27  C   UNL     1      10.306  16.345  19.038  0.00  0.00    +0.000 A 
ATOM     28  C   UNL     1      10.178  14.975  19.314  0.00  0.00    +0.000 A 
BRANCH  28  29
ATOM     29  N   UNL     1       9.520  14.595  20.550  0.00  0.00    +0.000 N 
ATOM     30  O   UNL     1      10.218  14.544  21.572  0.00  0.00    +0.000 OA
ATOM     31  O   UNL     1       8.293  14.423  20.505  0.00  0.00    +0.000 OA
ENDBRANCH  28  29
ENDBRANCH  22  23
ENDBRANCH  21  22
ENDBRANCH  18  21
ENDBRANCH   1  19
TORSDOF 9
ENDMDL
MODEL 9
REMARK VINA RESULT:      -7.5      6.905      9.857
REMARK  Name = 
REMARK  9 active torsions:
REMARK  status: ('A' for Active; 'I' for Inactive)
REMARK    1  A    between atoms: C_2  and  C_3
REMARK    2  A    between atoms: C_3  and  O_4
REMARK    3  A    between atoms: O_4  and  C_5
REMARK    4  A    between atoms: C_10  and  N_11
REMARK    5  A    between atoms: N_14  and  N_15
REMARK    6  A    between atoms: C_16  and  C_17
REMARK    7  A    between atoms: C_20  and  O_21
REMARK    8  A    between atoms: O_21  and  C_22
REMARK    9  A    between atoms: C_22  and  C_24
REMARK                            x       y       z     vdW  Elec       q    Type
REMARK                         _______ _______ _______ _____ _____    ______ ____
ROOT
ATOM      1  N   UNL     1       1.505   7.093  20.895  0.00  0.00    +0.000 NA
ATOM      2  C   UNL     1       1.445   8.340  20.542  0.00  0.00    +0.000 C 
ENDROOT
BRANCH   2   3
ATOM      3  C   UNL     1       0.673   9.348  21.290  0.00  0.00    +0.000 A 
ATOM      4  C   UNL     1      -0.030   9.022  22.452  0.00  0.00    +0.000 A 
ATOM      5  C   UNL     1      -0.723  10.022  23.138  0.00  0.00    +0.000 A 
ATOM      6  C   UNL     1      -0.696  11.337  22.663  0.00  0.00    +0.000 A 
ATOM      7  C   UNL     1      -0.022  11.657  21.486  0.00  0.00    +0.000 A 
ATOM      8  C   UNL     1       0.676  10.660  20.804  0.00  0.00    +0.000 A 
BRANCH   6   9
ATOM      9  O   UNL     1      -1.438  12.279  23.404  0.00  0.00    +0.000 OA
BRANCH   9  10
ATOM     10  C   UNL     1      -2.607  12.856  22.905  0.00  0.00    +0.000 C 
ATOM     11  O   UNL     1      -3.369  12.342  22.090  0.00  0.00    +0.000 OA
BRANCH  10  12
ATOM     12  C   UNL     1      -2.799  14.161  23.493  0.00  0.00    +0.000 A 
ATOM     13  C   UNL     1      -2.564  15.422  22.976  0.00  0.00    +0.000 A 
ATOM     14  C   UNL     1      -2.920  16.349  23.985  0.00  0.00    +0.000 A 
ATOM     15  C   UNL     1      -3.347  15.602  25.056  0.00  0.00    +0.000 A 
ATOM     16  O   UNL     1      -3.282  14.278  24.770  0.00  0.00    +0.000 OA
ENDBRANCH  10  12
ENDBRANCH   9  10
ENDBRANCH   6   9
ENDBRANCH   2   3
BRANCH   1  19
ATOM     17  O   UNL     1       2.215   4.356  21.472  0.00  0.00    +0.000 OA
ATOM     18  C   UNL     1       2.626   4.961  20.482  0.00  0.00    +0.000 C 
ATOM     19  N   UNL     1       2.340   6.286  20.156  0.00  0.00    +0.000 N 
ATOM     20  H   UNL     1       2.397   6.550  19.175  0.00  0.00    +0.000 HD
BRANCH  18  21
ATOM     21  C   UNL     1       3.596   4.301  19.513  0.00  0.00    +0.000 C 
BRANCH  21  22
ATOM     22  O   UNL     1       4.679   5.165  19.192  0.00  0.00    +0.000 OA
BRANCH  22  23
ATOM     23  C   UNL     1       5.315   4.876  18.012  0.00  0.00    +0.000 A 
ATOM     24  C   UNL     1       4.655   4.337  16.902  0.00  0.00    +0.000 A 
ATOM     25  C   UNL     1       5.345   4.058  15.719  0.00  0.00    +0.000 A 
ATOM     26  C   UNL     1       6.704   4.344  15.613  0.00  0.00    +0.000 A 
ATOM     27  C   UNL     1       7.376   4.924  16.686  0.00  0.00    +0.000 A 
ATOM     28  C   UNL     1       6.673   5.187  17.872  0.00  0.00    +0.000 A 
BRANCH  28  29
ATOM     29  N   UNL     1       7.413   5.762  18.979  0.00  0.00    +0.000 N 
ATOM     30  O   UNL     1       7.399   5.146  20.053  0.00  0.00    +0.000 OA
ATOM     31  O   UNL     1       8.067   6.790  18.746  0.00  0.00    +0.000 OA
ENDBRANCH  28  29
ENDBRANCH  22  23
ENDBRANCH  21  22
ENDBRANCH  18  21
ENDBRANCH   1  19
TORSDOF 9
ENDMDL
