MODEL 1
REMARK VINA RESULT:      -6.8      0.000      0.000
REMARK  Name = 
REMARK  9 active torsions:
REMARK  status: ('A' for Active; 'I' for Inactive)
REMARK    1  A    between atoms: C_1  and  N_2
REMARK    2  A    between atoms: N_5  and  C_6
REMARK    3  A    between atoms: C_6  and  C_7
REMARK    4  A    between atoms: C_7  and  C_8
REMARK    5  A    between atoms: C_7  and  O_9
REMARK    6  A    between atoms: C_7  and  C_10
REMARK    7  A    between atoms: C_13  and  N_14
REMARK    8  A    between atoms: N_14  and  S_15
REMARK    9  A    between atoms: S_15  and  C_16
REMARK                            x       y       z     vdW  Elec       q    Type
REMARK                         _______ _______ _______ _____ _____    ______ ____
ROOT
ATOM      1  C   UNL     1       5.376   4.838  17.159  0.00  0.00    +0.000 A 
ATOM      2  C   UNL     1       5.634   4.500  18.501  0.00  0.00    +0.000 A 
ATOM      3  C   UNL     1       4.761   3.698  19.236  0.00  0.00    +0.000 A 
ATOM      4  C   UNL     1       3.609   3.207  18.646  0.00  0.00    +0.000 A 
ATOM      5  C   UNL     1       3.336   3.488  17.310  0.00  0.00    +0.000 A 
ATOM      6  C   UNL     1       4.209   4.306  16.575  0.00  0.00    +0.000 A 
ENDROOT
BRANCH   1   7
ATOM      7  C   UNL     1       6.282   5.793  16.367  0.00  0.00    +0.000 C 
ATOM      8  C   UNL     1       6.822   6.930  17.263  0.00  0.00    +0.000 C 
BRANCH   7   9
ATOM      9  O   UNL     1       5.437   6.431  15.383  0.00  0.00    +0.000 OA
ATOM     10  H   UNL     1       5.120   7.280  15.738  0.00  0.00    +0.000 HD
ENDBRANCH   7   9
BRANCH   7  11
ATOM     11  C   UNL     1       7.458   5.056  15.643  0.00  0.00    +0.000 C 
BRANCH  11  16
ATOM     12  C   UNL     1       5.202   2.961  11.783  0.00  0.00    +0.000 C 
ATOM     13  N   UNL     1       6.226   3.663  12.542  0.00  0.00    +0.000 N 
ATOM     14  C   UNL     1       7.172   4.532  12.030  0.00  0.00    +0.000 A 
ATOM     15  C   UNL     1       7.748   5.156  13.102  0.00  0.00    +0.000 A 
ATOM     16  N   UNL     1       7.162   4.621  14.253  0.00  0.00    +0.000 N 
ATOM     17  C   UNL     1       6.235   3.733  13.868  0.00  0.00    +0.000 A 
ENDBRANCH  11  16
ENDBRANCH   7  11
ENDBRANCH   1   7
BRANCH   4  18
ATOM     18  N   UNL     1       2.730   2.447  19.454  0.00  0.00    +0.000 N 
ATOM     19  H   UNL     1       2.661   1.440  19.304  0.00  0.00    +0.000 HD
BRANCH  18  20
ATOM     20  S   UNL     1       1.307   3.163  20.006  0.00  0.00    +0.000 S 
ATOM     21  C   UNL     1       1.304   2.646  21.710  0.00  0.00    +0.000 C 
ATOM     22  O   UNL     1       1.404   4.596  19.940  0.00  0.00    +0.000 OA
ATOM     23  O   UNL     1       0.234   2.444  19.339  0.00  0.00    +0.000 OA
ENDBRANCH  18  20
ENDBRANCH   4  18
TORSDOF 6
ENDMDL
MODEL 2
REMARK VINA RESULT:      -6.8      0.915      1.446
REMARK  Name = 
REMARK  9 active torsions:
REMARK  status: ('A' for Active; 'I' for Inactive)
REMARK    1  A    between atoms: C_1  and  N_2
REMARK    2  A    between atoms: N_5  and  C_6
REMARK    3  A    between atoms: C_6  and  C_7
REMARK    4  A    between atoms: C_7  and  C_8
REMARK    5  A    between atoms: C_7  and  O_9
REMARK    6  A    between atoms: C_7  and  C_10
REMARK    7  A    between atoms: C_13  and  N_14
REMARK    8  A    between atoms: N_14  and  S_15
REMARK    9  A    between atoms: S_15  and  C_16
REMARK                            x       y       z     vdW  Elec       q    Type
REMARK                         _______ _______ _______ _____ _____    ______ ____
ROOT
ATOM      1  C   UNL     1       5.330   5.005  17.405  0.00  0.00    +0.000 A 
ATOM      2  C   UNL     1       4.206   4.277  16.969  0.00  0.00    +0.000 A 
ATOM      3  C   UNL     1       3.459   3.489  17.844  0.00  0.00    +0.000 A 
ATOM      4  C   UNL     1       3.813   3.411  19.181  0.00  0.00    +0.000 A 
ATOM      5  C   UNL     1       4.896   4.144  19.659  0.00  0.00    +0.000 A 
ATOM      6  C   UNL     1       5.655   4.928  18.773  0.00  0.00    +0.000 A 
ENDROOT
BRANCH   1   7
ATOM      7  C   UNL     1       6.213   5.805  16.435  0.00  0.00    +0.000 C 
ATOM      8  C   UNL     1       6.829   7.043  17.122  0.00  0.00    +0.000 C 
BRANCH   7   9
ATOM      9  O   UNL     1       5.331   6.316  15.411  0.00  0.00    +0.000 OA
ATOM     10  H   UNL     1       5.806   6.330  14.560  0.00  0.00    +0.000 HD
ENDBRANCH   7   9
BRANCH   7  11
ATOM     11  C   UNL     1       7.330   4.931  15.771  0.00  0.00    +0.000 C 
BRANCH  11  16
ATOM     12  C   UNL     1       5.130   3.015  11.787  0.00  0.00    +0.000 C 
ATOM     13  N   UNL     1       6.151   3.662  12.596  0.00  0.00    +0.000 N 
ATOM     14  C   UNL     1       7.141   4.511  12.137  0.00  0.00    +0.000 A 
ATOM     15  C   UNL     1       7.704   5.088  13.243  0.00  0.00    +0.000 A 
ATOM     16  N   UNL     1       7.064   4.543  14.361  0.00  0.00    +0.000 N 
ATOM     17  C   UNL     1       6.121   3.697  13.923  0.00  0.00    +0.000 A 
ENDBRANCH  11  16
ENDBRANCH   7  11
ENDBRANCH   1   7
BRANCH   4  18
ATOM     18  N   UNL     1       3.056   2.551  20.012  0.00  0.00    +0.000 N 
ATOM     19  H   UNL     1       3.083   1.545  19.842  0.00  0.00    +0.000 HD
BRANCH  18  20
ATOM     20  S   UNL     1       1.597   3.107  20.644  0.00  0.00    +0.000 S 
ATOM     21  C   UNL     1       1.932   4.849  20.795  0.00  0.00    +0.000 C 
ATOM     22  O   UNL     1       0.528   2.905  19.703  0.00  0.00    +0.000 OA
ATOM     23  O   UNL     1       1.532   2.565  21.992  0.00  0.00    +0.000 OA
ENDBRANCH  18  20
ENDBRANCH   4  18
TORSDOF 6
ENDMDL
MODEL 3
REMARK VINA RESULT:      -6.6      0.969      1.182
REMARK  Name = 
REMARK  9 active torsions:
REMARK  status: ('A' for Active; 'I' for Inactive)
REMARK    1  A    between atoms: C_1  and  N_2
REMARK    2  A    between atoms: N_5  and  C_6
REMARK    3  A    between atoms: C_6  and  C_7
REMARK    4  A    between atoms: C_7  and  C_8
REMARK    5  A    between atoms: C_7  and  O_9
REMARK    6  A    between atoms: C_7  and  C_10
REMARK    7  A    between atoms: C_13  and  N_14
REMARK    8  A    between atoms: N_14  and  S_15
REMARK    9  A    between atoms: S_15  and  C_16
REMARK                            x       y       z     vdW  Elec       q    Type
REMARK                         _______ _______ _______ _____ _____    ______ ____
ROOT
ATOM      1  C   UNL     1       5.380   4.904  17.335  0.00  0.00    +0.000 A 
ATOM      2  C   UNL     1       5.858   4.511  18.599  0.00  0.00    +0.000 A 
ATOM      3  C   UNL     1       5.096   3.718  19.457  0.00  0.00    +0.000 A 
ATOM      4  C   UNL     1       3.836   3.294  19.072  0.00  0.00    +0.000 A 
ATOM      5  C   UNL     1       3.341   3.632  17.816  0.00  0.00    +0.000 A 
ATOM      6  C   UNL     1       4.104   4.440  16.957  0.00  0.00    +0.000 A 
ENDROOT
BRANCH   1   7
ATOM      7  C   UNL     1       6.171   5.850  16.419  0.00  0.00    +0.000 C 
ATOM      8  C   UNL     1       6.639   7.111  17.179  0.00  0.00    +0.000 C 
BRANCH   7   9
ATOM      9  O   UNL     1       5.241   6.314  15.414  0.00  0.00    +0.000 OA
ATOM     10  H   UNL     1       5.214   5.670  14.684  0.00  0.00    +0.000 HD
ENDBRANCH   7   9
BRANCH   7  11
ATOM     11  C   UNL     1       7.382   5.146  15.720  0.00  0.00    +0.000 C 
BRANCH  11  16
ATOM     12  C   UNL     1       5.203   2.953  11.870  0.00  0.00    +0.000 C 
ATOM     13  N   UNL     1       6.214   3.670  12.633  0.00  0.00    +0.000 N 
ATOM     14  C   UNL     1       7.180   4.515  12.118  0.00  0.00    +0.000 A 
ATOM     15  C   UNL     1       7.735   5.168  13.184  0.00  0.00    +0.000 A 
ATOM     16  N   UNL     1       7.116   4.672  14.337  0.00  0.00    +0.000 N 
ATOM     17  C   UNL     1       6.191   3.780  13.956  0.00  0.00    +0.000 A 
ENDBRANCH  11  16
ENDBRANCH   7  11
ENDBRANCH   1   7
BRANCH   4  18
ATOM     18  N   UNL     1       3.082   2.542  20.005  0.00  0.00    +0.000 N 
ATOM     19  H   UNL     1       2.831   1.579  19.780  0.00  0.00    +0.000 HD
BRANCH  18  20
ATOM     20  S   UNL     1       1.962   3.340  20.979  0.00  0.00    +0.000 S 
ATOM     21  C   UNL     1       0.529   3.338  19.922  0.00  0.00    +0.000 C 
ATOM     22  O   UNL     1       1.684   2.573  22.163  0.00  0.00    +0.000 OA
ATOM     23  O   UNL     1       2.434   4.713  21.058  0.00  0.00    +0.000 OA
ENDBRANCH  18  20
ENDBRANCH   4  18
TORSDOF 6
ENDMDL
MODEL 4
REMARK VINA RESULT:      -6.6      1.445      1.785
REMARK  Name = 
REMARK  9 active torsions:
REMARK  status: ('A' for Active; 'I' for Inactive)
REMARK    1  A    between atoms: C_1  and  N_2
REMARK    2  A    between atoms: N_5  and  C_6
REMARK    3  A    between atoms: C_6  and  C_7
REMARK    4  A    between atoms: C_7  and  C_8
REMARK    5  A    between atoms: C_7  and  O_9
REMARK    6  A    between atoms: C_7  and  C_10
REMARK    7  A    between atoms: C_13  and  N_14
REMARK    8  A    between atoms: N_14  and  S_15
REMARK    9  A    between atoms: S_15  and  C_16
REMARK                            x       y       z     vdW  Elec       q    Type
REMARK                         _______ _______ _______ _____ _____    ______ ____
ROOT
ATOM      1  C   UNL     1       5.198   5.729  17.604  0.00  0.00    +0.000 A 
ATOM      2  C   UNL     1       3.854   5.680  17.188  0.00  0.00    +0.000 A 
ATOM      3  C   UNL     1       2.834   5.275  18.050  0.00  0.00    +0.000 A 
ATOM      4  C   UNL     1       3.132   4.912  19.353  0.00  0.00    +0.000 A 
ATOM      5  C   UNL     1       4.444   4.981  19.813  0.00  0.00    +0.000 A 
ATOM      6  C   UNL     1       5.471   5.378  18.941  0.00  0.00    +0.000 A 
ENDROOT
BRANCH   1   7
ATOM      7  C   UNL     1       6.340   6.086  16.640  0.00  0.00    +0.000 C 
ATOM      8  C   UNL     1       7.308   7.112  17.268  0.00  0.00    +0.000 C 
BRANCH   7   9
ATOM      9  O   UNL     1       5.726   6.755  15.515  0.00  0.00    +0.000 OA
ATOM     10  H   UNL     1       6.100   7.651  15.436  0.00  0.00    +0.000 HD
ENDBRANCH   7   9
BRANCH   7  11
ATOM     11  C   UNL     1       7.123   4.828  16.133  0.00  0.00    +0.000 C 
BRANCH  11  16
ATOM     12  C   UNL     1       5.052   3.185  11.963  0.00  0.00    +0.000 C 
ATOM     13  N   UNL     1       6.062   3.738  12.853  0.00  0.00    +0.000 N 
ATOM     14  C   UNL     1       7.131   4.533  12.483  0.00  0.00    +0.000 A 
ATOM     15  C   UNL     1       7.661   5.037  13.639  0.00  0.00    +0.000 A 
ATOM     16  N   UNL     1       6.919   4.502  14.698  0.00  0.00    +0.000 N 
ATOM     17  C   UNL     1       5.952   3.735  14.176  0.00  0.00    +0.000 A 
ENDBRANCH  11  16
ENDBRANCH   7  11
ENDBRANCH   1   7
BRANCH   4  18
ATOM     18  N   UNL     1       2.068   4.453  20.166  0.00  0.00    +0.000 N 
ATOM     19  H   UNL     1       1.799   4.996  20.986  0.00  0.00    +0.000 HD
BRANCH  18  20
ATOM     20  S   UNL     1       1.821   2.794  20.323  0.00  0.00    +0.000 S 
ATOM     21  C   UNL     1       0.634   2.501  19.028  0.00  0.00    +0.000 C 
ATOM     22  O   UNL     1       3.032   2.073  20.034  0.00  0.00    +0.000 OA
ATOM     23  O   UNL     1       1.124   2.629  21.588  0.00  0.00    +0.000 OA
ENDBRANCH  18  20
ENDBRANCH   4  18
TORSDOF 6
ENDMDL
MODEL 5
REMARK VINA RESULT:      -6.5      1.212      1.223
REMARK  Name = 
REMARK  9 active torsions:
REMARK  status: ('A' for Active; 'I' for Inactive)
REMARK    1  A    between atoms: C_1  and  N_2
REMARK    2  A    between atoms: N_5  and  C_6
REMARK    3  A    between atoms: C_6  and  C_7
REMARK    4  A    between atoms: C_7  and  C_8
REMARK    5  A    between atoms: C_7  and  O_9
REMARK    6  A    between atoms: C_7  and  C_10
REMARK    7  A    between atoms: C_13  and  N_14
REMARK    8  A    between atoms: N_14  and  S_15
REMARK    9  A    between atoms: S_15  and  C_16
REMARK                            x       y       z     vdW  Elec       q    Type
REMARK                         _______ _______ _______ _____ _____    ______ ____
ROOT
ATOM      1  C   UNL     1       5.146   5.449  17.441  0.00  0.00    +0.000 A 
ATOM      2  C   UNL     1       5.148   5.732  18.821  0.00  0.00    +0.000 A 
ATOM      3  C   UNL     1       4.108   5.320  19.655  0.00  0.00    +0.000 A 
ATOM      4  C   UNL     1       3.041   4.611  19.132  0.00  0.00    +0.000 A 
ATOM      5  C   UNL     1       3.019   4.280  17.780  0.00  0.00    +0.000 A 
ATOM      6  C   UNL     1       4.061   4.705  16.938  0.00  0.00    +0.000 A 
ENDROOT
BRANCH   1   7
ATOM      7  C   UNL     1       6.240   5.973  16.497  0.00  0.00    +0.000 C 
ATOM      8  C   UNL     1       7.079   7.083  17.168  0.00  0.00    +0.000 C 
BRANCH   7   9
ATOM      9  O   UNL     1       5.553   6.606  15.394  0.00  0.00    +0.000 OA
ATOM     10  H   UNL     1       5.386   7.539  15.617  0.00  0.00    +0.000 HD
ENDBRANCH   7   9
BRANCH   7  11
ATOM     11  C   UNL     1       7.166   4.836  15.950  0.00  0.00    +0.000 C 
BRANCH  11  16
ATOM     12  C   UNL     1       5.088   3.100  11.821  0.00  0.00    +0.000 C 
ATOM     13  N   UNL     1       6.094   3.687  12.694  0.00  0.00    +0.000 N 
ATOM     14  C   UNL     1       7.137   4.506  12.303  0.00  0.00    +0.000 A 
ATOM     15  C   UNL     1       7.668   5.034  13.448  0.00  0.00    +0.000 A 
ATOM     16  N   UNL     1       6.954   4.491  14.521  0.00  0.00    +0.000 N 
ATOM     17  C   UNL     1       6.000   3.694  14.018  0.00  0.00    +0.000 A 
ENDBRANCH  11  16
ENDBRANCH   7  11
ENDBRANCH   1   7
BRANCH   4  18
ATOM     18  N   UNL     1       1.985   4.270  20.011  0.00  0.00    +0.000 N 
ATOM     19  H   UNL     1       1.599   4.986  20.626  0.00  0.00    +0.000 HD
BRANCH  18  20
ATOM     20  S   UNL     1       1.925   2.709  20.645  0.00  0.00    +0.000 S 
ATOM     21  C   UNL     1       3.656   2.294  20.691  0.00  0.00    +0.000 C 
ATOM     22  O   UNL     1       1.401   2.727  21.984  0.00  0.00    +0.000 OA
ATOM     23  O   UNL     1       1.317   1.897  19.603  0.00  0.00    +0.000 OA
ENDBRANCH  18  20
ENDBRANCH   4  18
TORSDOF 6
ENDMDL
MODEL 6
REMARK VINA RESULT:      -6.5      1.570      1.607
REMARK  Name = 
REMARK  9 active torsions:
REMARK  status: ('A' for Active; 'I' for Inactive)
REMARK    1  A    between atoms: C_1  and  N_2
REMARK    2  A    between atoms: N_5  and  C_6
REMARK    3  A    between atoms: C_6  and  C_7
REMARK    4  A    between atoms: C_7  and  C_8
REMARK    5  A    between atoms: C_7  and  O_9
REMARK    6  A    between atoms: C_7  and  C_10
REMARK    7  A    between atoms: C_13  and  N_14
REMARK    8  A    between atoms: N_14  and  S_15
REMARK    9  A    between atoms: S_15  and  C_16
REMARK                            x       y       z     vdW  Elec       q    Type
REMARK                         _______ _______ _______ _____ _____    ______ ____
ROOT
ATOM      1  C   UNL     1       5.212   5.587  17.678  0.00  0.00    +0.000 A 
ATOM      2  C   UNL     1       5.490   4.549  18.589  0.00  0.00    +0.000 A 
ATOM      3  C   UNL     1       4.582   4.181  19.581  0.00  0.00    +0.000 A 
ATOM      4  C   UNL     1       3.368   4.840  19.687  0.00  0.00    +0.000 A 
ATOM      5  C   UNL     1       3.041   5.847  18.785  0.00  0.00    +0.000 A 
ATOM      6  C   UNL     1       3.961   6.225  17.793  0.00  0.00    +0.000 A 
ENDROOT
BRANCH   1   7
ATOM      7  C   UNL     1       6.240   6.060  16.639  0.00  0.00    +0.000 C 
ATOM      8  C   UNL     1       7.105   7.217  17.188  0.00  0.00    +0.000 C 
BRANCH   7   9
ATOM      9  O   UNL     1       5.480   6.618  15.543  0.00  0.00    +0.000 OA
ATOM     10  H   UNL     1       6.054   7.214  15.029  0.00  0.00    +0.000 HD
ENDBRANCH   7   9
BRANCH   7  11
ATOM     11  C   UNL     1       7.145   4.899  16.107  0.00  0.00    +0.000 C 
BRANCH  11  16
ATOM     12  C   UNL     1       5.126   3.146  11.956  0.00  0.00    +0.000 C 
ATOM     13  N   UNL     1       6.114   3.749  12.838  0.00  0.00    +0.000 N 
ATOM     14  C   UNL     1       7.142   4.593  12.458  0.00  0.00    +0.000 A 
ATOM     15  C   UNL     1       7.655   5.125  13.608  0.00  0.00    +0.000 A 
ATOM     16  N   UNL     1       6.948   4.559  14.674  0.00  0.00    +0.000 N 
ATOM     17  C   UNL     1       6.014   3.745  14.161  0.00  0.00    +0.000 A 
ENDBRANCH  11  16
ENDBRANCH   7  11
ENDBRANCH   1   7
BRANCH   4  18
ATOM     18  N   UNL     1       2.510   4.467  20.750  0.00  0.00    +0.000 N 
ATOM     19  H   UNL     1       2.408   5.091  21.549  0.00  0.00    +0.000 HD
BRANCH  18  20
ATOM     20  S   UNL     1       2.340   2.832  21.123  0.00  0.00    +0.000 S 
ATOM     21  C   UNL     1       1.727   2.192  19.578  0.00  0.00    +0.000 C 
ATOM     22  O   UNL     1       3.620   2.243  21.410  0.00  0.00    +0.000 OA
ATOM     23  O   UNL     1       1.245   2.769  22.077  0.00  0.00    +0.000 OA
ENDBRANCH  18  20
ENDBRANCH   4  18
TORSDOF 6
ENDMDL
MODEL 7
REMARK VINA RESULT:      -6.4      5.472      6.188
REMARK  Name = 
REMARK  9 active torsions:
REMARK  status: ('A' for Active; 'I' for Inactive)
REMARK    1  A    between atoms: C_1  and  N_2
REMARK    2  A    between atoms: N_5  and  C_6
REMARK    3  A    between atoms: C_6  and  C_7
REMARK    4  A    between atoms: C_7  and  C_8
REMARK    5  A    between atoms: C_7  and  O_9
REMARK    6  A    between atoms: C_7  and  C_10
REMARK    7  A    between atoms: C_13  and  N_14
REMARK    8  A    between atoms: N_14  and  S_15
REMARK    9  A    between atoms: S_15  and  C_16
REMARK                            x       y       z     vdW  Elec       q    Type
REMARK                         _______ _______ _______ _____ _____    ______ ____
ROOT
ATOM      1  C   UNL     1       2.325   7.593  19.067  0.00  0.00    +0.000 A 
ATOM      2  C   UNL     1       1.887   8.646  18.241  0.00  0.00    +0.000 A 
ATOM      3  C   UNL     1       0.999   9.618  18.700  0.00  0.00    +0.000 A 
ATOM      4  C   UNL     1       0.526   9.564  20.001  0.00  0.00    +0.000 A 
ATOM      5  C   UNL     1       0.962   8.560  20.860  0.00  0.00    +0.000 A 
ATOM      6  C   UNL     1       1.848   7.575  20.393  0.00  0.00    +0.000 A 
ENDROOT
BRANCH   1   7
ATOM      7  C   UNL     1       3.232   6.467  18.546  0.00  0.00    +0.000 C 
ATOM      8  C   UNL     1       2.405   5.312  17.940  0.00  0.00    +0.000 C 
BRANCH   7   9
ATOM      9  O   UNL     1       3.898   5.915  19.704  0.00  0.00    +0.000 OA
ATOM     10  H   UNL     1       3.858   4.943  19.660  0.00  0.00    +0.000 HD
ENDBRANCH   7   9
BRANCH   7  11
ATOM     11  C   UNL     1       4.303   6.975  17.524  0.00  0.00    +0.000 C 
BRANCH  11  16
ATOM     12  C   UNL     1       6.463   4.038  14.194  0.00  0.00    +0.000 C 
ATOM     13  N   UNL     1       6.076   4.564  15.494  0.00  0.00    +0.000 N 
ATOM     14  C   UNL     1       6.764   4.397  16.681  0.00  0.00    +0.000 A 
ATOM     15  C   UNL     1       6.203   5.260  17.582  0.00  0.00    +0.000 A 
ATOM     16  N   UNL     1       5.152   5.910  16.928  0.00  0.00    +0.000 N 
ATOM     17  C   UNL     1       5.121   5.471  15.662  0.00  0.00    +0.000 A 
ENDBRANCH  11  16
ENDBRANCH   7  11
ENDBRANCH   1   7
BRANCH   4  18
ATOM     18  N   UNL     1      -0.419  10.541  20.397  0.00  0.00    +0.000 N 
ATOM     19  H   UNL     1      -1.078  10.903  19.707  0.00  0.00    +0.000 HD
BRANCH  18  20
ATOM     20  S   UNL     1       0.006  11.648  21.594  0.00  0.00    +0.000 S 
ATOM     21  C   UNL     1      -1.082  13.003  21.208  0.00  0.00    +0.000 C 
ATOM     22  O   UNL     1      -0.316  11.132  22.897  0.00  0.00    +0.000 OA
ATOM     23  O   UNL     1       1.356  12.074  21.259  0.00  0.00    +0.000 OA
ENDBRANCH  18  20
ENDBRANCH   4  18
TORSDOF 6
ENDMDL
MODEL 8
REMARK VINA RESULT:      -6.4      1.297      1.456
REMARK  Name = 
REMARK  9 active torsions:
REMARK  status: ('A' for Active; 'I' for Inactive)
REMARK    1  A    between atoms: C_1  and  N_2
REMARK    2  A    between atoms: N_5  and  C_6
REMARK    3  A    between atoms: C_6  and  C_7
REMARK    4  A    between atoms: C_7  and  C_8
REMARK    5  A    between atoms: C_7  and  O_9
REMARK    6  A    between atoms: C_7  and  C_10
REMARK    7  A    between atoms: C_13  and  N_14
REMARK    8  A    between atoms: N_14  and  S_15
REMARK    9  A    between atoms: S_15  and  C_16
REMARK                            x       y       z     vdW  Elec       q    Type
REMARK                         _______ _______ _______ _____ _____    ______ ____
ROOT
ATOM      1  C   UNL     1       4.807   5.245  16.956  0.00  0.00    +0.000 A 
ATOM      2  C   UNL     1       4.818   3.848  17.136  0.00  0.00    +0.000 A 
ATOM      3  C   UNL     1       3.818   3.194  17.854  0.00  0.00    +0.000 A 
ATOM      4  C   UNL     1       2.777   3.918  18.409  0.00  0.00    +0.000 A 
ATOM      5  C   UNL     1       2.710   5.296  18.224  0.00  0.00    +0.000 A 
ATOM      6  C   UNL     1       3.725   5.956  17.510  0.00  0.00    +0.000 A 
ENDROOT
BRANCH   1   7
ATOM      7  C   UNL     1       5.950   5.987  16.245  0.00  0.00    +0.000 C 
ATOM      8  C   UNL     1       6.539   7.102  17.137  0.00  0.00    +0.000 C 
BRANCH   7   9
ATOM      9  O   UNL     1       5.353   6.658  15.113  0.00  0.00    +0.000 OA
ATOM     10  H   UNL     1       5.413   6.079  14.332  0.00  0.00    +0.000 HD
ENDBRANCH   7   9
BRANCH   7  11
ATOM     11  C   UNL     1       7.079   5.027  15.745  0.00  0.00    +0.000 C 
BRANCH  11  16
ATOM     12  C   UNL     1       5.256   2.878  11.690  0.00  0.00    +0.000 C 
ATOM     13  N   UNL     1       6.191   3.592  12.547  0.00  0.00    +0.000 N 
ATOM     14  C   UNL     1       7.187   4.455  12.129  0.00  0.00    +0.000 A 
ATOM     15  C   UNL     1       7.644   5.094  13.249  0.00  0.00    +0.000 A 
ATOM     16  N   UNL     1       6.936   4.573  14.337  0.00  0.00    +0.000 N 
ATOM     17  C   UNL     1       6.056   3.679  13.864  0.00  0.00    +0.000 A 
ENDBRANCH  11  16
ENDBRANCH   7  11
ENDBRANCH   1   7
BRANCH   4  18
ATOM     18  N   UNL     1       1.821   3.211  19.177  0.00  0.00    +0.000 N 
ATOM     19  H   UNL     1       0.842   3.229  18.892  0.00  0.00    +0.000 HD
BRANCH  18  20
ATOM     20  S   UNL     1       2.055   3.073  20.841  0.00  0.00    +0.000 S 
ATOM     21  C   UNL     1       2.264   4.781  21.298  0.00  0.00    +0.000 C 
ATOM     22  O   UNL     1       0.876   2.548  21.475  0.00  0.00    +0.000 OA
ATOM     23  O   UNL     1       3.349   2.428  20.993  0.00  0.00    +0.000 OA
ENDBRANCH  18  20
ENDBRANCH   4  18
TORSDOF 6
ENDMDL
MODEL 9
REMARK VINA RESULT:      -6.4      3.473      7.079
REMARK  Name = 
REMARK  9 active torsions:
REMARK  status: ('A' for Active; 'I' for Inactive)
REMARK    1  A    between atoms: C_1  and  N_2
REMARK    2  A    between atoms: N_5  and  C_6
REMARK    3  A    between atoms: C_6  and  C_7
REMARK    4  A    between atoms: C_7  and  C_8
REMARK    5  A    between atoms: C_7  and  O_9
REMARK    6  A    between atoms: C_7  and  C_10
REMARK    7  A    between atoms: C_13  and  N_14
REMARK    8  A    between atoms: N_14  and  S_15
REMARK    9  A    between atoms: S_15  and  C_16
REMARK                            x       y       z     vdW  Elec       q    Type
REMARK                         _______ _______ _______ _____ _____    ______ ____
ROOT
ATOM      1  C   UNL     1       2.858   3.941  19.294  0.00  0.00    +0.000 A 
ATOM      2  C   UNL     1       2.449   3.776  17.957  0.00  0.00    +0.000 A 
ATOM      3  C   UNL     1       3.372   3.646  16.919  0.00  0.00    +0.000 A 
ATOM      4  C   UNL     1       4.729   3.675  17.192  0.00  0.00    +0.000 A 
ATOM      5  C   UNL     1       5.174   3.801  18.504  0.00  0.00    +0.000 A 
ATOM      6  C   UNL     1       4.244   3.943  19.548  0.00  0.00    +0.000 A 
ENDROOT
BRANCH   1   7
ATOM      7  C   UNL     1       1.854   4.175  20.434  0.00  0.00    +0.000 C 
ATOM      8  C   UNL     1       1.729   2.929  21.339  0.00  0.00    +0.000 C 
BRANCH   7   9
ATOM      9  O   UNL     1       0.562   4.343  19.808  0.00  0.00    +0.000 OA
ATOM     10  H   UNL     1      -0.100   4.545  20.493  0.00  0.00    +0.000 HD
ENDBRANCH   7   9
BRANCH   7  11
ATOM     11  C   UNL     1       2.188   5.444  21.287  0.00  0.00    +0.000 C 
BRANCH  11  16
ATOM     12  C   UNL     1       2.079   8.904  17.765  0.00  0.00    +0.000 C 
ATOM     13  N   UNL     1       1.951   8.302  19.084  0.00  0.00    +0.000 N 
ATOM     14  C   UNL     1       1.149   8.755  20.115  0.00  0.00    +0.000 A 
ATOM     15  C   UNL     1       1.131   7.765  21.059  0.00  0.00    +0.000 A 
ATOM     16  N   UNL     1       1.961   6.739  20.594  0.00  0.00    +0.000 N 
ATOM     17  C   UNL     1       2.424   7.099  19.389  0.00  0.00    +0.000 A 
ENDBRANCH  11  16
ENDBRANCH   7  11
ENDBRANCH   1   7
BRANCH   4  18
ATOM     18  N   UNL     1       5.621   3.599  16.094  0.00  0.00    +0.000 N 
ATOM     19  H   UNL     1       5.995   2.691  15.820  0.00  0.00    +0.000 HD
BRANCH  18  20
ATOM     20  S   UNL     1       6.659   4.893  15.798  0.00  0.00    +0.000 S 
ATOM     21  C   UNL     1       6.944   4.707  14.050  0.00  0.00    +0.000 C 
ATOM     22  O   UNL     1       5.991   6.143  16.044  0.00  0.00    +0.000 OA
ATOM     23  O   UNL     1       7.900   4.551  16.473  0.00  0.00    +0.000 OA
ENDBRANCH  18  20
ENDBRANCH   4  18
TORSDOF 6
ENDMDL
