MODEL 1
REMARK VINA RESULT:      -7.1      0.000      0.000
REMARK  Name = 
REMARK  4 active torsions:
REMARK  status: ('A' for Active; 'I' for Inactive)
REMARK    1  A    between atoms: C_2  and  C_3
REMARK    2  A    between atoms: C_3  and  C_4
REMARK    3  A    between atoms: C_9  and  O_10
REMARK    4  A    between atoms: N_11  and  C_12
REMARK                            x       y       z     vdW  Elec       q    Type
REMARK                         _______ _______ _______ _____ _____    ______ ____
ROOT
ATOM      1  O   UNL     1       4.941   6.919  15.519  0.00  0.00    +0.000 OA
ATOM      2  C   UNL     1       5.043   5.874  16.157  0.00  0.00    +0.000 C 
ATOM      3  N   UNL     1       5.459   4.649  15.659  0.00  0.00    +0.000 N 
ATOM      4  H   UNL     1       5.249   3.840  16.235  0.00  0.00    +0.000 HD
ENDROOT
BRANCH   3   5
ATOM      5  C   UNL     1       6.007   4.409  14.381  0.00  0.00    +0.000 A 
ATOM      6  C   UNL     1       5.412   3.564  13.438  0.00  0.00    +0.000 A 
ATOM      7  C   UNL     1       5.995   3.372  12.181  0.00  0.00    +0.000 A 
ATOM      8  C   UNL     1       7.181   4.021  11.855  0.00  0.00    +0.000 A 
ATOM      9  C   UNL     1       7.778   4.875  12.780  0.00  0.00    +0.000 A 
ATOM     10  C   UNL     1       7.187   5.075  14.034  0.00  0.00    +0.000 A 
ENDBRANCH   3   5
BRANCH   2  11
ATOM     11  C   UNL     1       4.708   5.841  17.637  0.00  0.00    +0.000 C 
BRANCH  11  12
ATOM     12  C   UNL     1       3.760   4.731  18.012  0.00  0.00    +0.000 A 
ATOM     13  C   UNL     1       2.380   4.888  17.803  0.00  0.00    +0.000 A 
ATOM     14  C   UNL     1       1.487   3.881  18.174  0.00  0.00    +0.000 A 
ATOM     15  C   UNL     1       1.961   2.705  18.749  0.00  0.00    +0.000 A 
ATOM     16  C   UNL     1       3.331   2.526  18.943  0.00  0.00    +0.000 A 
ATOM     17  C   UNL     1       4.219   3.535  18.570  0.00  0.00    +0.000 A 
BRANCH  17  18
ATOM     18  O   UNL     1       5.566   3.368  18.748  0.00  0.00    +0.000 OA
ATOM     19  H   UNL     1       6.018   3.781  17.992  0.00  0.00    +0.000 HD
ENDBRANCH  17  18
ENDBRANCH  11  12
ENDBRANCH   2  11
TORSDOF 4
ENDMDL
MODEL 2
REMARK VINA RESULT:      -7.1      3.463      4.168
REMARK  Name = 
REMARK  4 active torsions:
REMARK  status: ('A' for Active; 'I' for Inactive)
REMARK    1  A    between atoms: C_2  and  C_3
REMARK    2  A    between atoms: C_3  and  C_4
REMARK    3  A    between atoms: C_9  and  O_10
REMARK    4  A    between atoms: N_11  and  C_12
REMARK                            x       y       z     vdW  Elec       q    Type
REMARK                         _______ _______ _______ _____ _____    ______ ____
ROOT
ATOM      1  O   UNL     1       2.999   7.153  18.003  0.00  0.00    +0.000 OA
ATOM      2  C   UNL     1       3.169   5.946  17.841  0.00  0.00    +0.000 C 
ATOM      3  N   UNL     1       4.391   5.301  17.732  0.00  0.00    +0.000 N 
ATOM      4  H   UNL     1       4.364   4.361  17.350  0.00  0.00    +0.000 HD
ENDROOT
BRANCH   3   5
ATOM      5  C   UNL     1       5.661   5.872  17.959  0.00  0.00    +0.000 A 
ATOM      6  C   UNL     1       6.179   6.921  17.192  0.00  0.00    +0.000 A 
ATOM      7  C   UNL     1       7.442   7.454  17.470  0.00  0.00    +0.000 A 
ATOM      8  C   UNL     1       8.201   6.944  18.518  0.00  0.00    +0.000 A 
ATOM      9  C   UNL     1       7.692   5.907  19.297  0.00  0.00    +0.000 A 
ATOM     10  C   UNL     1       6.423   5.381  19.025  0.00  0.00    +0.000 A 
ENDBRANCH   3   5
BRANCH   2  11
ATOM     11  C   UNL     1       1.980   5.008  17.749  0.00  0.00    +0.000 C 
BRANCH  11  12
ATOM     12  C   UNL     1       1.836   4.104  18.947  0.00  0.00    +0.000 A 
ATOM     13  C   UNL     1       1.702   4.660  20.230  0.00  0.00    +0.000 A 
ATOM     14  C   UNL     1       1.599   3.836  21.353  0.00  0.00    +0.000 A 
ATOM     15  C   UNL     1       1.621   2.452  21.207  0.00  0.00    +0.000 A 
ATOM     16  C   UNL     1       1.733   1.886  19.937  0.00  0.00    +0.000 A 
ATOM     17  C   UNL     1       1.834   2.714  18.818  0.00  0.00    +0.000 A 
BRANCH  17  18
ATOM     18  O   UNL     1       1.936   2.170  17.566  0.00  0.00    +0.000 OA
ATOM     19  H   UNL     1       2.831   2.358  17.235  0.00  0.00    +0.000 HD
ENDBRANCH  17  18
ENDBRANCH  11  12
ENDBRANCH   2  11
TORSDOF 4
ENDMDL
MODEL 3
REMARK VINA RESULT:      -7.0      3.148      4.056
REMARK  Name = 
REMARK  4 active torsions:
REMARK  status: ('A' for Active; 'I' for Inactive)
REMARK    1  A    between atoms: C_2  and  C_3
REMARK    2  A    between atoms: C_3  and  C_4
REMARK    3  A    between atoms: C_9  and  O_10
REMARK    4  A    between atoms: N_11  and  C_12
REMARK                            x       y       z     vdW  Elec       q    Type
REMARK                         _______ _______ _______ _____ _____    ______ ____
ROOT
ATOM      1  O   UNL     1       5.217   3.488  16.406  0.00  0.00    +0.000 OA
ATOM      2  C   UNL     1       4.377   4.053  17.103  0.00  0.00    +0.000 C 
ATOM      3  N   UNL     1       4.614   5.097  17.983  0.00  0.00    +0.000 N 
ATOM      4  H   UNL     1       3.882   5.280  18.662  0.00  0.00    +0.000 HD
ENDROOT
BRANCH   3   5
ATOM      5  C   UNL     1       5.817   5.822  18.116  0.00  0.00    +0.000 A 
ATOM      6  C   UNL     1       6.821   5.481  19.028  0.00  0.00    +0.000 A 
ATOM      7  C   UNL     1       7.999   6.231  19.108  0.00  0.00    +0.000 A 
ATOM      8  C   UNL     1       8.185   7.332  18.278  0.00  0.00    +0.000 A 
ATOM      9  C   UNL     1       7.198   7.676  17.357  0.00  0.00    +0.000 A 
ATOM     10  C   UNL     1       6.023   6.917  17.270  0.00  0.00    +0.000 A 
ENDBRANCH   3   5
BRANCH   2  11
ATOM     11  C   UNL     1       2.921   3.629  17.047  0.00  0.00    +0.000 C 
BRANCH  11  12
ATOM     12  C   UNL     1       2.309   3.410  18.407  0.00  0.00    +0.000 A 
ATOM     13  C   UNL     1       1.577   4.440  19.019  0.00  0.00    +0.000 A 
ATOM     14  C   UNL     1       1.030   4.262  20.292  0.00  0.00    +0.000 A 
ATOM     15  C   UNL     1       1.201   3.054  20.961  0.00  0.00    +0.000 A 
ATOM     16  C   UNL     1       1.907   2.015  20.357  0.00  0.00    +0.000 A 
ATOM     17  C   UNL     1       2.451   2.197  19.085  0.00  0.00    +0.000 A 
BRANCH  17  18
ATOM     18  O   UNL     1       3.139   1.182  18.478  0.00  0.00    +0.000 OA
ATOM     19  H   UNL     1       3.671   1.571  17.762  0.00  0.00    +0.000 HD
ENDBRANCH  17  18
ENDBRANCH  11  12
ENDBRANCH   2  11
TORSDOF 4
ENDMDL
MODEL 4
REMARK VINA RESULT:      -7.0      3.136      3.998
REMARK  Name = 
REMARK  4 active torsions:
REMARK  status: ('A' for Active; 'I' for Inactive)
REMARK    1  A    between atoms: C_2  and  C_3
REMARK    2  A    between atoms: C_3  and  C_4
REMARK    3  A    between atoms: C_9  and  O_10
REMARK    4  A    between atoms: N_11  and  C_12
REMARK                            x       y       z     vdW  Elec       q    Type
REMARK                         _______ _______ _______ _____ _____    ______ ____
ROOT
ATOM      1  O   UNL     1       5.177   3.511  16.333  0.00  0.00    +0.000 OA
ATOM      2  C   UNL     1       4.395   3.971  17.161  0.00  0.00    +0.000 C 
ATOM      3  N   UNL     1       4.664   4.990  18.062  0.00  0.00    +0.000 N 
ATOM      4  H   UNL     1       4.016   5.080  18.838  0.00  0.00    +0.000 HD
ENDROOT
BRANCH   3   5
ATOM      5  C   UNL     1       5.816   5.805  18.083  0.00  0.00    +0.000 A 
ATOM      6  C   UNL     1       5.989   6.907  17.241  0.00  0.00    +0.000 A 
ATOM      7  C   UNL     1       7.149   7.686  17.313  0.00  0.00    +0.000 A 
ATOM      8  C   UNL     1       8.148   7.369  18.227  0.00  0.00    +0.000 A 
ATOM      9  C   UNL     1       7.983   6.280  19.080  0.00  0.00    +0.000 A 
ATOM     10  C   UNL     1       6.816   5.508  19.015  0.00  0.00    +0.000 A 
ENDBRANCH   3   5
BRANCH   2  11
ATOM     11  C   UNL     1       2.980   3.431  17.266  0.00  0.00    +0.000 C 
BRANCH  11  12
ATOM     12  C   UNL     1       2.498   3.286  18.687  0.00  0.00    +0.000 A 
ATOM     13  C   UNL     1       1.287   3.878  19.079  0.00  0.00    +0.000 A 
ATOM     14  C   UNL     1       0.843   3.779  20.399  0.00  0.00    +0.000 A 
ATOM     15  C   UNL     1       1.598   3.083  21.339  0.00  0.00    +0.000 A 
ATOM     16  C   UNL     1       2.793   2.472  20.959  0.00  0.00    +0.000 A 
ATOM     17  C   UNL     1       3.232   2.573  19.638  0.00  0.00    +0.000 A 
BRANCH  17  18
ATOM     18  O   UNL     1       4.398   1.971  19.252  0.00  0.00    +0.000 OA
ATOM     19  H   UNL     1       4.295   1.692  18.326  0.00  0.00    +0.000 HD
ENDBRANCH  17  18
ENDBRANCH  11  12
ENDBRANCH   2  11
TORSDOF 4
ENDMDL
MODEL 5
REMARK VINA RESULT:      -7.0      1.527      1.765
REMARK  Name = 
REMARK  4 active torsions:
REMARK  status: ('A' for Active; 'I' for Inactive)
REMARK    1  A    between atoms: C_2  and  C_3
REMARK    2  A    between atoms: C_3  and  C_4
REMARK    3  A    between atoms: C_9  and  O_10
REMARK    4  A    between atoms: N_11  and  C_12
REMARK                            x       y       z     vdW  Elec       q    Type
REMARK                         _______ _______ _______ _____ _____    ______ ____
ROOT
ATOM      1  O   UNL     1       7.850   4.303  16.924  0.00  0.00    +0.000 OA
ATOM      2  C   UNL     1       6.985   5.167  16.793  0.00  0.00    +0.000 C 
ATOM      3  N   UNL     1       6.406   5.568  15.599  0.00  0.00    +0.000 N 
ATOM      4  H   UNL     1       5.907   6.452  15.623  0.00  0.00    +0.000 HD
ENDROOT
BRANCH   3   5
ATOM      5  C   UNL     1       6.566   4.949  14.342  0.00  0.00    +0.000 A 
ATOM      6  C   UNL     1       5.730   3.928  13.878  0.00  0.00    +0.000 A 
ATOM      7  C   UNL     1       5.931   3.357  12.617  0.00  0.00    +0.000 A 
ATOM      8  C   UNL     1       6.972   3.800  11.807  0.00  0.00    +0.000 A 
ATOM      9  C   UNL     1       7.805   4.824  12.252  0.00  0.00    +0.000 A 
ATOM     10  C   UNL     1       7.596   5.403  13.510  0.00  0.00    +0.000 A 
ENDBRANCH   3   5
BRANCH   2  11
ATOM     11  C   UNL     1       6.445   5.904  18.004  0.00  0.00    +0.000 C 
BRANCH  11  12
ATOM     12  C   UNL     1       5.004   5.582  18.308  0.00  0.00    +0.000 A 
ATOM     13  C   UNL     1       3.997   6.505  17.982  0.00  0.00    +0.000 A 
ATOM     14  C   UNL     1       2.661   6.233  18.286  0.00  0.00    +0.000 A 
ATOM     15  C   UNL     1       2.316   5.038  18.909  0.00  0.00    +0.000 A 
ATOM     16  C   UNL     1       3.303   4.103  19.220  0.00  0.00    +0.000 A 
ATOM     17  C   UNL     1       4.637   4.378  18.914  0.00  0.00    +0.000 A 
BRANCH  17  18
ATOM     18  O   UNL     1       5.613   3.465  19.206  0.00  0.00    +0.000 OA
ATOM     19  H   UNL     1       5.520   2.723  18.584  0.00  0.00    +0.000 HD
ENDBRANCH  17  18
ENDBRANCH  11  12
ENDBRANCH   2  11
TORSDOF 4
ENDMDL
MODEL 6
REMARK VINA RESULT:      -7.0      1.148      1.148
REMARK  Name = 
REMARK  4 active torsions:
REMARK  status: ('A' for Active; 'I' for Inactive)
REMARK    1  A    between atoms: C_2  and  C_3
REMARK    2  A    between atoms: C_3  and  C_4
REMARK    3  A    between atoms: C_9  and  O_10
REMARK    4  A    between atoms: N_11  and  C_12
REMARK                            x       y       z     vdW  Elec       q    Type
REMARK                         _______ _______ _______ _____ _____    ______ ____
ROOT
ATOM      1  O   UNL     1       7.255   4.324  17.208  0.00  0.00    +0.000 OA
ATOM      2  C   UNL     1       6.143   4.813  17.023  0.00  0.00    +0.000 C 
ATOM      3  N   UNL     1       5.566   5.089  15.794  0.00  0.00    +0.000 N 
ATOM      4  H   UNL     1       4.768   5.717  15.809  0.00  0.00    +0.000 HD
ENDROOT
BRANCH   3   5
ATOM      5  C   UNL     1       6.063   4.704  14.531  0.00  0.00    +0.000 A 
ATOM      6  C   UNL     1       5.430   3.765  13.712  0.00  0.00    +0.000 A 
ATOM      7  C   UNL     1       5.965   3.429  12.463  0.00  0.00    +0.000 A 
ATOM      8  C   UNL     1       7.140   4.029  12.022  0.00  0.00    +0.000 A 
ATOM      9  C   UNL     1       7.775   4.975  12.824  0.00  0.00    +0.000 A 
ATOM     10  C   UNL     1       7.232   5.319  14.069  0.00  0.00    +0.000 A 
ENDBRANCH   3   5
BRANCH   2  11
ATOM     11  C   UNL     1       5.255   5.170  18.201  0.00  0.00    +0.000 C 
BRANCH  11  12
ATOM     12  C   UNL     1       3.999   4.340  18.278  0.00  0.00    +0.000 A 
ATOM     13  C   UNL     1       2.800   4.833  17.741  0.00  0.00    +0.000 A 
ATOM     14  C   UNL     1       1.622   4.089  17.832  0.00  0.00    +0.000 A 
ATOM     15  C   UNL     1       1.631   2.844  18.453  0.00  0.00    +0.000 A 
ATOM     16  C   UNL     1       2.819   2.331  18.974  0.00  0.00    +0.000 A 
ATOM     17  C   UNL     1       3.994   3.079  18.879  0.00  0.00    +0.000 A 
BRANCH  17  18
ATOM     18  O   UNL     1       5.167   2.584  19.378  0.00  0.00    +0.000 OA
ATOM     19  H   UNL     1       5.895   3.103  18.994  0.00  0.00    +0.000 HD
ENDBRANCH  17  18
ENDBRANCH  11  12
ENDBRANCH   2  11
TORSDOF 4
ENDMDL
MODEL 7
REMARK VINA RESULT:      -7.0      3.561      4.143
REMARK  Name = 
REMARK  4 active torsions:
REMARK  status: ('A' for Active; 'I' for Inactive)
REMARK    1  A    between atoms: C_2  and  C_3
REMARK    2  A    between atoms: C_3  and  C_4
REMARK    3  A    between atoms: C_9  and  O_10
REMARK    4  A    between atoms: N_11  and  C_12
REMARK                            x       y       z     vdW  Elec       q    Type
REMARK                         _______ _______ _______ _____ _____    ______ ____
ROOT
ATOM      1  O   UNL     1       3.043   7.469  18.558  0.00  0.00    +0.000 OA
ATOM      2  C   UNL     1       3.088   6.320  18.123  0.00  0.00    +0.000 C 
ATOM      3  N   UNL     1       4.236   5.615  17.796  0.00  0.00    +0.000 N 
ATOM      4  H   UNL     1       4.101   4.790  17.218  0.00  0.00    +0.000 HD
ENDROOT
BRANCH   3   5
ATOM      5  C   UNL     1       5.564   6.009  18.061  0.00  0.00    +0.000 A 
ATOM      6  C   UNL     1       6.354   5.421  19.054  0.00  0.00    +0.000 A 
ATOM      7  C   UNL     1       7.670   5.847  19.266  0.00  0.00    +0.000 A 
ATOM      8  C   UNL     1       8.209   6.866  18.487  0.00  0.00    +0.000 A 
ATOM      9  C   UNL     1       7.436   7.452  17.487  0.00  0.00    +0.000 A 
ATOM     10  C   UNL     1       6.123   7.017  17.268  0.00  0.00    +0.000 A 
ENDBRANCH   3   5
BRANCH   2  11
ATOM     11  C   UNL     1       1.811   5.531  17.902  0.00  0.00    +0.000 C 
BRANCH  11  12
ATOM     12  C   UNL     1       1.681   4.335  18.810  0.00  0.00    +0.000 A 
ATOM     13  C   UNL     1       1.316   4.513  20.154  0.00  0.00    +0.000 A 
ATOM     14  C   UNL     1       1.222   3.417  21.015  0.00  0.00    +0.000 A 
ATOM     15  C   UNL     1       1.483   2.135  20.542  0.00  0.00    +0.000 A 
ATOM     16  C   UNL     1       1.827   1.940  19.205  0.00  0.00    +0.000 A 
ATOM     17  C   UNL     1       1.918   3.038  18.348  0.00  0.00    +0.000 A 
BRANCH  17  18
ATOM     18  O   UNL     1       2.246   2.860  17.032  0.00  0.00    +0.000 OA
ATOM     19  H   UNL     1       2.960   3.485  16.818  0.00  0.00    +0.000 HD
ENDBRANCH  17  18
ENDBRANCH  11  12
ENDBRANCH   2  11
TORSDOF 4
ENDMDL
MODEL 8
REMARK VINA RESULT:      -6.9      3.627      4.278
REMARK  Name = 
REMARK  4 active torsions:
REMARK  status: ('A' for Active; 'I' for Inactive)
REMARK    1  A    between atoms: C_2  and  C_3
REMARK    2  A    between atoms: C_3  and  C_4
REMARK    3  A    between atoms: C_9  and  O_10
REMARK    4  A    between atoms: N_11  and  C_12
REMARK                            x       y       z     vdW  Elec       q    Type
REMARK                         _______ _______ _______ _____ _____    ______ ____
ROOT
ATOM      1  O   UNL     1       3.066   7.505  18.247  0.00  0.00    +0.000 OA
ATOM      2  C   UNL     1       3.131   6.301  18.012  0.00  0.00    +0.000 C 
ATOM      3  N   UNL     1       4.291   5.568  17.813  0.00  0.00    +0.000 N 
ATOM      4  H   UNL     1       4.172   4.657  17.382  0.00  0.00    +0.000 HD
ENDROOT
BRANCH   3   5
ATOM      5  C   UNL     1       5.612   6.023  18.013  0.00  0.00    +0.000 A 
ATOM      6  C   UNL     1       6.200   7.032  17.245  0.00  0.00    +0.000 A 
ATOM      7  C   UNL     1       7.511   7.450  17.496  0.00  0.00    +0.000 A 
ATOM      8  C   UNL     1       8.249   6.860  18.518  0.00  0.00    +0.000 A 
ATOM      9  C   UNL     1       7.671   5.861  19.299  0.00  0.00    +0.000 A 
ATOM     10  C   UNL     1       6.354   5.452  19.053  0.00  0.00    +0.000 A 
ENDBRANCH   3   5
BRANCH   2  11
ATOM     11  C   UNL     1       1.867   5.466  17.922  0.00  0.00    +0.000 C 
BRANCH  11  12
ATOM     12  C   UNL     1       1.778   4.399  18.983  0.00  0.00    +0.000 A 
ATOM     13  C   UNL     1       1.659   3.050  18.610  0.00  0.00    +0.000 A 
ATOM     14  C   UNL     1       1.544   2.053  19.582  0.00  0.00    +0.000 A 
ATOM     15  C   UNL     1       1.554   2.390  20.932  0.00  0.00    +0.000 A 
ATOM     16  C   UNL     1       1.692   3.723  21.317  0.00  0.00    +0.000 A 
ATOM     17  C   UNL     1       1.808   4.716  20.343  0.00  0.00    +0.000 A 
BRANCH  17  18
ATOM     18  O   UNL     1       1.952   6.027  20.709  0.00  0.00    +0.000 OA
ATOM     19  H   UNL     1       1.680   6.105  21.639  0.00  0.00    +0.000 HD
ENDBRANCH  17  18
ENDBRANCH  11  12
ENDBRANCH   2  11
TORSDOF 4
ENDMDL
MODEL 9
REMARK VINA RESULT:      -6.9      2.634      6.548
REMARK  Name = 
REMARK  4 active torsions:
REMARK  status: ('A' for Active; 'I' for Inactive)
REMARK    1  A    between atoms: C_2  and  C_3
REMARK    2  A    between atoms: C_3  and  C_4
REMARK    3  A    between atoms: C_9  and  O_10
REMARK    4  A    between atoms: N_11  and  C_12
REMARK                            x       y       z     vdW  Elec       q    Type
REMARK                         _______ _______ _______ _____ _____    ______ ____
ROOT
ATOM      1  O   UNL     1       4.145   2.224  17.092  0.00  0.00    +0.000 OA
ATOM      2  C   UNL     1       4.220   3.447  17.195  0.00  0.00    +0.000 C 
ATOM      3  N   UNL     1       3.568   4.230  18.135  0.00  0.00    +0.000 N 
ATOM      4  H   UNL     1       3.528   5.224  17.933  0.00  0.00    +0.000 HD
ENDROOT
BRANCH   3   5
ATOM      5  C   UNL     1       2.840   3.765  19.250  0.00  0.00    +0.000 A 
ATOM      6  C   UNL     1       3.430   3.086  20.321  0.00  0.00    +0.000 A 
ATOM      7  C   UNL     1       2.659   2.656  21.407  0.00  0.00    +0.000 A 
ATOM      8  C   UNL     1       1.290   2.901  21.432  0.00  0.00    +0.000 A 
ATOM      9  C   UNL     1       0.692   3.587  20.377  0.00  0.00    +0.000 A 
ATOM     10  C   UNL     1       1.466   4.026  19.296  0.00  0.00    +0.000 A 
ENDBRANCH   3   5
BRANCH   2  11
ATOM     11  C   UNL     1       5.094   4.245  16.245  0.00  0.00    +0.000 C 
BRANCH  11  12
ATOM     12  C   UNL     1       6.056   5.168  16.949  0.00  0.00    +0.000 A 
ATOM     13  C   UNL     1       6.921   4.660  17.932  0.00  0.00    +0.000 A 
ATOM     14  C   UNL     1       7.796   5.508  18.614  0.00  0.00    +0.000 A 
ATOM     15  C   UNL     1       7.822   6.868  18.318  0.00  0.00    +0.000 A 
ATOM     16  C   UNL     1       6.983   7.383  17.331  0.00  0.00    +0.000 A 
ATOM     17  C   UNL     1       6.111   6.531  16.651  0.00  0.00    +0.000 A 
BRANCH  17  18
ATOM     18  O   UNL     1       5.289   7.024  15.674  0.00  0.00    +0.000 OA
ATOM     19  H   UNL     1       4.391   7.081  16.045  0.00  0.00    +0.000 HD
ENDBRANCH  17  18
ENDBRANCH  11  12
ENDBRANCH   2  11
TORSDOF 4
ENDMDL
