MODEL 1
REMARK VINA RESULT:      -8.3      0.000      0.000
REMARK  Name = 
REMARK  10 active torsions:
REMARK  status: ('A' for Active; 'I' for Inactive)
REMARK    1  A    between atoms: C_1  and  O_2
REMARK    2  A    between atoms: O_2  and  C_3
REMARK    3  A    between atoms: C_5  and  C_6
REMARK    4  A    between atoms: C_7  and  C_8
REMARK    5  A    between atoms: C_13  and  C_14
REMARK    6  A    between atoms: C_14  and  C_15
REMARK    7  A    between atoms: C_14  and  C_16
REMARK    8  A    between atoms: C_14  and  O_17
REMARK    9  A    between atoms: C_24  and  O_25
REMARK   10  A    between atoms: O_25  and  C_26
REMARK                            x       y       z     vdW  Elec       q    Type
REMARK                         _______ _______ _______ _____ _____    ______ ____
ROOT
ATOM      1  C   UNL     1       1.097   9.144  19.282  0.00  0.00    +0.000 A 
ATOM      2  C   UNL     1       0.411  10.030  18.448  0.00  0.00    +0.000 A 
ATOM      3  C   UNL     1      -0.458  10.976  18.993  0.00  0.00    +0.000 A 
ATOM      4  C   UNL     1      -0.624  11.061  20.379  0.00  0.00    +0.000 A 
ATOM      5  C   UNL     1      -1.504  12.062  20.954  0.00  0.00    +0.000 A 
ATOM      6  C   UNL     1      -1.554  12.200  22.285  0.00  0.00    +0.000 A 
ATOM      7  O   UNL     1      -0.813  11.346  23.144  0.00  0.00    +0.000 OA
ATOM      8  C   UNL     1      -0.037  10.319  22.683  0.00  0.00    +0.000 A 
ATOM      9  O   UNL     1       0.546   9.554  23.441  0.00  0.00    +0.000 OA
ATOM     10  C   UNL     1       0.085  10.194  21.212  0.00  0.00    +0.000 A 
ATOM     11  C   UNL     1       0.934   9.221  20.666  0.00  0.00    +0.000 A 
ENDROOT
BRANCH   6  12
ATOM     12  C   UNL     1      -2.384  13.261  22.991  0.00  0.00    +0.000 C 
ATOM     13  C   UNL     1      -3.482  12.665  23.878  0.00  0.00    +0.000 C 
ATOM     14  C   UNL     1      -1.469  14.174  23.810  0.00  0.00    +0.000 C 
BRANCH  12  15
ATOM     15  O   UNL     1      -3.030  14.087  22.011  0.00  0.00    +0.000 OA
ATOM     16  H   UNL     1      -3.083  13.567  21.191  0.00  0.00    +0.000 HD
ENDBRANCH  12  15
ENDBRANCH   6  12
BRANCH   1  18
ATOM     17  C   UNL     1       2.666   7.300  18.252  0.00  0.00    +0.000 C 
ATOM     18  C   UNL     1       1.959   8.153  18.712  0.00  0.00    +0.000 C 
BRANCH  17  21
ATOM     19  C   UNL     1       4.001   3.897  17.511  0.00  0.00    +0.000 A 
ATOM     20  C   UNL     1       3.211   4.925  18.029  0.00  0.00    +0.000 A 
ATOM     21  C   UNL     1       3.498   6.258  17.728  0.00  0.00    +0.000 A 
ATOM     22  C   UNL     1       4.580   6.563  16.904  0.00  0.00    +0.000 A 
ATOM     23  C   UNL     1       5.379   5.546  16.378  0.00  0.00    +0.000 A 
ATOM     24  C   UNL     1       5.088   4.211  16.687  0.00  0.00    +0.000 A 
BRANCH  19  26
ATOM     25  C   UNL     1       2.216   2.403  17.999  0.00  0.00    +0.000 C 
ATOM     26  O   UNL     1       3.615   2.633  17.864  0.00  0.00    +0.000 OA
ENDBRANCH  19  26
BRANCH  23  27
ATOM     27  O   UNL     1       6.406   5.966  15.578  0.00  0.00    +0.000 OA
ATOM     28  C   UNL     1       7.072   4.972  14.805  0.00  0.00    +0.000 C 
ENDBRANCH  23  27
ENDBRANCH  17  21
ENDBRANCH   1  18
TORSDOF 6
ENDMDL
MODEL 2
REMARK VINA RESULT:      -8.3      1.042      2.478
REMARK  Name = 
REMARK  10 active torsions:
REMARK  status: ('A' for Active; 'I' for Inactive)
REMARK    1  A    between atoms: C_1  and  O_2
REMARK    2  A    between atoms: O_2  and  C_3
REMARK    3  A    between atoms: C_5  and  C_6
REMARK    4  A    between atoms: C_7  and  C_8
REMARK    5  A    between atoms: C_13  and  C_14
REMARK    6  A    between atoms: C_14  and  C_15
REMARK    7  A    between atoms: C_14  and  C_16
REMARK    8  A    between atoms: C_14  and  O_17
REMARK    9  A    between atoms: C_24  and  O_25
REMARK   10  A    between atoms: O_25  and  C_26
REMARK                            x       y       z     vdW  Elec       q    Type
REMARK                         _______ _______ _______ _____ _____    ______ ____
ROOT
ATOM      1  C   UNL     1       1.125   9.149  19.501  0.00  0.00    +0.000 A 
ATOM      2  C   UNL     1       0.423   9.987  18.633  0.00  0.00    +0.000 A 
ATOM      3  C   UNL     1      -0.520  10.886  19.135  0.00  0.00    +0.000 A 
ATOM      4  C   UNL     1      -0.743  10.972  20.513  0.00  0.00    +0.000 A 
ATOM      5  C   UNL     1      -1.700  11.925  21.044  0.00  0.00    +0.000 A 
ATOM      6  C   UNL     1      -1.810  12.070  22.371  0.00  0.00    +0.000 A 
ATOM      7  O   UNL     1      -1.055  11.267  23.266  0.00  0.00    +0.000 OA
ATOM      8  C   UNL     1      -0.205  10.283  22.845  0.00  0.00    +0.000 A 
ATOM      9  O   UNL     1       0.391   9.558  23.632  0.00  0.00    +0.000 OA
ATOM     10  C   UNL     1      -0.019  10.154  21.381  0.00  0.00    +0.000 A 
ATOM     11  C   UNL     1       0.905   9.227  20.877  0.00  0.00    +0.000 A 
ENDROOT
BRANCH   6  12
ATOM     12  C   UNL     1      -2.726  13.087  23.034  0.00  0.00    +0.000 C 
ATOM     13  C   UNL     1      -1.958  14.180  23.783  0.00  0.00    +0.000 C 
ATOM     14  C   UNL     1      -3.655  13.706  21.987  0.00  0.00    +0.000 C 
BRANCH  12  15
ATOM     15  O   UNL     1      -3.561  12.419  23.991  0.00  0.00    +0.000 OA
ATOM     16  H   UNL     1      -4.350  12.110  23.513  0.00  0.00    +0.000 HD
ENDBRANCH  12  15
ENDBRANCH   6  12
BRANCH   1  18
ATOM     17  C   UNL     1       2.845   7.395  18.559  0.00  0.00    +0.000 C 
ATOM     18  C   UNL     1       2.064   8.205  18.975  0.00  0.00    +0.000 C 
BRANCH  17  21
ATOM     19  C   UNL     1       5.282   5.605  16.375  0.00  0.00    +0.000 A 
ATOM     20  C   UNL     1       4.359   6.546  16.833  0.00  0.00    +0.000 A 
ATOM     21  C   UNL     1       3.778   6.410  18.095  0.00  0.00    +0.000 A 
ATOM     22  C   UNL     1       4.123   5.328  18.903  0.00  0.00    +0.000 A 
ATOM     23  C   UNL     1       5.046   4.379  18.458  0.00  0.00    +0.000 A 
ATOM     24  C   UNL     1       5.623   4.518  17.190  0.00  0.00    +0.000 A 
BRANCH  19  26
ATOM     25  C   UNL     1       6.692   4.882  14.601  0.00  0.00    +0.000 C 
ATOM     26  O   UNL     1       5.793   5.851  15.130  0.00  0.00    +0.000 OA
ENDBRANCH  19  26
BRANCH  23  27
ATOM     27  O   UNL     1       5.312   3.367  19.340  0.00  0.00    +0.000 OA
ATOM     28  C   UNL     1       4.200   2.614  19.815  0.00  0.00    +0.000 C 
ENDBRANCH  23  27
ENDBRANCH  17  21
ENDBRANCH   1  18
TORSDOF 6
ENDMDL
MODEL 3
REMARK VINA RESULT:      -8.3      0.742      2.424
REMARK  Name = 
REMARK  10 active torsions:
REMARK  status: ('A' for Active; 'I' for Inactive)
REMARK    1  A    between atoms: C_1  and  O_2
REMARK    2  A    between atoms: O_2  and  C_3
REMARK    3  A    between atoms: C_5  and  C_6
REMARK    4  A    between atoms: C_7  and  C_8
REMARK    5  A    between atoms: C_13  and  C_14
REMARK    6  A    between atoms: C_14  and  C_15
REMARK    7  A    between atoms: C_14  and  C_16
REMARK    8  A    between atoms: C_14  and  O_17
REMARK    9  A    between atoms: C_24  and  O_25
REMARK   10  A    between atoms: O_25  and  C_26
REMARK                            x       y       z     vdW  Elec       q    Type
REMARK                         _______ _______ _______ _____ _____    ______ ____
ROOT
ATOM      1  C   UNL     1       0.968   9.260  19.390  0.00  0.00    +0.000 A 
ATOM      2  C   UNL     1       0.260  10.134  18.563  0.00  0.00    +0.000 A 
ATOM      3  C   UNL     1      -0.643  11.045  19.114  0.00  0.00    +0.000 A 
ATOM      4  C   UNL     1      -0.820  11.107  20.500  0.00  0.00    +0.000 A 
ATOM      5  C   UNL     1      -1.735  12.071  21.082  0.00  0.00    +0.000 A 
ATOM      6  C   UNL     1      -1.799  12.190  22.414  0.00  0.00    +0.000 A 
ATOM      7  O   UNL     1      -1.036  11.348  23.267  0.00  0.00    +0.000 OA
ATOM      8  C   UNL     1      -0.226  10.353  22.798  0.00  0.00    +0.000 A 
ATOM      9  O   UNL     1       0.376   9.596  23.550  0.00  0.00    +0.000 OA
ATOM     10  C   UNL     1      -0.090  10.251  21.327  0.00  0.00    +0.000 A 
ATOM     11  C   UNL     1       0.794   9.313  20.774  0.00  0.00    +0.000 A 
ENDROOT
BRANCH   6  12
ATOM     12  C   UNL     1      -2.667  13.214  23.128  0.00  0.00    +0.000 C 
ATOM     13  C   UNL     1      -3.692  12.573  24.068  0.00  0.00    +0.000 C 
ATOM     14  C   UNL     1      -1.781  14.200  23.893  0.00  0.00    +0.000 C 
BRANCH  12  15
ATOM     15  O   UNL     1      -3.398  13.976  22.156  0.00  0.00    +0.000 OA
ATOM     16  H   UNL     1      -2.910  14.807  22.021  0.00  0.00    +0.000 HD
ENDBRANCH  12  15
ENDBRANCH   6  12
BRANCH   1  18
ATOM     17  C   UNL     1       2.610   7.484  18.355  0.00  0.00    +0.000 C 
ATOM     18  C   UNL     1       1.865   8.305  18.814  0.00  0.00    +0.000 C 
BRANCH  17  21
ATOM     19  C   UNL     1       5.654   5.889  16.904  0.00  0.00    +0.000 A 
ATOM     20  C   UNL     1       4.770   6.852  17.392  0.00  0.00    +0.000 A 
ATOM     21  C   UNL     1       3.499   6.485  17.840  0.00  0.00    +0.000 A 
ATOM     22  C   UNL     1       3.112   5.146  17.800  0.00  0.00    +0.000 A 
ATOM     23  C   UNL     1       3.986   4.171  17.314  0.00  0.00    +0.000 A 
ATOM     24  C   UNL     1       5.257   4.546  16.863  0.00  0.00    +0.000 A 
BRANCH  19  26
ATOM     25  C   UNL     1       7.490   7.332  17.351  0.00  0.00    +0.000 C 
ATOM     26  O   UNL     1       6.873   6.366  16.507  0.00  0.00    +0.000 OA
ENDBRANCH  19  26
BRANCH  23  27
ATOM     27  O   UNL     1       3.499   2.892  17.331  0.00  0.00    +0.000 OA
ATOM     28  C   UNL     1       3.578   2.186  18.565  0.00  0.00    +0.000 C 
ENDBRANCH  23  27
ENDBRANCH  17  21
ENDBRANCH   1  18
TORSDOF 6
ENDMDL
MODEL 4
REMARK VINA RESULT:      -8.2      0.871      1.119
REMARK  Name = 
REMARK  10 active torsions:
REMARK  status: ('A' for Active; 'I' for Inactive)
REMARK    1  A    between atoms: C_1  and  O_2
REMARK    2  A    between atoms: O_2  and  C_3
REMARK    3  A    between atoms: C_5  and  C_6
REMARK    4  A    between atoms: C_7  and  C_8
REMARK    5  A    between atoms: C_13  and  C_14
REMARK    6  A    between atoms: C_14  and  C_15
REMARK    7  A    between atoms: C_14  and  C_16
REMARK    8  A    between atoms: C_14  and  O_17
REMARK    9  A    between atoms: C_24  and  O_25
REMARK   10  A    between atoms: O_25  and  C_26
REMARK                            x       y       z     vdW  Elec       q    Type
REMARK                         _______ _______ _______ _____ _____    ______ ____
ROOT
ATOM      1  C   UNL     1       0.960   9.301  19.426  0.00  0.00    +0.000 A 
ATOM      2  C   UNL     1       0.239  10.160  18.595  0.00  0.00    +0.000 A 
ATOM      3  C   UNL     1      -0.675  11.063  19.141  0.00  0.00    +0.000 A 
ATOM      4  C   UNL     1      -0.850  11.131  20.527  0.00  0.00    +0.000 A 
ATOM      5  C   UNL     1      -1.777  12.088  21.103  0.00  0.00    +0.000 A 
ATOM      6  C   UNL     1      -1.840  12.214  22.435  0.00  0.00    +0.000 A 
ATOM      7  O   UNL     1      -1.065  11.389  23.293  0.00  0.00    +0.000 OA
ATOM      8  C   UNL     1      -0.242  10.401  22.829  0.00  0.00    +0.000 A 
ATOM      9  O   UNL     1       0.371   9.658  23.585  0.00  0.00    +0.000 OA
ATOM     10  C   UNL     1      -0.107  10.292  21.358  0.00  0.00    +0.000 A 
ATOM     11  C   UNL     1       0.787   9.362  20.810  0.00  0.00    +0.000 A 
ENDROOT
BRANCH   6  12
ATOM     12  C   UNL     1      -2.721  13.232  23.144  0.00  0.00    +0.000 C 
ATOM     13  C   UNL     1      -3.461  14.156  22.172  0.00  0.00    +0.000 C 
ATOM     14  C   UNL     1      -3.713  12.510  24.058  0.00  0.00    +0.000 C 
BRANCH  12  15
ATOM     15  O   UNL     1      -1.905  14.061  23.983  0.00  0.00    +0.000 OA
ATOM     16  H   UNL     1      -2.174  14.982  23.821  0.00  0.00    +0.000 HD
ENDBRANCH  12  15
ENDBRANCH   6  12
BRANCH   1  18
ATOM     17  C   UNL     1       2.618   7.537  18.395  0.00  0.00    +0.000 C 
ATOM     18  C   UNL     1       1.869   8.354  18.855  0.00  0.00    +0.000 C 
BRANCH  17  21
ATOM     19  C   UNL     1       3.945   4.223  17.315  0.00  0.00    +0.000 A 
ATOM     20  C   UNL     1       3.100   5.204  17.836  0.00  0.00    +0.000 A 
ATOM     21  C   UNL     1       3.505   6.539  17.875  0.00  0.00    +0.000 A 
ATOM     22  C   UNL     1       4.763   6.895  17.389  0.00  0.00    +0.000 A 
ATOM     23  C   UNL     1       5.619   5.924  16.865  0.00  0.00    +0.000 A 
ATOM     24  C   UNL     1       5.208   4.586  16.832  0.00  0.00    +0.000 A 
BRANCH  19  26
ATOM     25  C   UNL     1       2.144   2.782  17.894  0.00  0.00    +0.000 C 
ATOM     26  O   UNL     1       3.434   2.954  17.318  0.00  0.00    +0.000 OA
ENDBRANCH  19  26
BRANCH  23  27
ATOM     27  O   UNL     1       6.823   6.393  16.411  0.00  0.00    +0.000 OA
ATOM     28  C   UNL     1       7.565   7.228  17.294  0.00  0.00    +0.000 C 
ENDBRANCH  23  27
ENDBRANCH  17  21
ENDBRANCH   1  18
TORSDOF 6
ENDMDL
MODEL 5
REMARK VINA RESULT:      -8.0      1.411      3.059
REMARK  Name = 
REMARK  10 active torsions:
REMARK  status: ('A' for Active; 'I' for Inactive)
REMARK    1  A    between atoms: C_1  and  O_2
REMARK    2  A    between atoms: O_2  and  C_3
REMARK    3  A    between atoms: C_5  and  C_6
REMARK    4  A    between atoms: C_7  and  C_8
REMARK    5  A    between atoms: C_13  and  C_14
REMARK    6  A    between atoms: C_14  and  C_15
REMARK    7  A    between atoms: C_14  and  C_16
REMARK    8  A    between atoms: C_14  and  O_17
REMARK    9  A    between atoms: C_24  and  O_25
REMARK   10  A    between atoms: O_25  and  C_26
REMARK                            x       y       z     vdW  Elec       q    Type
REMARK                         _______ _______ _______ _____ _____    ______ ____
ROOT
ATOM      1  C   UNL     1       1.035   8.767  20.555  0.00  0.00    +0.000 A 
ATOM      2  C   UNL     1       0.980   8.556  21.934  0.00  0.00    +0.000 A 
ATOM      3  C   UNL     1       0.234   9.410  22.747  0.00  0.00    +0.000 A 
ATOM      4  C   UNL     1      -0.487  10.466  22.179  0.00  0.00    +0.000 A 
ATOM      5  C   UNL     1      -1.289  11.341  23.014  0.00  0.00    +0.000 A 
ATOM      6  C   UNL     1      -2.061  12.270  22.435  0.00  0.00    +0.000 A 
ATOM      7  O   UNL     1      -2.063  12.454  21.027  0.00  0.00    +0.000 OA
ATOM      8  C   UNL     1      -1.264  11.735  20.182  0.00  0.00    +0.000 A 
ATOM      9  O   UNL     1      -1.233  11.951  18.976  0.00  0.00    +0.000 OA
ATOM     10  C   UNL     1      -0.454  10.658  20.797  0.00  0.00    +0.000 A 
ATOM     11  C   UNL     1       0.320   9.821  19.982  0.00  0.00    +0.000 A 
ENDROOT
BRANCH   6  12
ATOM     12  C   UNL     1      -2.994  13.190  23.207  0.00  0.00    +0.000 C 
ATOM     13  C   UNL     1      -3.888  12.438  24.197  0.00  0.00    +0.000 C 
ATOM     14  C   UNL     1      -2.178  14.264  23.930  0.00  0.00    +0.000 C 
BRANCH  12  15
ATOM     15  O   UNL     1      -3.857  13.871  22.285  0.00  0.00    +0.000 OA
ATOM     16  H   UNL     1      -4.685  13.363  22.242  0.00  0.00    +0.000 HD
ENDBRANCH  12  15
ENDBRANCH   6  12
BRANCH   1  18
ATOM     17  C   UNL     1       2.473   7.168  19.039  0.00  0.00    +0.000 C 
ATOM     18  C   UNL     1       1.832   7.907  19.734  0.00  0.00    +0.000 C 
BRANCH  17  21
ATOM     19  C   UNL     1       5.131   5.813  16.800  0.00  0.00    +0.000 A 
ATOM     20  C   UNL     1       4.392   6.688  17.598  0.00  0.00    +0.000 A 
ATOM     21  C   UNL     1       3.210   6.263  18.208  0.00  0.00    +0.000 A 
ATOM     22  C   UNL     1       2.767   4.955  18.020  0.00  0.00    +0.000 A 
ATOM     23  C   UNL     1       3.496   4.068  17.225  0.00  0.00    +0.000 A 
ATOM     24  C   UNL     1       4.678   4.501  16.613  0.00  0.00    +0.000 A 
BRANCH  19  26
ATOM     25  C   UNL     1       7.317   6.669  17.180  0.00  0.00    +0.000 C 
ATOM     26  O   UNL     1       6.276   6.339  16.267  0.00  0.00    +0.000 OA
ENDBRANCH  19  26
BRANCH  23  27
ATOM     27  O   UNL     1       2.967   2.809  17.121  0.00  0.00    +0.000 OA
ATOM     28  C   UNL     1       2.263   2.308  18.253  0.00  0.00    +0.000 C 
ENDBRANCH  23  27
ENDBRANCH  17  21
ENDBRANCH   1  18
TORSDOF 6
ENDMDL
MODEL 6
REMARK VINA RESULT:      -8.0      1.450      2.011
REMARK  Name = 
REMARK  10 active torsions:
REMARK  status: ('A' for Active; 'I' for Inactive)
REMARK    1  A    between atoms: C_1  and  O_2
REMARK    2  A    between atoms: O_2  and  C_3
REMARK    3  A    between atoms: C_5  and  C_6
REMARK    4  A    between atoms: C_7  and  C_8
REMARK    5  A    between atoms: C_13  and  C_14
REMARK    6  A    between atoms: C_14  and  C_15
REMARK    7  A    between atoms: C_14  and  C_16
REMARK    8  A    between atoms: C_14  and  O_17
REMARK    9  A    between atoms: C_24  and  O_25
REMARK   10  A    between atoms: O_25  and  C_26
REMARK                            x       y       z     vdW  Elec       q    Type
REMARK                         _______ _______ _______ _____ _____    ______ ____
ROOT
ATOM      1  C   UNL     1       0.963   8.840  20.640  0.00  0.00    +0.000 A 
ATOM      2  C   UNL     1       0.971   8.687  22.028  0.00  0.00    +0.000 A 
ATOM      3  C   UNL     1       0.229   9.551  22.834  0.00  0.00    +0.000 A 
ATOM      4  C   UNL     1      -0.551  10.556  22.253  0.00  0.00    +0.000 A 
ATOM      5  C   UNL     1      -1.348  11.440  23.083  0.00  0.00    +0.000 A 
ATOM      6  C   UNL     1      -2.175  12.316  22.498  0.00  0.00    +0.000 A 
ATOM      7  O   UNL     1      -2.241  12.439  21.085  0.00  0.00    +0.000 OA
ATOM      8  C   UNL     1      -1.453  11.710  20.238  0.00  0.00    +0.000 A 
ATOM      9  O   UNL     1      -1.478  11.874  19.024  0.00  0.00    +0.000 OA
ATOM     10  C   UNL     1      -0.581  10.689  20.863  0.00  0.00    +0.000 A 
ATOM     11  C   UNL     1       0.189   9.843  20.053  0.00  0.00    +0.000 A 
ENDROOT
BRANCH   6  12
ATOM     12  C   UNL     1      -3.107  13.238  23.269  0.00  0.00    +0.000 C 
ATOM     13  C   UNL     1      -3.975  12.492  24.287  0.00  0.00    +0.000 C 
ATOM     14  C   UNL     1      -2.294  14.335  23.959  0.00  0.00    +0.000 C 
BRANCH  12  15
ATOM     15  O   UNL     1      -3.995  13.891  22.350  0.00  0.00    +0.000 OA
ATOM     16  H   UNL     1      -4.850  13.991  22.802  0.00  0.00    +0.000 HD
ENDBRANCH  12  15
ENDBRANCH   6  12
BRANCH   1  18
ATOM     17  C   UNL     1       2.392   7.229  19.128  0.00  0.00    +0.000 C 
ATOM     18  C   UNL     1       1.755   7.971  19.823  0.00  0.00    +0.000 C 
BRANCH  17  21
ATOM     19  C   UNL     1       3.356   4.122  17.303  0.00  0.00    +0.000 A 
ATOM     20  C   UNL     1       2.666   5.013  18.126  0.00  0.00    +0.000 A 
ATOM     21  C   UNL     1       3.122   6.321  18.294  0.00  0.00    +0.000 A 
ATOM     22  C   UNL     1       4.276   6.741  17.633  0.00  0.00    +0.000 A 
ATOM     23  C   UNL     1       4.977   5.861  16.806  0.00  0.00    +0.000 A 
ATOM     24  C   UNL     1       4.516   4.549  16.645  0.00  0.00    +0.000 A 
BRANCH  19  26
ATOM     25  C   UNL     1       2.763   2.096  18.398  0.00  0.00    +0.000 C 
ATOM     26  O   UNL     1       2.805   2.873  17.207  0.00  0.00    +0.000 OA
ENDBRANCH  19  26
BRANCH  23  27
ATOM     27  O   UNL     1       6.089   6.387  16.205  0.00  0.00    +0.000 OA
ATOM     28  C   UNL     1       7.263   6.500  17.003  0.00  0.00    +0.000 C 
ENDBRANCH  23  27
ENDBRANCH  17  21
ENDBRANCH   1  18
TORSDOF 6
ENDMDL
MODEL 7
REMARK VINA RESULT:      -8.0      1.096      1.290
REMARK  Name = 
REMARK  10 active torsions:
REMARK  status: ('A' for Active; 'I' for Inactive)
REMARK    1  A    between atoms: C_1  and  O_2
REMARK    2  A    between atoms: O_2  and  C_3
REMARK    3  A    between atoms: C_5  and  C_6
REMARK    4  A    between atoms: C_7  and  C_8
REMARK    5  A    between atoms: C_13  and  C_14
REMARK    6  A    between atoms: C_14  and  C_15
REMARK    7  A    between atoms: C_14  and  C_16
REMARK    8  A    between atoms: C_14  and  O_17
REMARK    9  A    between atoms: C_24  and  O_25
REMARK   10  A    between atoms: O_25  and  C_26
REMARK                            x       y       z     vdW  Elec       q    Type
REMARK                         _______ _______ _______ _____ _____    ______ ____
ROOT
ATOM      1  C   UNL     1       1.085   9.122  19.524  0.00  0.00    +0.000 A 
ATOM      2  C   UNL     1       0.435   9.920  18.581  0.00  0.00    +0.000 A 
ATOM      3  C   UNL     1      -0.515  10.858  18.990  0.00  0.00    +0.000 A 
ATOM      4  C   UNL     1      -0.798  11.022  20.349  0.00  0.00    +0.000 A 
ATOM      5  C   UNL     1      -1.763  12.016  20.784  0.00  0.00    +0.000 A 
ATOM      6  C   UNL     1      -1.930  12.235  22.094  0.00  0.00    +0.000 A 
ATOM      7  O   UNL     1      -1.228  11.472  23.065  0.00  0.00    +0.000 OA
ATOM      8  C   UNL     1      -0.375  10.455  22.737  0.00  0.00    +0.000 A 
ATOM      9  O   UNL     1       0.174   9.767  23.589  0.00  0.00    +0.000 OA
ATOM     10  C   UNL     1      -0.126  10.244  21.293  0.00  0.00    +0.000 A 
ATOM     11  C   UNL     1       0.805   9.279  20.883  0.00  0.00    +0.000 A 
ENDROOT
BRANCH   6  12
ATOM     12  C   UNL     1      -2.859  13.298  22.659  0.00  0.00    +0.000 C 
ATOM     13  C   UNL     1      -2.184  14.666  22.796  0.00  0.00    +0.000 C 
ATOM     14  C   UNL     1      -4.113  13.404  21.788  0.00  0.00    +0.000 C 
BRANCH  12  15
ATOM     15  O   UNL     1      -3.291  12.903  23.968  0.00  0.00    +0.000 OA
ATOM     16  H   UNL     1      -3.699  12.024  23.880  0.00  0.00    +0.000 HD
ENDBRANCH  12  15
ENDBRANCH   6  12
BRANCH   1  18
ATOM     17  C   UNL     1       2.835   7.334  18.708  0.00  0.00    +0.000 C 
ATOM     18  C   UNL     1       2.032   8.139  19.093  0.00  0.00    +0.000 C 
BRANCH  17  21
ATOM     19  C   UNL     1       5.070   4.354  18.526  0.00  0.00    +0.000 A 
ATOM     20  C   UNL     1       4.148   5.289  18.997  0.00  0.00    +0.000 A 
ATOM     21  C   UNL     1       3.798   6.394  18.218  0.00  0.00    +0.000 A 
ATOM     22  C   UNL     1       4.375   6.563  16.960  0.00  0.00    +0.000 A 
ATOM     23  C   UNL     1       5.300   5.635  16.475  0.00  0.00    +0.000 A 
ATOM     24  C   UNL     1       5.649   4.532  17.263  0.00  0.00    +0.000 A 
BRANCH  19  26
ATOM     25  C   UNL     1       4.195   2.586  19.853  0.00  0.00    +0.000 C 
ATOM     26  O   UNL     1       5.322   3.309  19.372  0.00  0.00    +0.000 OA
ENDBRANCH  19  26
BRANCH  23  27
ATOM     27  O   UNL     1       5.792   5.902  15.226  0.00  0.00    +0.000 OA
ATOM     28  C   UNL     1       6.617   4.906  14.630  0.00  0.00    +0.000 C 
ENDBRANCH  23  27
ENDBRANCH  17  21
ENDBRANCH   1  18
TORSDOF 6
ENDMDL
MODEL 8
REMARK VINA RESULT:      -7.9      1.246      2.553
REMARK  Name = 
REMARK  10 active torsions:
REMARK  status: ('A' for Active; 'I' for Inactive)
REMARK    1  A    between atoms: C_1  and  O_2
REMARK    2  A    between atoms: O_2  and  C_3
REMARK    3  A    between atoms: C_5  and  C_6
REMARK    4  A    between atoms: C_7  and  C_8
REMARK    5  A    between atoms: C_13  and  C_14
REMARK    6  A    between atoms: C_14  and  C_15
REMARK    7  A    between atoms: C_14  and  C_16
REMARK    8  A    between atoms: C_14  and  O_17
REMARK    9  A    between atoms: C_24  and  O_25
REMARK   10  A    between atoms: O_25  and  C_26
REMARK                            x       y       z     vdW  Elec       q    Type
REMARK                         _______ _______ _______ _____ _____    ______ ____
ROOT
ATOM      1  C   UNL     1       1.071   9.185  18.780  0.00  0.00    +0.000 A 
ATOM      2  C   UNL     1       0.269   9.722  17.771  0.00  0.00    +0.000 A 
ATOM      3  C   UNL     1      -0.764  10.605  18.090  0.00  0.00    +0.000 A 
ATOM      4  C   UNL     1      -0.981  10.979  19.420  0.00  0.00    +0.000 A 
ATOM      5  C   UNL     1      -2.035  11.919  19.756  0.00  0.00    +0.000 A 
ATOM      6  C   UNL     1      -2.146  12.351  21.018  0.00  0.00    +0.000 A 
ATOM      7  O   UNL     1      -1.295  11.860  22.044  0.00  0.00    +0.000 OA
ATOM      8  C   UNL     1      -0.343  10.904  21.826  0.00  0.00    +0.000 A 
ATOM      9  O   UNL     1       0.339  10.447  22.735  0.00  0.00    +0.000 OA
ATOM     10  C   UNL     1      -0.159  10.464  20.424  0.00  0.00    +0.000 A 
ATOM     11  C   UNL     1       0.858   9.552  20.110  0.00  0.00    +0.000 A 
ENDROOT
BRANCH   6  12
ATOM     12  C   UNL     1      -3.165  13.387  21.467  0.00  0.00    +0.000 C 
ATOM     13  C   UNL     1      -4.590  12.831  21.533  0.00  0.00    +0.000 C 
ATOM     14  C   UNL     1      -2.751  13.966  22.822  0.00  0.00    +0.000 C 
BRANCH  12  15
ATOM     15  O   UNL     1      -3.176  14.477  20.533  0.00  0.00    +0.000 OA
ATOM     16  H   UNL     1      -2.564  14.241  19.814  0.00  0.00    +0.000 HD
ENDBRANCH  12  15
ENDBRANCH   6  12
BRANCH   1  18
ATOM     17  C   UNL     1       2.959   7.450  18.188  0.00  0.00    +0.000 C 
ATOM     18  C   UNL     1       2.105   8.253  18.447  0.00  0.00    +0.000 C 
BRANCH  17  21
ATOM     19  C   UNL     1       5.735   5.647  16.470  0.00  0.00    +0.000 A 
ATOM     20  C   UNL     1       4.738   6.583  16.749  0.00  0.00    +0.000 A 
ATOM     21  C   UNL     1       3.965   6.470  17.906  0.00  0.00    +0.000 A 
ATOM     22  C   UNL     1       4.192   5.415  18.789  0.00  0.00    +0.000 A 
ATOM     23  C   UNL     1       5.186   4.471  18.523  0.00  0.00    +0.000 A 
ATOM     24  C   UNL     1       5.955   4.588  17.359  0.00  0.00    +0.000 A 
BRANCH  19  26
ATOM     25  C   UNL     1       6.675   4.741  14.482  0.00  0.00    +0.000 C 
ATOM     26  O   UNL     1       6.435   5.870  15.315  0.00  0.00    +0.000 OA
ENDBRANCH  19  26
BRANCH  23  27
ATOM     27  O   UNL     1       5.321   3.486  19.464  0.00  0.00    +0.000 OA
ATOM     28  C   UNL     1       4.192   2.649  19.690  0.00  0.00    +0.000 C 
ENDBRANCH  23  27
ENDBRANCH  17  21
ENDBRANCH   1  18
TORSDOF 6
ENDMDL
MODEL 9
REMARK VINA RESULT:      -7.9      1.117      2.624
REMARK  Name = 
REMARK  10 active torsions:
REMARK  status: ('A' for Active; 'I' for Inactive)
REMARK    1  A    between atoms: C_1  and  O_2
REMARK    2  A    between atoms: O_2  and  C_3
REMARK    3  A    between atoms: C_5  and  C_6
REMARK    4  A    between atoms: C_7  and  C_8
REMARK    5  A    between atoms: C_13  and  C_14
REMARK    6  A    between atoms: C_14  and  C_15
REMARK    7  A    between atoms: C_14  and  C_16
REMARK    8  A    between atoms: C_14  and  O_17
REMARK    9  A    between atoms: C_24  and  O_25
REMARK   10  A    between atoms: O_25  and  C_26
REMARK                            x       y       z     vdW  Elec       q    Type
REMARK                         _______ _______ _______ _____ _____    ______ ____
ROOT
ATOM      1  C   UNL     1       1.201   9.310  19.430  0.00  0.00    +0.000 A 
ATOM      2  C   UNL     1       0.920  10.413  18.622  0.00  0.00    +0.000 A 
ATOM      3  C   UNL     1       0.240  11.514  19.146  0.00  0.00    +0.000 A 
ATOM      4  C   UNL     1      -0.138  11.528  20.493  0.00  0.00    +0.000 A 
ATOM      5  C   UNL     1      -0.820  12.680  21.053  0.00  0.00    +0.000 A 
ATOM      6  C   UNL     1      -1.065  12.718  22.369  0.00  0.00    +0.000 A 
ATOM      7  O   UNL     1      -0.728  11.628  23.214  0.00  0.00    +0.000 OA
ATOM      8  C   UNL     1      -0.172  10.470  22.748  0.00  0.00    +0.000 A 
ATOM      9  O   UNL     1       0.054   9.516  23.482  0.00  0.00    +0.000 OA
ATOM     10  C   UNL     1       0.169  10.436  21.307  0.00  0.00    +0.000 A 
ATOM     11  C   UNL     1       0.824   9.316  20.774  0.00  0.00    +0.000 A 
ENDROOT
BRANCH   6  12
ATOM     12  C   UNL     1      -1.707  13.904  23.071  0.00  0.00    +0.000 C 
ATOM     13  C   UNL     1      -2.008  15.068  22.121  0.00  0.00    +0.000 C 
ATOM     14  C   UNL     1      -2.983  13.453  23.787  0.00  0.00    +0.000 C 
BRANCH  12  15
ATOM     15  O   UNL     1      -0.815  14.397  24.080  0.00  0.00    +0.000 OA
ATOM     16  H   UNL     1      -1.365  14.776  24.787  0.00  0.00    +0.000 HD
ENDBRANCH  12  15
ENDBRANCH   6  12
BRANCH   1  18
ATOM     17  C   UNL     1       2.424   7.203  18.438  0.00  0.00    +0.000 C 
ATOM     18  C   UNL     1       1.867   8.172  18.874  0.00  0.00    +0.000 C 
BRANCH  17  21
ATOM     19  C   UNL     1       5.113   4.967  17.140  0.00  0.00    +0.000 A 
ATOM     20  C   UNL     1       4.442   6.102  17.599  0.00  0.00    +0.000 A 
ATOM     21  C   UNL     1       3.093   6.033  17.950  0.00  0.00    +0.000 A 
ATOM     22  C   UNL     1       2.412   4.821  17.843  0.00  0.00    +0.000 A 
ATOM     23  C   UNL     1       3.069   3.678  17.385  0.00  0.00    +0.000 A 
ATOM     24  C   UNL     1       4.422   3.754  17.031  0.00  0.00    +0.000 A 
BRANCH  19  26
ATOM     25  C   UNL     1       7.333   5.266  17.937  0.00  0.00    +0.000 C 
ATOM     26  O   UNL     1       6.435   5.155  16.839  0.00  0.00    +0.000 OA
ENDBRANCH  19  26
BRANCH  23  27
ATOM     27  O   UNL     1       2.301   2.546  17.329  0.00  0.00    +0.000 OA
ATOM     28  C   UNL     1       1.545   2.221  18.491  0.00  0.00    +0.000 C 
ENDBRANCH  23  27
ENDBRANCH  17  21
ENDBRANCH   1  18
TORSDOF 6
ENDMDL
