MODEL 1
REMARK VINA RESULT:      -8.0      0.000      0.000
REMARK  Name = 
REMARK  4 active torsions:
REMARK  status: ('A' for Active; 'I' for Inactive)
REMARK    1  A    between atoms: O_1  and  C_2
REMARK    2  A    between atoms: C_5  and  C_6
REMARK    3  A    between atoms: C_8  and  C_9
REMARK    4  A    between atoms: C_16  and  C_17
REMARK                            x       y       z     vdW  Elec       q    Type
REMARK                         _______ _______ _______ _____ _____    ______ ____
ROOT
ATOM      1  C   UNL     1       4.678   5.153  17.469  0.00  0.00    +0.000 A 
ATOM      2  C   UNL     1       5.458   6.197  17.979  0.00  0.00    +0.000 A 
ATOM      3  C   UNL     1       6.523   6.716  17.244  0.00  0.00    +0.000 A 
ATOM      4  N   UNL     1       6.829   6.240  16.012  0.00  0.00    +0.000 NA
ATOM      5  C   UNL     1       6.086   5.232  15.493  0.00  0.00    +0.000 A 
ATOM      6  C   UNL     1       5.024   4.671  16.202  0.00  0.00    +0.000 A 
ENDROOT
BRANCH   5   7
ATOM      7  C   UNL     1       6.469   4.768  14.141  0.00  0.00    +0.000 A 
ATOM      8  C   UNL     1       7.537   5.349  13.429  0.00  0.00    +0.000 A 
ATOM      9  C   UNL     1       7.880   4.923  12.142  0.00  0.00    +0.000 A 
ATOM     10  C   UNL     1       7.164   3.893  11.540  0.00  0.00    +0.000 A 
ATOM     11  C   UNL     1       6.116   3.292  12.230  0.00  0.00    +0.000 A 
ATOM     12 CL   UNL     1       5.235   2.013  11.486  0.00  0.00    +0.000 Cl
ATOM     13  C   UNL     1       5.771   3.719  13.514  0.00  0.00    +0.000 A 
ENDBRANCH   5   7
BRANCH   1  17
ATOM     14  C   UNL     1       1.334   3.568  19.664  0.00  0.00    +0.000 A 
ATOM     15  C   UNL     1       2.366   4.200  20.345  0.00  0.00    +0.000 A 
ATOM     16  C   UNL     1       3.449   4.715  19.625  0.00  0.00    +0.000 A 
ATOM     17  C   UNL     1       3.530   4.597  18.224  0.00  0.00    +0.000 A 
ATOM     18  C   UNL     1       2.470   3.937  17.572  0.00  0.00    +0.000 A 
ATOM     19  C   UNL     1       1.377   3.436  18.285  0.00  0.00    +0.000 A 
BRANCH  14  20
ATOM     20  O   UNL     1       0.253   3.063  20.320  0.00  0.00    +0.000 OA
ATOM     21  H   UNL     1       0.230   3.438  21.216  0.00  0.00    +0.000 HD
ENDBRANCH  14  20
ENDBRANCH   1  17
BRANCH   3  22
ATOM     22  C   UNL     1       7.366   7.826  17.746  0.00  0.00    +0.000 A 
ATOM     23  C   UNL     1       8.344   7.630  18.742  0.00  0.00    +0.000 A 
ATOM     24  C   UNL     1       9.117   8.691  19.226  0.00  0.00    +0.000 A 
ATOM     25  C   UNL     1       8.937   9.972  18.718  0.00  0.00    +0.000 A 
ATOM     26  C   UNL     1       7.989  10.193  17.724  0.00  0.00    +0.000 A 
ATOM     27  C   UNL     1       7.214   9.132  17.244  0.00  0.00    +0.000 A 
ENDBRANCH   3  22
TORSDOF 4
ENDMDL
MODEL 2
REMARK VINA RESULT:      -8.0      0.074      1.335
REMARK  Name = 
REMARK  4 active torsions:
REMARK  status: ('A' for Active; 'I' for Inactive)
REMARK    1  A    between atoms: O_1  and  C_2
REMARK    2  A    between atoms: C_5  and  C_6
REMARK    3  A    between atoms: C_8  and  C_9
REMARK    4  A    between atoms: C_16  and  C_17
REMARK                            x       y       z     vdW  Elec       q    Type
REMARK                         _______ _______ _______ _____ _____    ______ ____
ROOT
ATOM      1  C   UNL     1       4.661   5.122  17.461  0.00  0.00    +0.000 A 
ATOM      2  C   UNL     1       5.434   6.170  17.972  0.00  0.00    +0.000 A 
ATOM      3  C   UNL     1       6.497   6.697  17.240  0.00  0.00    +0.000 A 
ATOM      4  N   UNL     1       6.809   6.222  16.009  0.00  0.00    +0.000 NA
ATOM      5  C   UNL     1       6.074   5.210  15.488  0.00  0.00    +0.000 A 
ATOM      6  C   UNL     1       5.014   4.642  16.195  0.00  0.00    +0.000 A 
ENDROOT
BRANCH   5   7
ATOM      7  C   UNL     1       6.462   4.747  14.137  0.00  0.00    +0.000 A 
ATOM      8  C   UNL     1       7.544   5.319  13.437  0.00  0.00    +0.000 A 
ATOM      9  C   UNL     1       7.892   4.896  12.151  0.00  0.00    +0.000 A 
ATOM     10  C   UNL     1       7.169   3.878  11.537  0.00  0.00    +0.000 A 
ATOM     11  C   UNL     1       6.107   3.286  12.215  0.00  0.00    +0.000 A 
ATOM     12 CL   UNL     1       5.216   2.023  11.457  0.00  0.00    +0.000 Cl
ATOM     13  C   UNL     1       5.756   3.711  13.498  0.00  0.00    +0.000 A 
ENDBRANCH   5   7
BRANCH   1  17
ATOM     14  C   UNL     1       1.351   3.455  19.646  0.00  0.00    +0.000 A 
ATOM     15  C   UNL     1       1.446   3.246  18.277  0.00  0.00    +0.000 A 
ATOM     16  C   UNL     1       2.526   3.789  17.573  0.00  0.00    +0.000 A 
ATOM     17  C   UNL     1       3.516   4.558  18.213  0.00  0.00    +0.000 A 
ATOM     18  C   UNL     1       3.376   4.759  19.601  0.00  0.00    +0.000 A 
ATOM     19  C   UNL     1       2.308   4.203  20.312  0.00  0.00    +0.000 A 
BRANCH  14  20
ATOM     20  O   UNL     1       0.326   2.935  20.376  0.00  0.00    +0.000 OA
ATOM     21  H   UNL     1       0.517   3.067  21.319  0.00  0.00    +0.000 HD
ENDBRANCH  14  20
ENDBRANCH   1  17
BRANCH   3  22
ATOM     22  C   UNL     1       7.332   7.811  17.743  0.00  0.00    +0.000 A 
ATOM     23  C   UNL     1       7.196   9.127  17.255  0.00  0.00    +0.000 A 
ATOM     24  C   UNL     1       8.008  10.167  17.720  0.00  0.00    +0.000 A 
ATOM     25  C   UNL     1       8.969   9.918  18.692  0.00  0.00    +0.000 A 
ATOM     26  C   UNL     1       9.118   8.632  19.203  0.00  0.00    +0.000 A 
ATOM     27  C   UNL     1       8.308   7.593  18.734  0.00  0.00    +0.000 A 
ENDBRANCH   3  22
TORSDOF 4
ENDMDL
MODEL 3
REMARK VINA RESULT:      -7.6      8.111     10.208
REMARK  Name = 
REMARK  4 active torsions:
REMARK  status: ('A' for Active; 'I' for Inactive)
REMARK    1  A    between atoms: O_1  and  C_2
REMARK    2  A    between atoms: C_5  and  C_6
REMARK    3  A    between atoms: C_8  and  C_9
REMARK    4  A    between atoms: C_16  and  C_17
REMARK                            x       y       z     vdW  Elec       q    Type
REMARK                         _______ _______ _______ _____ _____    ______ ____
ROOT
ATOM      1  C   UNL     1      -1.335  11.565  18.277  0.00  0.00    +0.000 A 
ATOM      2  C   UNL     1      -0.652  10.355  18.435  0.00  0.00    +0.000 A 
ATOM      3  C   UNL     1       0.729  10.334  18.626  0.00  0.00    +0.000 A 
ATOM      4  N   UNL     1       1.451  11.481  18.679  0.00  0.00    +0.000 NA
ATOM      5  C   UNL     1       0.812  12.667  18.534  0.00  0.00    +0.000 A 
ATOM      6  C   UNL     1      -0.565  12.732  18.322  0.00  0.00    +0.000 A 
ENDROOT
BRANCH   5   7
ATOM      7  C   UNL     1       1.659  13.879  18.612  0.00  0.00    +0.000 A 
ATOM      8  C   UNL     1       1.146  15.117  19.049  0.00  0.00    +0.000 A 
ATOM      9  C   UNL     1       1.943  16.265  19.098  0.00  0.00    +0.000 A 
ATOM     10  C   UNL     1       3.281  16.197  18.720  0.00  0.00    +0.000 A 
ATOM     11  C   UNL     1       3.814  14.982  18.301  0.00  0.00    +0.000 A 
ATOM     12 CL   UNL     1       5.470  14.896  17.839  0.00  0.00    +0.000 Cl
ATOM     13  C   UNL     1       3.017  13.836  18.248  0.00  0.00    +0.000 A 
ENDBRANCH   5   7
BRANCH   1  17
ATOM     14  C   UNL     1      -5.603  11.668  17.735  0.00  0.00    +0.000 A 
ATOM     15  C   UNL     1      -4.783  11.297  16.677  0.00  0.00    +0.000 A 
ATOM     16  C   UNL     1      -3.397  11.263  16.860  0.00  0.00    +0.000 A 
ATOM     17  C   UNL     1      -2.804  11.612  18.089  0.00  0.00    +0.000 A 
ATOM     18  C   UNL     1      -3.669  11.995  19.134  0.00  0.00    +0.000 A 
ATOM     19  C   UNL     1      -5.056  12.013  18.961  0.00  0.00    +0.000 A 
BRANCH  14  20
ATOM     20  O   UNL     1      -6.957  11.702  17.608  0.00  0.00    +0.000 OA
ATOM     21  H   UNL     1      -7.300  10.797  17.693  0.00  0.00    +0.000 HD
ENDBRANCH  14  20
ENDBRANCH   1  17
BRANCH   3  22
ATOM     22  C   UNL     1       1.487   9.075  18.806  0.00  0.00    +0.000 A 
ATOM     23  C   UNL     1       2.296   8.537  17.784  0.00  0.00    +0.000 A 
ATOM     24  C   UNL     1       2.987   7.333  17.956  0.00  0.00    +0.000 A 
ATOM     25  C   UNL     1       2.894   6.642  19.159  0.00  0.00    +0.000 A 
ATOM     26  C   UNL     1       2.114   7.156  20.191  0.00  0.00    +0.000 A 
ATOM     27  C   UNL     1       1.421   8.358  20.015  0.00  0.00    +0.000 A 
ENDBRANCH   3  22
TORSDOF 4
ENDMDL
MODEL 4
REMARK VINA RESULT:      -7.5      7.580      8.904
REMARK  Name = 
REMARK  4 active torsions:
REMARK  status: ('A' for Active; 'I' for Inactive)
REMARK    1  A    between atoms: O_1  and  C_2
REMARK    2  A    between atoms: C_5  and  C_6
REMARK    3  A    between atoms: C_8  and  C_9
REMARK    4  A    between atoms: C_16  and  C_17
REMARK                            x       y       z     vdW  Elec       q    Type
REMARK                         _______ _______ _______ _____ _____    ______ ____
ROOT
ATOM      1  C   UNL     1      -1.172  11.492  18.311  0.00  0.00    +0.000 A 
ATOM      2  C   UNL     1      -0.380  12.645  18.356  0.00  0.00    +0.000 A 
ATOM      3  C   UNL     1       0.996  12.558  18.565  0.00  0.00    +0.000 A 
ATOM      4  N   UNL     1       1.612  11.360  18.718  0.00  0.00    +0.000 NA
ATOM      5  C   UNL     1       0.869  10.228  18.674  0.00  0.00    +0.000 A 
ATOM      6  C   UNL     1      -0.513  10.270  18.486  0.00  0.00    +0.000 A 
ENDROOT
BRANCH   5   7
ATOM      7  C   UNL     1       1.606   8.955  18.838  0.00  0.00    +0.000 A 
ATOM      8  C   UNL     1       1.461   8.154  19.989  0.00  0.00    +0.000 A 
ATOM      9  C   UNL     1       2.178   6.965  20.150  0.00  0.00    +0.000 A 
ATOM     10  C   UNL     1       3.053   6.542  19.154  0.00  0.00    +0.000 A 
ATOM     11  C   UNL     1       3.200   7.307  18.001  0.00  0.00    +0.000 A 
ATOM     12 CL   UNL     1       4.278   6.781  16.765  0.00  0.00    +0.000 Cl
ATOM     13  C   UNL     1       2.487   8.498  17.840  0.00  0.00    +0.000 A 
ENDBRANCH   5   7
BRANCH   1  17
ATOM     14  C   UNL     1      -5.417  11.652  17.626  0.00  0.00    +0.000 A 
ATOM     15  C   UNL     1      -4.571  11.233  16.608  0.00  0.00    +0.000 A 
ATOM     16  C   UNL     1      -3.192  11.181  16.838  0.00  0.00    +0.000 A 
ATOM     17  C   UNL     1      -2.633  11.558  18.074  0.00  0.00    +0.000 A 
ATOM     18  C   UNL     1      -3.523  11.990  19.077  0.00  0.00    +0.000 A 
ATOM     19  C   UNL     1      -4.904  12.027  18.858  0.00  0.00    +0.000 A 
BRANCH  14  20
ATOM     20  O   UNL     1      -6.766  11.705  17.454  0.00  0.00    +0.000 OA
ATOM     21  H   UNL     1      -7.190  11.183  18.155  0.00  0.00    +0.000 HD
ENDBRANCH  14  20
ENDBRANCH   1  17
BRANCH   3  22
ATOM     22  C   UNL     1       1.868  13.754  18.609  0.00  0.00    +0.000 A 
ATOM     23  C   UNL     1       3.214  13.713  18.195  0.00  0.00    +0.000 A 
ATOM     24  C   UNL     1       4.036  14.843  18.266  0.00  0.00    +0.000 A 
ATOM     25  C   UNL     1       3.528  16.045  18.744  0.00  0.00    +0.000 A 
ATOM     26  C   UNL     1       2.198  16.119  19.148  0.00  0.00    +0.000 A 
ATOM     27  C   UNL     1       1.379  14.987  19.079  0.00  0.00    +0.000 A 
ENDBRANCH   3  22
TORSDOF 4
ENDMDL
MODEL 5
REMARK VINA RESULT:      -7.4      7.778     10.291
REMARK  Name = 
REMARK  4 active torsions:
REMARK  status: ('A' for Active; 'I' for Inactive)
REMARK    1  A    between atoms: O_1  and  C_2
REMARK    2  A    between atoms: C_5  and  C_6
REMARK    3  A    between atoms: C_8  and  C_9
REMARK    4  A    between atoms: C_16  and  C_17
REMARK                            x       y       z     vdW  Elec       q    Type
REMARK                         _______ _______ _______ _____ _____    ______ ____
ROOT
ATOM      1  C   UNL     1       0.923  10.108  18.737  0.00  0.00    +0.000 A 
ATOM      2  C   UNL     1      -0.455  10.165  18.505  0.00  0.00    +0.000 A 
ATOM      3  C   UNL     1      -1.099  11.389  18.328  0.00  0.00    +0.000 A 
ATOM      4  N   UNL     1      -0.413  12.558  18.362  0.00  0.00    +0.000 NA
ATOM      5  C   UNL     1       0.924  12.530  18.580  0.00  0.00    +0.000 A 
ATOM      6  C   UNL     1       1.604  11.329  18.781  0.00  0.00    +0.000 A 
ENDROOT
BRANCH   5   7
ATOM      7  C   UNL     1       1.612  13.841  18.595  0.00  0.00    +0.000 A 
ATOM      8  C   UNL     1       0.931  15.034  18.910  0.00  0.00    +0.000 A 
ATOM      9  C   UNL     1       1.579  16.273  18.899  0.00  0.00    +0.000 A 
ATOM     10  C   UNL     1       2.932  16.345  18.581  0.00  0.00    +0.000 A 
ATOM     11  C   UNL     1       3.629  15.178  18.282  0.00  0.00    +0.000 A 
ATOM     12 CL   UNL     1       5.304  15.267  17.895  0.00  0.00    +0.000 Cl
ATOM     13  C   UNL     1       2.982  13.941  18.290  0.00  0.00    +0.000 A 
ENDBRANCH   5   7
BRANCH   1  17
ATOM     14  C   UNL     1       2.951   6.346  19.238  0.00  0.00    +0.000 A 
ATOM     15  C   UNL     1       2.204   6.869  20.284  0.00  0.00    +0.000 A 
ATOM     16  C   UNL     1       1.545   8.091  20.114  0.00  0.00    +0.000 A 
ATOM     17  C   UNL     1       1.632   8.818  18.911  0.00  0.00    +0.000 A 
ATOM     18  C   UNL     1       2.411   8.260  17.878  0.00  0.00    +0.000 A 
ATOM     19  C   UNL     1       3.057   7.030  18.037  0.00  0.00    +0.000 A 
BRANCH  14  20
ATOM     20  O   UNL     1       3.598   5.154  19.352  0.00  0.00    +0.000 OA
ATOM     21  H   UNL     1       4.452   5.304  19.790  0.00  0.00    +0.000 HD
ENDBRANCH  14  20
ENDBRANCH   1  17
BRANCH   3  22
ATOM     22  C   UNL     1      -2.554  11.490  18.072  0.00  0.00    +0.000 A 
ATOM     23  C   UNL     1      -3.120  11.137  16.831  0.00  0.00    +0.000 A 
ATOM     24  C   UNL     1      -4.493  11.261  16.591  0.00  0.00    +0.000 A 
ATOM     25  C   UNL     1      -5.334  11.732  17.592  0.00  0.00    +0.000 A 
ATOM     26  C   UNL     1      -4.806  12.076  18.833  0.00  0.00    +0.000 A 
ATOM     27  C   UNL     1      -3.432  11.955  19.068  0.00  0.00    +0.000 A 
ENDBRANCH   3  22
TORSDOF 4
ENDMDL
MODEL 6
REMARK VINA RESULT:      -7.4      7.794     10.316
REMARK  Name = 
REMARK  4 active torsions:
REMARK  status: ('A' for Active; 'I' for Inactive)
REMARK    1  A    between atoms: O_1  and  C_2
REMARK    2  A    between atoms: C_5  and  C_6
REMARK    3  A    between atoms: C_8  and  C_9
REMARK    4  A    between atoms: C_16  and  C_17
REMARK                            x       y       z     vdW  Elec       q    Type
REMARK                         _______ _______ _______ _____ _____    ______ ____
ROOT
ATOM      1  C   UNL     1       0.864  10.119  18.769  0.00  0.00    +0.000 A 
ATOM      2  C   UNL     1      -0.515  10.194  18.544  0.00  0.00    +0.000 A 
ATOM      3  C   UNL     1      -1.142  11.425  18.359  0.00  0.00    +0.000 A 
ATOM      4  N   UNL     1      -0.440  12.585  18.378  0.00  0.00    +0.000 NA
ATOM      5  C   UNL     1       0.898  12.540  18.589  0.00  0.00    +0.000 A 
ATOM      6  C   UNL     1       1.562  11.331  18.797  0.00  0.00    +0.000 A 
ENDROOT
BRANCH   5   7
ATOM      7  C   UNL     1       1.604  13.841  18.587  0.00  0.00    +0.000 A 
ATOM      8  C   UNL     1       0.947  15.044  18.913  0.00  0.00    +0.000 A 
ATOM      9  C   UNL     1       1.611  16.274  18.887  0.00  0.00    +0.000 A 
ATOM     10  C   UNL     1       2.958  16.326  18.541  0.00  0.00    +0.000 A 
ATOM     11  C   UNL     1       3.633  15.149  18.231  0.00  0.00    +0.000 A 
ATOM     12 CL   UNL     1       5.301  15.214  17.809  0.00  0.00    +0.000 Cl
ATOM     13  C   UNL     1       2.969  13.921  18.254  0.00  0.00    +0.000 A 
ENDBRANCH   5   7
BRANCH   1  17
ATOM     14  C   UNL     1       2.900   6.366  19.301  0.00  0.00    +0.000 A 
ATOM     15  C   UNL     1       2.956   7.010  18.073  0.00  0.00    +0.000 A 
ATOM     16  C   UNL     1       2.294   8.231  17.907  0.00  0.00    +0.000 A 
ATOM     17  C   UNL     1       1.555   8.821  18.951  0.00  0.00    +0.000 A 
ATOM     18  C   UNL     1       1.512   8.129  20.178  0.00  0.00    +0.000 A 
ATOM     19  C   UNL     1       2.186   6.917  20.354  0.00  0.00    +0.000 A 
BRANCH  14  20
ATOM     20  O   UNL     1       3.539   5.183  19.515  0.00  0.00    +0.000 OA
ATOM     21  H   UNL     1       4.498   5.337  19.476  0.00  0.00    +0.000 HD
ENDBRANCH  14  20
ENDBRANCH   1  17
BRANCH   3  22
ATOM     22  C   UNL     1      -2.597  11.544  18.110  0.00  0.00    +0.000 A 
ATOM     23  C   UNL     1      -3.490  12.000  19.100  0.00  0.00    +0.000 A 
ATOM     24  C   UNL     1      -4.866  12.085  18.861  0.00  0.00    +0.000 A 
ATOM     25  C   UNL     1      -5.381  11.724  17.621  0.00  0.00    +0.000 A 
ATOM     26  C   UNL     1      -4.522  11.283  16.619  0.00  0.00    +0.000 A 
ATOM     27  C   UNL     1      -3.147  11.196  16.862  0.00  0.00    +0.000 A 
ENDBRANCH   3  22
TORSDOF 4
ENDMDL
MODEL 7
REMARK VINA RESULT:      -7.4      8.174      9.928
REMARK  Name = 
REMARK  4 active torsions:
REMARK  status: ('A' for Active; 'I' for Inactive)
REMARK    1  A    between atoms: O_1  and  C_2
REMARK    2  A    between atoms: C_5  and  C_6
REMARK    3  A    between atoms: C_8  and  C_9
REMARK    4  A    between atoms: C_16  and  C_17
REMARK                            x       y       z     vdW  Elec       q    Type
REMARK                         _______ _______ _______ _____ _____    ______ ____
ROOT
ATOM      1  C   UNL     1       0.833  10.272  18.695  0.00  0.00    +0.000 A 
ATOM      2  C   UNL     1       1.501  11.502  18.715  0.00  0.00    +0.000 A 
ATOM      3  C   UNL     1       0.802  12.697  18.549  0.00  0.00    +0.000 A 
ATOM      4  N   UNL     1      -0.544  12.709  18.378  0.00  0.00    +0.000 NA
ATOM      5  C   UNL     1      -1.215  11.532  18.360  0.00  0.00    +0.000 A 
ATOM      6  C   UNL     1      -0.552  10.313  18.503  0.00  0.00    +0.000 A 
ENDROOT
BRANCH   5   7
ATOM      7  C   UNL     1      -2.681  11.619  18.180  0.00  0.00    +0.000 A 
ATOM      8  C   UNL     1      -3.303  11.276  16.962  0.00  0.00    +0.000 A 
ATOM      9  C   UNL     1      -4.686  11.382  16.788  0.00  0.00    +0.000 A 
ATOM     10  C   UNL     1      -5.484  11.827  17.838  0.00  0.00    +0.000 A 
ATOM     11  C   UNL     1      -4.895  12.156  19.055  0.00  0.00    +0.000 A 
ATOM     12 CL   UNL     1      -5.884  12.701  20.356  0.00  0.00    +0.000 Cl
ATOM     13  C   UNL     1      -3.513  12.053  19.228  0.00  0.00    +0.000 A 
ENDBRANCH   5   7
BRANCH   1  17
ATOM     14  C   UNL     1       2.895   6.535  19.242  0.00  0.00    +0.000 A 
ATOM     15  C   UNL     1       2.145   7.067  20.283  0.00  0.00    +0.000 A 
ATOM     16  C   UNL     1       1.476   8.281  20.098  0.00  0.00    +0.000 A 
ATOM     17  C   UNL     1       1.553   8.991  18.885  0.00  0.00    +0.000 A 
ATOM     18  C   UNL     1       2.334   8.426  17.857  0.00  0.00    +0.000 A 
ATOM     19  C   UNL     1       2.991   7.204  18.032  0.00  0.00    +0.000 A 
BRANCH  14  20
ATOM     20  O   UNL     1       3.552   5.351  19.371  0.00  0.00    +0.000 OA
ATOM     21  H   UNL     1       2.978   4.639  19.043  0.00  0.00    +0.000 HD
ENDBRANCH  14  20
ENDBRANCH   1  17
BRANCH   3  22
ATOM     22  C   UNL     1       1.471  14.017  18.573  0.00  0.00    +0.000 A 
ATOM     23  C   UNL     1       2.798  14.191  18.131  0.00  0.00    +0.000 A 
ATOM     24  C   UNL     1       3.429  15.438  18.182  0.00  0.00    +0.000 A 
ATOM     25  C   UNL     1       2.743  16.546  18.667  0.00  0.00    +0.000 A 
ATOM     26  C   UNL     1       1.427  16.408  19.098  0.00  0.00    +0.000 A 
ATOM     27  C   UNL     1       0.800  15.159  19.049  0.00  0.00    +0.000 A 
ENDBRANCH   3  22
TORSDOF 4
ENDMDL
MODEL 8
REMARK VINA RESULT:      -7.4      8.266     10.317
REMARK  Name = 
REMARK  4 active torsions:
REMARK  status: ('A' for Active; 'I' for Inactive)
REMARK    1  A    between atoms: O_1  and  C_2
REMARK    2  A    between atoms: C_5  and  C_6
REMARK    3  A    between atoms: C_8  and  C_9
REMARK    4  A    between atoms: C_16  and  C_17
REMARK                            x       y       z     vdW  Elec       q    Type
REMARK                         _______ _______ _______ _____ _____    ______ ____
ROOT
ATOM      1  C   UNL     1      -1.177  11.487  18.235  0.00  0.00    +0.000 A 
ATOM      2  C   UNL     1      -0.507  10.269  18.393  0.00  0.00    +0.000 A 
ATOM      3  C   UNL     1       0.870  10.235  18.613  0.00  0.00    +0.000 A 
ATOM      4  N   UNL     1       1.600  11.375  18.692  0.00  0.00    +0.000 NA
ATOM      5  C   UNL     1       0.974  12.568  18.547  0.00  0.00    +0.000 A 
ATOM      6  C   UNL     1      -0.397  12.647  18.307  0.00  0.00    +0.000 A 
ENDROOT
BRANCH   5   7
ATOM      7  C   UNL     1       1.829  13.771  18.655  0.00  0.00    +0.000 A 
ATOM      8  C   UNL     1       3.193  13.749  18.302  0.00  0.00    +0.000 A 
ATOM      9  C   UNL     1       4.003  14.882  18.429  0.00  0.00    +0.000 A 
ATOM     10  C   UNL     1       3.460  16.072  18.904  0.00  0.00    +0.000 A 
ATOM     11  C   UNL     1       2.111  16.123  19.243  0.00  0.00    +0.000 A 
ATOM     12 CL   UNL     1       1.439  17.597  19.826  0.00  0.00    +0.000 Cl
ATOM     13  C   UNL     1       1.303  14.991  19.121  0.00  0.00    +0.000 A 
ENDBRANCH   5   7
BRANCH   1  17
ATOM     14  C   UNL     1      -5.431  11.632  17.607  0.00  0.00    +0.000 A 
ATOM     15  C   UNL     1      -4.595  11.247  16.567  0.00  0.00    +0.000 A 
ATOM     16  C   UNL     1      -3.213  11.199  16.779  0.00  0.00    +0.000 A 
ATOM     17  C   UNL     1      -2.642  11.548  18.017  0.00  0.00    +0.000 A 
ATOM     18  C   UNL     1      -3.522  11.947  19.042  0.00  0.00    +0.000 A 
ATOM     19  C   UNL     1      -4.905  11.979  18.841  0.00  0.00    +0.000 A 
BRANCH  14  20
ATOM     20  O   UNL     1      -6.783  11.680  17.453  0.00  0.00    +0.000 OA
ATOM     21  H   UNL     1      -7.201  11.392  18.281  0.00  0.00    +0.000 HD
ENDBRANCH  14  20
ENDBRANCH   1  17
BRANCH   3  22
ATOM     22  C   UNL     1       1.613   8.967  18.794  0.00  0.00    +0.000 A 
ATOM     23  C   UNL     1       2.449   8.440  17.789  0.00  0.00    +0.000 A 
ATOM     24  C   UNL     1       3.126   7.228  17.962  0.00  0.00    +0.000 A 
ATOM     25  C   UNL     1       2.991   6.518  19.150  0.00  0.00    +0.000 A 
ATOM     26  C   UNL     1       2.183   7.021  20.166  0.00  0.00    +0.000 A 
ATOM     27  C   UNL     1       1.504   8.231  19.989  0.00  0.00    +0.000 A 
ENDBRANCH   3  22
TORSDOF 4
ENDMDL
MODEL 9
REMARK VINA RESULT:      -7.4      8.222     10.040
REMARK  Name = 
REMARK  4 active torsions:
REMARK  status: ('A' for Active; 'I' for Inactive)
REMARK    1  A    between atoms: O_1  and  C_2
REMARK    2  A    between atoms: C_5  and  C_6
REMARK    3  A    between atoms: C_8  and  C_9
REMARK    4  A    between atoms: C_16  and  C_17
REMARK                            x       y       z     vdW  Elec       q    Type
REMARK                         _______ _______ _______ _____ _____    ______ ____
ROOT
ATOM      1  C   UNL     1       0.772  10.298  18.704  0.00  0.00    +0.000 A 
ATOM      2  C   UNL     1       1.447  11.524  18.704  0.00  0.00    +0.000 A 
ATOM      3  C   UNL     1       0.750  12.722  18.547  0.00  0.00    +0.000 A 
ATOM      4  N   UNL     1      -0.598  12.740  18.401  0.00  0.00    +0.000 NA
ATOM      5  C   UNL     1      -1.275  11.567  18.402  0.00  0.00    +0.000 A 
ATOM      6  C   UNL     1      -0.616  10.345  18.538  0.00  0.00    +0.000 A 
ENDROOT
BRANCH   5   7
ATOM      7  C   UNL     1      -2.745  11.660  18.250  0.00  0.00    +0.000 A 
ATOM      8  C   UNL     1      -3.389  11.335  17.039  0.00  0.00    +0.000 A 
ATOM      9  C   UNL     1      -4.775  11.448  16.892  0.00  0.00    +0.000 A 
ATOM     10  C   UNL     1      -5.552  11.881  17.962  0.00  0.00    +0.000 A 
ATOM     11  C   UNL     1      -4.940  12.192  19.172  0.00  0.00    +0.000 A 
ATOM     12 CL   UNL     1      -5.903  12.723  20.498  0.00  0.00    +0.000 Cl
ATOM     13  C   UNL     1      -3.556  12.083  19.319  0.00  0.00    +0.000 A 
ENDBRANCH   5   7
BRANCH   1  17
ATOM     14  C   UNL     1       2.882   6.586  19.239  0.00  0.00    +0.000 A 
ATOM     15  C   UNL     1       2.971   7.260  18.028  0.00  0.00    +0.000 A 
ATOM     16  C   UNL     1       2.285   8.467  17.862  0.00  0.00    +0.000 A 
ATOM     17  C   UNL     1       1.489   9.014  18.887  0.00  0.00    +0.000 A 
ATOM     18  C   UNL     1       1.413   8.293  20.095  0.00  0.00    +0.000 A 
ATOM     19  C   UNL     1       2.112   7.095  20.273  0.00  0.00    +0.000 A 
BRANCH  14  20
ATOM     20  O   UNL     1       3.543   5.416  19.453  0.00  0.00    +0.000 OA
ATOM     21  H   UNL     1       4.465   5.617  19.682  0.00  0.00    +0.000 HD
ENDBRANCH  14  20
ENDBRANCH   1  17
BRANCH   3  22
ATOM     22  C   UNL     1       1.427  14.039  18.551  0.00  0.00    +0.000 A 
ATOM     23  C   UNL     1       0.766  15.218  18.950  0.00  0.00    +0.000 A 
ATOM     24  C   UNL     1       1.407  16.460  18.925  0.00  0.00    +0.000 A 
ATOM     25  C   UNL     1       2.731  16.553  18.510  0.00  0.00    +0.000 A 
ATOM     26  C   UNL     1       3.414  15.404  18.122  0.00  0.00    +0.000 A 
ATOM     27  C   UNL     1       2.768  14.163  18.144  0.00  0.00    +0.000 A 
ENDBRANCH   3  22
TORSDOF 4
ENDMDL
