MODEL 1
REMARK VINA RESULT:      -6.7      0.000      0.000
REMARK  Name = 
REMARK  6 active torsions:
REMARK  status: ('A' for Active; 'I' for Inactive)
REMARK    1  A    between atoms: C_1  and  O_2
REMARK    2  A    between atoms: O_2  and  C_3
REMARK    3  A    between atoms: C_6  and  C_7
REMARK    4  A    between atoms: C_11  and  C_12
REMARK    5  A    between atoms: C_14  and  O_15
REMARK    6  A    between atoms: O_15  and  C_16
REMARK                            x       y       z     vdW  Elec       q    Type
REMARK                         _______ _______ _______ _____ _____    ______ ____
ROOT
ATOM      1  C   UNL     1       2.103   4.053  18.212  0.00  0.00    +0.000 A 
ATOM      2  C   UNL     1       2.416   5.421  18.181  0.00  0.00    +0.000 A 
ATOM      3  C   UNL     1       3.634   5.868  17.660  0.00  0.00    +0.000 A 
ATOM      4  C   UNL     1       4.570   4.956  17.174  0.00  0.00    +0.000 A 
ATOM      5  C   UNL     1       4.290   3.587  17.295  0.00  0.00    +0.000 A 
ATOM      6  C   UNL     1       3.072   3.123  17.816  0.00  0.00    +0.000 A 
ENDROOT
BRANCH   4   7
ATOM      7  C   UNL     1       5.796   5.406  16.529  0.00  0.00    +0.000 A 
ATOM      8  C   UNL     1       6.662   6.330  17.076  0.00  0.00    +0.000 A 
ATOM      9  N   UNL     1       7.707   6.436  16.210  0.00  0.00    +0.000 N 
ATOM     10  N   UNL     1       7.585   5.664  15.120  0.00  0.00    +0.000 NA
ATOM     11  C   UNL     1       6.423   5.020  15.311  0.00  0.00    +0.000 A 
ATOM     12  C   UNL     1       5.982   4.017  14.308  0.00  0.00    +0.000 C 
ATOM     13  H   UNL     1       8.541   7.008  16.300  0.00  0.00    +0.000 HD
ENDBRANCH   4   7
BRANCH   1  15
ATOM     14  C   UNL     1       0.821   3.250  20.028  0.00  0.00    +0.000 C 
ATOM     15  O   UNL     1       0.879   3.624  18.650  0.00  0.00    +0.000 OA
ENDBRANCH   1  15
BRANCH   6  16
ATOM     16  O   UNL     1       3.011   1.753  17.833  0.00  0.00    +0.000 OA
ATOM     17  C   UNL     1       3.831   1.039  18.742  0.00  0.00    +0.000 C 
ENDBRANCH   6  16
TORSDOF 3
ENDMDL
MODEL 2
REMARK VINA RESULT:      -6.7      3.688      5.629
REMARK  Name = 
REMARK  6 active torsions:
REMARK  status: ('A' for Active; 'I' for Inactive)
REMARK    1  A    between atoms: C_1  and  O_2
REMARK    2  A    between atoms: O_2  and  C_3
REMARK    3  A    between atoms: C_6  and  C_7
REMARK    4  A    between atoms: C_11  and  C_12
REMARK    5  A    between atoms: C_14  and  O_15
REMARK    6  A    between atoms: O_15  and  C_16
REMARK                            x       y       z     vdW  Elec       q    Type
REMARK                         _______ _______ _______ _____ _____    ______ ____
ROOT
ATOM      1  C   UNL     1       5.552   6.287  16.793  0.00  0.00    +0.000 A 
ATOM      2  C   UNL     1       4.422   6.819  17.435  0.00  0.00    +0.000 A 
ATOM      3  C   UNL     1       3.403   5.984  17.904  0.00  0.00    +0.000 A 
ATOM      4  C   UNL     1       3.483   4.604  17.725  0.00  0.00    +0.000 A 
ATOM      5  C   UNL     1       4.568   4.089  17.000  0.00  0.00    +0.000 A 
ATOM      6  C   UNL     1       5.599   4.914  16.523  0.00  0.00    +0.000 A 
ENDROOT
BRANCH   4   7
ATOM      7  C   UNL     1       2.487   3.711  18.301  0.00  0.00    +0.000 A 
ATOM      8  C   UNL     1       2.172   2.471  17.786  0.00  0.00    +0.000 A 
ATOM      9  N   UNL     1       1.254   1.926  18.631  0.00  0.00    +0.000 N 
ATOM     10  N   UNL     1       0.925   2.725  19.657  0.00  0.00    +0.000 NA
ATOM     11  C   UNL     1       1.683   3.816  19.471  0.00  0.00    +0.000 A 
ATOM     12  C   UNL     1       1.622   4.915  20.469  0.00  0.00    +0.000 C 
ATOM     13  H   UNL     1       0.814   1.013  18.576  0.00  0.00    +0.000 HD
ENDBRANCH   4   7
BRANCH   1  15
ATOM     14  C   UNL     1       7.494   7.467  17.443  0.00  0.00    +0.000 C 
ATOM     15  O   UNL     1       6.584   7.098  16.405  0.00  0.00    +0.000 OA
ENDBRANCH   1  15
BRANCH   6  16
ATOM     16  O   UNL     1       6.557   4.199  15.851  0.00  0.00    +0.000 OA
ATOM     17  C   UNL     1       6.430   4.024  14.451  0.00  0.00    +0.000 C 
ENDBRANCH   6  16
TORSDOF 3
ENDMDL
MODEL 3
REMARK VINA RESULT:      -6.7      3.645      5.533
REMARK  Name = 
REMARK  6 active torsions:
REMARK  status: ('A' for Active; 'I' for Inactive)
REMARK    1  A    between atoms: C_1  and  O_2
REMARK    2  A    between atoms: O_2  and  C_3
REMARK    3  A    between atoms: C_6  and  C_7
REMARK    4  A    between atoms: C_11  and  C_12
REMARK    5  A    between atoms: C_14  and  O_15
REMARK    6  A    between atoms: O_15  and  C_16
REMARK                            x       y       z     vdW  Elec       q    Type
REMARK                         _______ _______ _______ _____ _____    ______ ____
ROOT
ATOM      1  C   UNL     1       6.686   6.056  16.912  0.00  0.00    +0.000 A 
ATOM      2  C   UNL     1       5.888   6.207  18.057  0.00  0.00    +0.000 A 
ATOM      3  C   UNL     1       4.826   5.334  18.313  0.00  0.00    +0.000 A 
ATOM      4  C   UNL     1       4.529   4.304  17.421  0.00  0.00    +0.000 A 
ATOM      5  C   UNL     1       5.271   4.219  16.234  0.00  0.00    +0.000 A 
ATOM      6  C   UNL     1       6.340   5.087  15.963  0.00  0.00    +0.000 A 
ENDROOT
BRANCH   4   7
ATOM      7  C   UNL     1       3.498   3.321  17.724  0.00  0.00    +0.000 A 
ATOM      8  C   UNL     1       3.757   2.005  18.045  0.00  0.00    +0.000 A 
ATOM      9  N   UNL     1       2.552   1.432  18.318  0.00  0.00    +0.000 N 
ATOM     10  N   UNL     1       1.514   2.270  18.181  0.00  0.00    +0.000 NA
ATOM     11  C   UNL     1       2.083   3.433  17.829  0.00  0.00    +0.000 A 
ATOM     12  C   UNL     1       1.222   4.630  17.642  0.00  0.00    +0.000 C 
ATOM     13  H   UNL     1       2.362   0.479  18.610  0.00  0.00    +0.000 HD
ENDBRANCH   4   7
BRANCH   1  15
ATOM     14  C   UNL     1       7.830   8.033  17.522  0.00  0.00    +0.000 C 
ATOM     15  O   UNL     1       7.772   6.863  16.704  0.00  0.00    +0.000 OA
ENDBRANCH   1  15
BRANCH   6  16
ATOM     16  O   UNL     1       6.925   4.817  14.753  0.00  0.00    +0.000 OA
ATOM     17  C   UNL     1       6.261   3.954  13.846  0.00  0.00    +0.000 C 
ENDBRANCH   6  16
TORSDOF 3
ENDMDL
MODEL 4
REMARK VINA RESULT:      -6.6      3.836      5.692
REMARK  Name = 
REMARK  6 active torsions:
REMARK  status: ('A' for Active; 'I' for Inactive)
REMARK    1  A    between atoms: C_1  and  O_2
REMARK    2  A    between atoms: O_2  and  C_3
REMARK    3  A    between atoms: C_6  and  C_7
REMARK    4  A    between atoms: C_11  and  C_12
REMARK    5  A    between atoms: C_14  and  O_15
REMARK    6  A    between atoms: O_15  and  C_16
REMARK                            x       y       z     vdW  Elec       q    Type
REMARK                         _______ _______ _______ _____ _____    ______ ____
ROOT
ATOM      1  C   UNL     1       6.277   4.405  16.674  0.00  0.00    +0.000 A 
ATOM      2  C   UNL     1       5.011   4.072  16.166  0.00  0.00    +0.000 A 
ATOM      3  C   UNL     1       3.890   4.032  17.001  0.00  0.00    +0.000 A 
ATOM      4  C   UNL     1       4.013   4.307  18.362  0.00  0.00    +0.000 A 
ATOM      5  C   UNL     1       5.295   4.546  18.878  0.00  0.00    +0.000 A 
ATOM      6  C   UNL     1       6.431   4.589  18.053  0.00  0.00    +0.000 A 
ENDROOT
BRANCH   4   7
ATOM      7  C   UNL     1       2.842   4.377  19.225  0.00  0.00    +0.000 A 
ATOM      8  C   UNL     1       2.555   5.443  20.052  0.00  0.00    +0.000 A 
ATOM      9  N   UNL     1       1.359   5.162  20.639  0.00  0.00    +0.000 N 
ATOM     10  N   UNL     1       0.845   3.979  20.274  0.00  0.00    +0.000 NA
ATOM     11  C   UNL     1       1.739   3.494  19.399  0.00  0.00    +0.000 A 
ATOM     12  C   UNL     1       1.465   2.195  18.732  0.00  0.00    +0.000 C 
ATOM     13  H   UNL     1       0.831   5.732  21.291  0.00  0.00    +0.000 HD
ENDBRANCH   4   7
BRANCH   1  15
ATOM     14  C   UNL     1       7.055   4.885  14.495  0.00  0.00    +0.000 C 
ATOM     15  O   UNL     1       7.358   4.520  15.843  0.00  0.00    +0.000 OA
ENDBRANCH   1  15
BRANCH   6  16
ATOM     16  O   UNL     1       7.572   4.845  18.769  0.00  0.00    +0.000 OA
ATOM     17  C   UNL     1       7.969   6.189  18.975  0.00  0.00    +0.000 C 
ENDBRANCH   6  16
TORSDOF 3
ENDMDL
MODEL 5
REMARK VINA RESULT:      -6.6      1.444      3.054
REMARK  Name = 
REMARK  6 active torsions:
REMARK  status: ('A' for Active; 'I' for Inactive)
REMARK    1  A    between atoms: C_1  and  O_2
REMARK    2  A    between atoms: O_2  and  C_3
REMARK    3  A    between atoms: C_6  and  C_7
REMARK    4  A    between atoms: C_11  and  C_12
REMARK    5  A    between atoms: C_14  and  O_15
REMARK    6  A    between atoms: O_15  and  C_16
REMARK                            x       y       z     vdW  Elec       q    Type
REMARK                         _______ _______ _______ _____ _____    ______ ____
ROOT
ATOM      1  C   UNL     1       2.271   4.698  18.850  0.00  0.00    +0.000 A 
ATOM      2  C   UNL     1       2.713   3.549  18.175  0.00  0.00    +0.000 A 
ATOM      3  C   UNL     1       3.759   3.617  17.249  0.00  0.00    +0.000 A 
ATOM      4  C   UNL     1       4.372   4.837  16.967  0.00  0.00    +0.000 A 
ATOM      5  C   UNL     1       3.863   5.994  17.574  0.00  0.00    +0.000 A 
ATOM      6  C   UNL     1       2.814   5.942  18.506  0.00  0.00    +0.000 A 
ENDROOT
BRANCH   4   7
ATOM      7  C   UNL     1       5.532   4.910  16.089  0.00  0.00    +0.000 A 
ATOM      8  C   UNL     1       5.570   4.387  14.814  0.00  0.00    +0.000 A 
ATOM      9  N   UNL     1       6.789   4.711  14.302  0.00  0.00    +0.000 N 
ATOM     10  N   UNL     1       7.567   5.395  15.154  0.00  0.00    +0.000 NA
ATOM     11  C   UNL     1       6.803   5.533  16.248  0.00  0.00    +0.000 A 
ATOM     12  C   UNL     1       7.330   6.304  17.403  0.00  0.00    +0.000 C 
ATOM     13  H   UNL     1       7.156   4.507  13.378  0.00  0.00    +0.000 HD
ENDBRANCH   4   7
BRANCH   1  15
ATOM     14  C   UNL     1       1.283   3.398  20.559  0.00  0.00    +0.000 C 
ATOM     15  O   UNL     1       1.301   4.616  19.812  0.00  0.00    +0.000 OA
ENDBRANCH   1  15
BRANCH   6  16
ATOM     16  O   UNL     1       2.485   7.187  18.976  0.00  0.00    +0.000 OA
ATOM     17  C   UNL     1       2.253   8.234  18.049  0.00  0.00    +0.000 C 
ENDBRANCH   6  16
TORSDOF 3
ENDMDL
MODEL 6
REMARK VINA RESULT:      -6.6      3.950      5.853
REMARK  Name = 
REMARK  6 active torsions:
REMARK  status: ('A' for Active; 'I' for Inactive)
REMARK    1  A    between atoms: C_1  and  O_2
REMARK    2  A    between atoms: O_2  and  C_3
REMARK    3  A    between atoms: C_6  and  C_7
REMARK    4  A    between atoms: C_11  and  C_12
REMARK    5  A    between atoms: C_14  and  O_15
REMARK    6  A    between atoms: O_15  and  C_16
REMARK                            x       y       z     vdW  Elec       q    Type
REMARK                         _______ _______ _______ _____ _____    ______ ____
ROOT
ATOM      1  C   UNL     1       6.521   5.210  15.653  0.00  0.00    +0.000 A 
ATOM      2  C   UNL     1       5.442   4.331  15.841  0.00  0.00    +0.000 A 
ATOM      3  C   UNL     1       4.513   4.542  16.865  0.00  0.00    +0.000 A 
ATOM      4  C   UNL     1       4.653   5.626  17.731  0.00  0.00    +0.000 A 
ATOM      5  C   UNL     1       5.784   6.444  17.596  0.00  0.00    +0.000 A 
ATOM      6  C   UNL     1       6.725   6.244  16.573  0.00  0.00    +0.000 A 
ENDROOT
BRANCH   4   7
ATOM      7  C   UNL     1       3.639   5.924  18.733  0.00  0.00    +0.000 A 
ATOM      8  C   UNL     1       3.426   5.167  19.866  0.00  0.00    +0.000 A 
ATOM      9  N   UNL     1       2.449   5.798  20.572  0.00  0.00    +0.000 N 
ATOM     10  N   UNL     1       1.986   6.908  19.978  0.00  0.00    +0.000 NA
ATOM     11  C   UNL     1       2.716   7.001  18.856  0.00  0.00    +0.000 A 
ATOM     12  C   UNL     1       2.511   8.165  17.956  0.00  0.00    +0.000 C 
ATOM     13  H   UNL     1       2.053   5.536  21.469  0.00  0.00    +0.000 HD
ENDBRANCH   4   7
BRANCH   1  15
ATOM     14  C   UNL     1       6.842   4.367  13.468  0.00  0.00    +0.000 C 
ATOM     15  O   UNL     1       7.384   5.046  14.603  0.00  0.00    +0.000 OA
ENDBRANCH   1  15
BRANCH   6  16
ATOM     16  O   UNL     1       7.741   7.164  16.627  0.00  0.00    +0.000 OA
ATOM     17  C   UNL     1       7.838   8.017  17.754  0.00  0.00    +0.000 C 
ENDBRANCH   6  16
TORSDOF 3
ENDMDL
MODEL 7
REMARK VINA RESULT:      -6.6      1.402      2.805
REMARK  Name = 
REMARK  6 active torsions:
REMARK  status: ('A' for Active; 'I' for Inactive)
REMARK    1  A    between atoms: C_1  and  O_2
REMARK    2  A    between atoms: O_2  and  C_3
REMARK    3  A    between atoms: C_6  and  C_7
REMARK    4  A    between atoms: C_11  and  C_12
REMARK    5  A    between atoms: C_14  and  O_15
REMARK    6  A    between atoms: O_15  and  C_16
REMARK                            x       y       z     vdW  Elec       q    Type
REMARK                         _______ _______ _______ _____ _____    ______ ____
ROOT
ATOM      1  C   UNL     1       2.466   3.449  19.058  0.00  0.00    +0.000 A 
ATOM      2  C   UNL     1       3.103   2.485  18.260  0.00  0.00    +0.000 A 
ATOM      3  C   UNL     1       4.085   2.854  17.335  0.00  0.00    +0.000 A 
ATOM      4  C   UNL     1       4.438   4.193  17.177  0.00  0.00    +0.000 A 
ATOM      5  C   UNL     1       3.730   5.158  17.908  0.00  0.00    +0.000 A 
ATOM      6  C   UNL     1       2.742   4.804  18.840  0.00  0.00    +0.000 A 
ENDROOT
BRANCH   4   7
ATOM      7  C   UNL     1       5.532   4.585  16.299  0.00  0.00    +0.000 A 
ATOM      8  C   UNL     1       5.378   4.895  14.964  0.00  0.00    +0.000 A 
ATOM      9  N   UNL     1       6.607   5.268  14.512  0.00  0.00    +0.000 N 
ATOM     10  N   UNL     1       7.566   5.208  15.447  0.00  0.00    +0.000 NA
ATOM     11  C   UNL     1       6.917   4.801  16.549  0.00  0.00    +0.000 A 
ATOM     12  C   UNL     1       7.669   4.674  17.824  0.00  0.00    +0.000 C 
ATOM     13  H   UNL     1       6.865   5.583  13.583  0.00  0.00    +0.000 HD
ENDBRANCH   4   7
BRANCH   1  15
ATOM     14  C   UNL     1       2.102   2.892  21.325  0.00  0.00    +0.000 C 
ATOM     15  O   UNL     1       1.562   3.078  20.016  0.00  0.00    +0.000 OA
ENDBRANCH   1  15
BRANCH   6  16
ATOM     16  O   UNL     1       2.189   5.905  19.443  0.00  0.00    +0.000 OA
ATOM     17  C   UNL     1       2.532   7.195  18.967  0.00  0.00    +0.000 C 
ENDBRANCH   6  16
TORSDOF 3
ENDMDL
MODEL 8
REMARK VINA RESULT:      -6.6      3.905      5.731
REMARK  Name = 
REMARK  6 active torsions:
REMARK  status: ('A' for Active; 'I' for Inactive)
REMARK    1  A    between atoms: C_1  and  O_2
REMARK    2  A    between atoms: O_2  and  C_3
REMARK    3  A    between atoms: C_6  and  C_7
REMARK    4  A    between atoms: C_11  and  C_12
REMARK    5  A    between atoms: C_14  and  O_15
REMARK    6  A    between atoms: O_15  and  C_16
REMARK                            x       y       z     vdW  Elec       q    Type
REMARK                         _______ _______ _______ _____ _____    ______ ____
ROOT
ATOM      1  C   UNL     1       6.372   4.454  16.479  0.00  0.00    +0.000 A 
ATOM      2  C   UNL     1       5.059   4.176  16.067  0.00  0.00    +0.000 A 
ATOM      3  C   UNL     1       4.013   4.116  16.994  0.00  0.00    +0.000 A 
ATOM      4  C   UNL     1       4.261   4.316  18.351  0.00  0.00    +0.000 A 
ATOM      5  C   UNL     1       5.589   4.499  18.765  0.00  0.00    +0.000 A 
ATOM      6  C   UNL     1       6.649   4.562  17.847  0.00  0.00    +0.000 A 
ENDROOT
BRANCH   4   7
ATOM      7  C   UNL     1       3.171   4.365  19.316  0.00  0.00    +0.000 A 
ATOM      8  C   UNL     1       2.722   3.274  20.031  0.00  0.00    +0.000 A 
ATOM      9  N   UNL     1       1.748   3.734  20.863  0.00  0.00    +0.000 N 
ATOM     10  N   UNL     1       1.508   5.047  20.737  0.00  0.00    +0.000 NA
ATOM     11  C   UNL     1       2.382   5.446  19.800  0.00  0.00    +0.000 A 
ATOM     12  C   UNL     1       2.441   6.885  19.435  0.00  0.00    +0.000 C 
ATOM     13  H   UNL     1       1.211   3.213  21.549  0.00  0.00    +0.000 HD
ENDBRANCH   4   7
BRANCH   1  15
ATOM     14  C   UNL     1       6.955   4.787  14.213  0.00  0.00    +0.000 C 
ATOM     15  O   UNL     1       7.380   4.590  15.562  0.00  0.00    +0.000 OA
ENDBRANCH   1  15
BRANCH   6  16
ATOM     16  O   UNL     1       7.855   4.755  18.471  0.00  0.00    +0.000 OA
ATOM     17  C   UNL     1       7.975   5.788  19.433  0.00  0.00    +0.000 C 
ENDBRANCH   6  16
TORSDOF 3
ENDMDL
MODEL 9
REMARK VINA RESULT:      -6.5      1.128      2.444
REMARK  Name = 
REMARK  6 active torsions:
REMARK  status: ('A' for Active; 'I' for Inactive)
REMARK    1  A    between atoms: C_1  and  O_2
REMARK    2  A    between atoms: O_2  and  C_3
REMARK    3  A    between atoms: C_6  and  C_7
REMARK    4  A    between atoms: C_11  and  C_12
REMARK    5  A    between atoms: C_14  and  O_15
REMARK    6  A    between atoms: O_15  and  C_16
REMARK                            x       y       z     vdW  Elec       q    Type
REMARK                         _______ _______ _______ _____ _____    ______ ____
ROOT
ATOM      1  C   UNL     1       2.029   3.957  18.600  0.00  0.00    +0.000 A 
ATOM      2  C   UNL     1       2.627   3.123  17.642  0.00  0.00    +0.000 A 
ATOM      3  C   UNL     1       3.749   3.545  16.921  0.00  0.00    +0.000 A 
ATOM      4  C   UNL     1       4.285   4.815  17.131  0.00  0.00    +0.000 A 
ATOM      5  C   UNL     1       3.627   5.676  18.021  0.00  0.00    +0.000 A 
ATOM      6  C   UNL     1       2.500   5.267  18.751  0.00  0.00    +0.000 A 
ENDROOT
BRANCH   4   7
ATOM      7  C   UNL     1       5.515   5.230  16.471  0.00  0.00    +0.000 A 
ATOM      8  C   UNL     1       6.504   5.976  17.079  0.00  0.00    +0.000 A 
ATOM      9  N   UNL     1       7.505   6.102  16.165  0.00  0.00    +0.000 N 
ATOM     10  N   UNL     1       7.242   5.511  14.991  0.00  0.00    +0.000 NA
ATOM     11  C   UNL     1       6.030   4.964  15.171  0.00  0.00    +0.000 A 
ATOM     12  C   UNL     1       5.430   4.163  14.073  0.00  0.00    +0.000 C 
ATOM     13  H   UNL     1       8.399   6.570  16.275  0.00  0.00    +0.000 HD
ENDBRANCH   4   7
BRANCH   1  15
ATOM     14  C   UNL     1       1.322   3.072  20.674  0.00  0.00    +0.000 C 
ATOM     15  O   UNL     1       0.980   3.514  19.359  0.00  0.00    +0.000 OA
ENDBRANCH   1  15
BRANCH   6  16
ATOM     16  O   UNL     1       2.026   6.266  19.563  0.00  0.00    +0.000 OA
ATOM     17  C   UNL     1       2.260   7.616  19.201  0.00  0.00    +0.000 C 
ENDBRANCH   6  16
TORSDOF 3
ENDMDL
