MODEL 1
REMARK VINA RESULT:      -8.8      0.000      0.000
REMARK  Name = 
REMARK  8 active torsions:
REMARK  status: ('A' for Active; 'I' for Inactive)
REMARK    1  A    between atoms: N_10  and  C_11
REMARK    2  A    between atoms: C_14  and  O_15
REMARK    3  A    between atoms: O_15  and  C_16
REMARK    4  A    between atoms: C_16  and  C_17
REMARK    5  A    between atoms: N_19  and  C_20
REMARK    6  A    between atoms: C_20  and  C_21
REMARK    7  A    between atoms: C_21  and  C_22
REMARK    8  A    between atoms: C_22  and  C_23
REMARK                            x       y       z     vdW  Elec       q    Type
REMARK                         _______ _______ _______ _____ _____    ______ ____
ROOT
ATOM      1  C   UNL     1       2.456   5.792  18.828  0.00  0.00    +0.000 A 
ATOM      2  C   UNL     1       2.202   6.200  20.128  0.00  0.00    +0.000 A 
ATOM      3  C   UNL     1       1.731   7.448  20.517  0.00  0.00    +0.000 A 
ATOM      4  C   UNL     1       1.730   8.454  19.594  0.00  0.00    +0.000 A 
ATOM      5  C   UNL     1       2.034   8.150  18.273  0.00  0.00    +0.000 A 
ATOM      6  C   UNL     1       2.290   6.820  17.890  0.00  0.00    +0.000 A 
ENDROOT
BRANCH   1  16
ATOM      7  N   UNL     1       4.057   0.543  18.324  0.00  0.00    +0.000 N 
ATOM      8  C   UNL     1       3.734   1.843  18.355  0.00  0.00    +0.000 C 
ATOM      9  N   UNL     1       4.670   2.721  18.340  0.00  0.00    +0.000 NA
ATOM     10  C   UNL     1       4.344   4.152  18.156  0.00  0.00    +0.000 C 
ATOM     11  C   UNL     1       5.405   4.863  19.044  0.00  0.00    +0.000 C 
ATOM     12  C   UNL     1       5.720   6.318  18.721  0.00  0.00    +0.000 C 
ATOM     13  C   UNL     1       5.859   6.648  17.223  0.00  0.00    +0.000 C 
ATOM     14  C   UNL     1       5.084   5.786  16.203  0.00  0.00    +0.000 C 
ATOM     15  C   UNL     1       4.745   4.378  16.665  0.00  0.00    +0.000 C 
ATOM     16  N   UNL     1       2.908   4.494  18.485  0.00  0.00    +0.000 N 
ATOM     17  C   UNL     1       2.068   3.386  18.480  0.00  0.00    +0.000 C 
ATOM     18  N   UNL     1       0.719   3.549  18.492  0.00  0.00    +0.000 N 
ATOM     19  N   UNL     1       2.423   2.142  18.408  0.00  0.00    +0.000 NA
ATOM     20  H   UNL     1       4.997   0.337  18.613  0.00  0.00    +0.000 HD
ATOM     21  H   UNL     1       3.326  -0.061  18.712  0.00  0.00    +0.000 HD
ATOM     22  H   UNL     1       0.302   4.398  18.833  0.00  0.00    +0.000 HD
ATOM     23  H   UNL     1       0.239   2.712  18.798  0.00  0.00    +0.000 HD
ENDBRANCH   1  16
BRANCH   4  24
ATOM     24  O   UNL     1       1.389   9.676  20.074  0.00  0.00    +0.000 OA
BRANCH  24  25
ATOM     25  C   UNL     1       1.144   9.690  21.481  0.00  0.00    +0.000 C 
BRANCH  25  26
ATOM     26  C   UNL     1      -0.013  10.561  21.781  0.00  0.00    +0.000 A 
ATOM     27  C   UNL     1      -0.861  11.217  20.915  0.00  0.00    +0.000 A 
ATOM     28  N   UNL     1      -1.711  11.879  21.744  0.00  0.00    +0.000 N 
ATOM     29  N   UNL     1      -1.415  11.662  23.035  0.00  0.00    +0.000 NA
ATOM     30  N   UNL     1      -0.368  10.847  23.070  0.00  0.00    +0.000 NA
BRANCH  28  31
ATOM     31  C   UNL     1      -2.820  12.730  21.372  0.00  0.00    +0.000 C 
BRANCH  31  32
ATOM     32  C   UNL     1      -2.944  12.846  19.856  0.00  0.00    +0.000 C 
BRANCH  32  33
ATOM     33  C   UNL     1      -4.082  11.993  19.294  0.00  0.00    +0.000 C 
BRANCH  33  34
ATOM     34  C   UNL     1      -3.658  11.309  18.016  0.00  0.00    +0.000 A 
ATOM     35  C   UNL     1      -2.527  10.482  17.999  0.00  0.00    +0.000 A 
ATOM     36  C   UNL     1      -2.103   9.883  16.812  0.00  0.00    +0.000 A 
ATOM     37  C   UNL     1      -2.799  10.110  15.627  0.00  0.00    +0.000 A 
ATOM     38  C   UNL     1      -3.926  10.930  15.631  0.00  0.00    +0.000 A 
ATOM     39  C   UNL     1      -4.354  11.528  16.818  0.00  0.00    +0.000 A 
ENDBRANCH  33  34
ENDBRANCH  32  33
ENDBRANCH  31  32
ENDBRANCH  28  31
ENDBRANCH  25  26
ENDBRANCH  24  25
ENDBRANCH   4  24
TORSDOF 8
ENDMDL
MODEL 2
REMARK VINA RESULT:      -8.5      2.041      3.355
REMARK  Name = 
REMARK  8 active torsions:
REMARK  status: ('A' for Active; 'I' for Inactive)
REMARK    1  A    between atoms: N_10  and  C_11
REMARK    2  A    between atoms: C_14  and  O_15
REMARK    3  A    between atoms: O_15  and  C_16
REMARK    4  A    between atoms: C_16  and  C_17
REMARK    5  A    between atoms: N_19  and  C_20
REMARK    6  A    between atoms: C_20  and  C_21
REMARK    7  A    between atoms: C_21  and  C_22
REMARK    8  A    between atoms: C_22  and  C_23
REMARK                            x       y       z     vdW  Elec       q    Type
REMARK                         _______ _______ _______ _____ _____    ______ ____
ROOT
ATOM      1  C   UNL     1       2.625   5.980  18.758  0.00  0.00    +0.000 A 
ATOM      2  C   UNL     1       2.398   6.960  17.804  0.00  0.00    +0.000 A 
ATOM      3  C   UNL     1       2.047   8.281  18.055  0.00  0.00    +0.000 A 
ATOM      4  C   UNL     1       1.656   8.615  19.320  0.00  0.00    +0.000 A 
ATOM      5  C   UNL     1       1.790   7.673  20.333  0.00  0.00    +0.000 A 
ATOM      6  C   UNL     1       2.361   6.416  20.063  0.00  0.00    +0.000 A 
ENDROOT
BRANCH   1  16
ATOM      7  N   UNL     1       4.003   0.657  18.387  0.00  0.00    +0.000 N 
ATOM      8  C   UNL     1       3.731   1.969  18.381  0.00  0.00    +0.000 C 
ATOM      9  N   UNL     1       4.698   2.809  18.293  0.00  0.00    +0.000 NA
ATOM     10  C   UNL     1       4.419   4.244  18.068  0.00  0.00    +0.000 C 
ATOM     11  C   UNL     1       5.544   4.944  18.882  0.00  0.00    +0.000 C 
ATOM     12  C   UNL     1       5.899   6.373  18.490  0.00  0.00    +0.000 C 
ATOM     13  C   UNL     1       5.983   6.643  16.976  0.00  0.00    +0.000 C 
ATOM     14  C   UNL     1       5.132   5.774  16.025  0.00  0.00    +0.000 C 
ATOM     15  C   UNL     1       4.760   4.399  16.554  0.00  0.00    +0.000 C 
ATOM     16  N   UNL     1       3.012   4.654  18.446  0.00  0.00    +0.000 N 
ATOM     17  C   UNL     1       2.131   3.580  18.520  0.00  0.00    +0.000 C 
ATOM     18  N   UNL     1       0.792   3.796  18.583  0.00  0.00    +0.000 N 
ATOM     19  N   UNL     1       2.436   2.321  18.480  0.00  0.00    +0.000 NA
ATOM     20  H   UNL     1       4.947   0.425  18.643  0.00  0.00    +0.000 HD
ATOM     21  H   UNL     1       3.268   0.097  18.829  0.00  0.00    +0.000 HD
ATOM     22  H   UNL     1       0.423   4.673  18.909  0.00  0.00    +0.000 HD
ATOM     23  H   UNL     1       0.295   2.990  18.941  0.00  0.00    +0.000 HD
ENDBRANCH   1  16
BRANCH   4  24
ATOM     24  O   UNL     1       1.197   9.884  19.465  0.00  0.00    +0.000 OA
BRANCH  24  25
ATOM     25  C   UNL     1      -0.209   9.959  19.705  0.00  0.00    +0.000 C 
BRANCH  25  26
ATOM     26  C   UNL     1      -0.465  10.673  20.974  0.00  0.00    +0.000 A 
ATOM     27  C   UNL     1      -0.978  11.936  21.179  0.00  0.00    +0.000 A 
ATOM     28  N   UNL     1      -0.967  12.068  22.531  0.00  0.00    +0.000 N 
ATOM     29  N   UNL     1      -0.474  10.974  23.133  0.00  0.00    +0.000 NA
ATOM     30  N   UNL     1      -0.164  10.103  22.180  0.00  0.00    +0.000 NA
BRANCH  28  31
ATOM     31  C   UNL     1      -1.406  13.206  23.309  0.00  0.00    +0.000 C 
BRANCH  31  32
ATOM     32  C   UNL     1      -2.854  13.567  22.991  0.00  0.00    +0.000 C 
BRANCH  32  33
ATOM     33  C   UNL     1      -3.847  12.900  23.944  0.00  0.00    +0.000 C 
BRANCH  33  34
ATOM     34  C   UNL     1      -5.214  12.804  23.311  0.00  0.00    +0.000 A 
ATOM     35  C   UNL     1      -5.346  12.761  21.916  0.00  0.00    +0.000 A 
ATOM     36  C   UNL     1      -6.608  12.718  21.323  0.00  0.00    +0.000 A 
ATOM     37  C   UNL     1      -7.753  12.725  22.116  0.00  0.00    +0.000 A 
ATOM     38  C   UNL     1      -7.636  12.767  23.504  0.00  0.00    +0.000 A 
ATOM     39  C   UNL     1      -6.374  12.807  24.100  0.00  0.00    +0.000 A 
ENDBRANCH  33  34
ENDBRANCH  32  33
ENDBRANCH  31  32
ENDBRANCH  28  31
ENDBRANCH  25  26
ENDBRANCH  24  25
ENDBRANCH   4  24
TORSDOF 8
ENDMDL
MODEL 3
REMARK VINA RESULT:      -8.4      1.947      3.422
REMARK  Name = 
REMARK  8 active torsions:
REMARK  status: ('A' for Active; 'I' for Inactive)
REMARK    1  A    between atoms: N_10  and  C_11
REMARK    2  A    between atoms: C_14  and  O_15
REMARK    3  A    between atoms: O_15  and  C_16
REMARK    4  A    between atoms: C_16  and  C_17
REMARK    5  A    between atoms: N_19  and  C_20
REMARK    6  A    between atoms: C_20  and  C_21
REMARK    7  A    between atoms: C_21  and  C_22
REMARK    8  A    between atoms: C_22  and  C_23
REMARK                            x       y       z     vdW  Elec       q    Type
REMARK                         _______ _______ _______ _____ _____    ______ ____
ROOT
ATOM      1  C   UNL     1       2.666   6.011  18.667  0.00  0.00    +0.000 A 
ATOM      2  C   UNL     1       2.428   6.962  17.688  0.00  0.00    +0.000 A 
ATOM      3  C   UNL     1       2.087   8.292  17.903  0.00  0.00    +0.000 A 
ATOM      4  C   UNL     1       1.718   8.667  19.162  0.00  0.00    +0.000 A 
ATOM      5  C   UNL     1       1.863   7.757  20.202  0.00  0.00    +0.000 A 
ATOM      6  C   UNL     1       2.424   6.489  19.962  0.00  0.00    +0.000 A 
ENDROOT
BRANCH   1  16
ATOM      7  N   UNL     1       3.992   0.667  18.437  0.00  0.00    +0.000 N 
ATOM      8  C   UNL     1       3.733   1.981  18.398  0.00  0.00    +0.000 C 
ATOM      9  N   UNL     1       4.710   2.809  18.297  0.00  0.00    +0.000 NA
ATOM     10  C   UNL     1       4.447   4.241  18.035  0.00  0.00    +0.000 C 
ATOM     11  C   UNL     1       5.573   4.949  18.840  0.00  0.00    +0.000 C 
ATOM     12  C   UNL     1       5.945   6.365  18.417  0.00  0.00    +0.000 C 
ATOM     13  C   UNL     1       6.044   6.596  16.897  0.00  0.00    +0.000 C 
ATOM     14  C   UNL     1       5.191   5.714  15.961  0.00  0.00    +0.000 C 
ATOM     15  C   UNL     1       4.802   4.355  16.520  0.00  0.00    +0.000 C 
ATOM     16  N   UNL     1       3.041   4.674  18.391  0.00  0.00    +0.000 N 
ATOM     17  C   UNL     1       2.149   3.611  18.484  0.00  0.00    +0.000 C 
ATOM     18  N   UNL     1       0.812   3.842  18.532  0.00  0.00    +0.000 N 
ATOM     19  N   UNL     1       2.441   2.349  18.477  0.00  0.00    +0.000 NA
ATOM     20  H   UNL     1       4.932   0.432  18.707  0.00  0.00    +0.000 HD
ATOM     21  H   UNL     1       3.248   0.126  18.888  0.00  0.00    +0.000 HD
ATOM     22  H   UNL     1       0.449   4.731  18.833  0.00  0.00    +0.000 HD
ATOM     23  H   UNL     1       0.304   3.050  18.905  0.00  0.00    +0.000 HD
ENDBRANCH   1  16
BRANCH   4  24
ATOM     24  O   UNL     1       1.267   9.942  19.275  0.00  0.00    +0.000 OA
BRANCH  24  25
ATOM     25  C   UNL     1      -0.127  10.083  18.996  0.00  0.00    +0.000 C 
BRANCH  25  26
ATOM     26  C   UNL     1      -0.739  11.028  19.954  0.00  0.00    +0.000 A 
ATOM     27  C   UNL     1      -0.628  11.074  21.328  0.00  0.00    +0.000 A 
ATOM     28  N   UNL     1      -1.416  12.125  21.674  0.00  0.00    +0.000 N 
ATOM     29  N   UNL     1      -1.988  12.693  20.600  0.00  0.00    +0.000 NA
ATOM     30  N   UNL     1      -1.574  12.024  19.531  0.00  0.00    +0.000 NA
BRANCH  28  31
ATOM     31  C   UNL     1      -1.668  12.637  23.003  0.00  0.00    +0.000 C 
BRANCH  31  32
ATOM     32  C   UNL     1      -3.003  12.136  23.545  0.00  0.00    +0.000 C 
BRANCH  32  33
ATOM     33  C   UNL     1      -4.000  13.270  23.788  0.00  0.00    +0.000 C 
BRANCH  33  34
ATOM     34  C   UNL     1      -5.340  12.946  23.173  0.00  0.00    +0.000 A 
ATOM     35  C   UNL     1      -6.468  12.776  23.988  0.00  0.00    +0.000 A 
ATOM     36  C   UNL     1      -7.701  12.431  23.431  0.00  0.00    +0.000 A 
ATOM     37  C   UNL     1      -7.819  12.245  22.056  0.00  0.00    +0.000 A 
ATOM     38  C   UNL     1      -6.705  12.411  21.235  0.00  0.00    +0.000 A 
ATOM     39  C   UNL     1      -5.471  12.759  21.789  0.00  0.00    +0.000 A 
ENDBRANCH  33  34
ENDBRANCH  32  33
ENDBRANCH  31  32
ENDBRANCH  28  31
ENDBRANCH  25  26
ENDBRANCH  24  25
ENDBRANCH   4  24
TORSDOF 8
ENDMDL
MODEL 4
REMARK VINA RESULT:      -8.2      2.089      3.421
REMARK  Name = 
REMARK  8 active torsions:
REMARK  status: ('A' for Active; 'I' for Inactive)
REMARK    1  A    between atoms: N_10  and  C_11
REMARK    2  A    between atoms: C_14  and  O_15
REMARK    3  A    between atoms: O_15  and  C_16
REMARK    4  A    between atoms: C_16  and  C_17
REMARK    5  A    between atoms: N_19  and  C_20
REMARK    6  A    between atoms: C_20  and  C_21
REMARK    7  A    between atoms: C_21  and  C_22
REMARK    8  A    between atoms: C_22  and  C_23
REMARK                            x       y       z     vdW  Elec       q    Type
REMARK                         _______ _______ _______ _____ _____    ______ ____
ROOT
ATOM      1  C   UNL     1       3.045   6.745  18.281  0.00  0.00    +0.000 A 
ATOM      2  C   UNL     1       2.759   6.919  19.625  0.00  0.00    +0.000 A 
ATOM      3  C   UNL     1       1.882   7.854  20.161  0.00  0.00    +0.000 A 
ATOM      4  C   UNL     1       1.427   8.853  19.349  0.00  0.00    +0.000 A 
ATOM      5  C   UNL     1       1.718   8.795  17.991  0.00  0.00    +0.000 A 
ATOM      6  C   UNL     1       2.429   7.701  17.462  0.00  0.00    +0.000 A 
ENDROOT
BRANCH   1  16
ATOM      7  N   UNL     1       6.294   3.211  15.573  0.00  0.00    +0.000 N 
ATOM      8  C   UNL     1       5.499   3.993  16.317  0.00  0.00    +0.000 C 
ATOM      9  N   UNL     1       4.409   3.506  16.792  0.00  0.00    +0.000 NA
ATOM     10  C   UNL     1       3.625   4.270  17.786  0.00  0.00    +0.000 C 
ATOM     11  C   UNL     1       2.158   3.902  17.423  0.00  0.00    +0.000 C 
ATOM     12  C   UNL     1       1.108   4.074  18.513  0.00  0.00    +0.000 C 
ATOM     13  C   UNL     1       1.527   3.598  19.917  0.00  0.00    +0.000 C 
ATOM     14  C   UNL     1       3.026   3.618  20.285  0.00  0.00    +0.000 C 
ATOM     15  C   UNL     1       3.987   3.530  19.111  0.00  0.00    +0.000 C 
ATOM     16  N   UNL     1       3.926   5.753  17.786  0.00  0.00    +0.000 N 
ATOM     17  C   UNL     1       5.143   6.063  17.189  0.00  0.00    +0.000 C 
ATOM     18  N   UNL     1       5.685   7.300  17.340  0.00  0.00    +0.000 N 
ATOM     19  N   UNL     1       5.902   5.261  16.511  0.00  0.00    +0.000 NA
ATOM     20  H   UNL     1       5.839   2.409  15.173  0.00  0.00    +0.000 HD
ATOM     21  H   UNL     1       6.902   3.743  14.943  0.00  0.00    +0.000 HD
ATOM     22  H   UNL     1       5.112   8.092  17.575  0.00  0.00    +0.000 HD
ATOM     23  H   UNL     1       6.378   7.499  16.630  0.00  0.00    +0.000 HD
ENDBRANCH   1  16
BRANCH   4  24
ATOM     24  O   UNL     1       0.687   9.807  19.967  0.00  0.00    +0.000 OA
BRANCH  24  25
ATOM     25  C   UNL     1       0.792   9.780  21.390  0.00  0.00    +0.000 C 
BRANCH  25  26
ATOM     26  C   UNL     1      -0.130  10.774  21.982  0.00  0.00    +0.000 A 
ATOM     27  C   UNL     1      -0.499  12.014  21.508  0.00  0.00    +0.000 A 
ATOM     28  N   UNL     1      -1.340  12.483  22.467  0.00  0.00    +0.000 N 
ATOM     29  N   UNL     1      -1.483  11.607  23.474  0.00  0.00    +0.000 NA
ATOM     30  N   UNL     1      -0.741  10.545  23.183  0.00  0.00    +0.000 NA
BRANCH  28  31
ATOM     31  C   UNL     1      -2.035  13.752  22.485  0.00  0.00    +0.000 C 
BRANCH  31  32
ATOM     32  C   UNL     1      -3.111  13.808  21.406  0.00  0.00    +0.000 C 
BRANCH  32  33
ATOM     33  C   UNL     1      -4.525  13.728  21.983  0.00  0.00    +0.000 C 
BRANCH  33  34
ATOM     34  C   UNL     1      -5.389  12.804  21.159  0.00  0.00    +0.000 A 
ATOM     35  C   UNL     1      -4.986  12.421  19.872  0.00  0.00    +0.000 A 
ATOM     36  C   UNL     1      -5.800  11.604  19.087  0.00  0.00    +0.000 A 
ATOM     37  C   UNL     1      -7.030  11.167  19.574  0.00  0.00    +0.000 A 
ATOM     38  C   UNL     1      -7.442  11.541  20.852  0.00  0.00    +0.000 A 
ATOM     39  C   UNL     1      -6.627  12.356  21.641  0.00  0.00    +0.000 A 
ENDBRANCH  33  34
ENDBRANCH  32  33
ENDBRANCH  31  32
ENDBRANCH  28  31
ENDBRANCH  25  26
ENDBRANCH  24  25
ENDBRANCH   4  24
TORSDOF 8
ENDMDL
MODEL 5
REMARK VINA RESULT:      -8.2      1.835      3.210
REMARK  Name = 
REMARK  8 active torsions:
REMARK  status: ('A' for Active; 'I' for Inactive)
REMARK    1  A    between atoms: N_10  and  C_11
REMARK    2  A    between atoms: C_14  and  O_15
REMARK    3  A    between atoms: O_15  and  C_16
REMARK    4  A    between atoms: C_16  and  C_17
REMARK    5  A    between atoms: N_19  and  C_20
REMARK    6  A    between atoms: C_20  and  C_21
REMARK    7  A    between atoms: C_21  and  C_22
REMARK    8  A    between atoms: C_22  and  C_23
REMARK                            x       y       z     vdW  Elec       q    Type
REMARK                         _______ _______ _______ _____ _____    ______ ____
ROOT
ATOM      1  C   UNL     1       3.082   6.727  18.233  0.00  0.00    +0.000 A 
ATOM      2  C   UNL     1       2.744   6.888  19.568  0.00  0.00    +0.000 A 
ATOM      3  C   UNL     1       1.838   7.811  20.077  0.00  0.00    +0.000 A 
ATOM      4  C   UNL     1       1.406   8.812  19.255  0.00  0.00    +0.000 A 
ATOM      5  C   UNL     1       1.749   8.768  17.909  0.00  0.00    +0.000 A 
ATOM      6  C   UNL     1       2.489   7.684  17.399  0.00  0.00    +0.000 A 
ENDROOT
BRANCH   1  16
ATOM      7  N   UNL     1       6.458   3.239  15.624  0.00  0.00    +0.000 N 
ATOM      8  C   UNL     1       5.630   4.009  16.343  0.00  0.00    +0.000 C 
ATOM      9  N   UNL     1       4.532   3.508  16.782  0.00  0.00    +0.000 NA
ATOM     10  C   UNL     1       3.707   4.261  17.752  0.00  0.00    +0.000 C 
ATOM     11  C   UNL     1       2.257   3.876  17.341  0.00  0.00    +0.000 C 
ATOM     12  C   UNL     1       1.170   4.033  18.397  0.00  0.00    +0.000 C 
ATOM     13  C   UNL     1       1.549   3.558  19.812  0.00  0.00    +0.000 C 
ATOM     14  C   UNL     1       3.035   3.595  20.228  0.00  0.00    +0.000 C 
ATOM     15  C   UNL     1       4.034   3.521  19.086  0.00  0.00    +0.000 C 
ATOM     16  N   UNL     1       3.991   5.747  17.765  0.00  0.00    +0.000 N 
ATOM     17  C   UNL     1       5.223   6.073  17.209  0.00  0.00    +0.000 C 
ATOM     18  N   UNL     1       5.744   7.315  17.380  0.00  0.00    +0.000 N 
ATOM     19  N   UNL     1       6.013   5.282  16.553  0.00  0.00    +0.000 NA
ATOM     20  H   UNL     1       6.025   2.433  15.207  0.00  0.00    +0.000 HD
ATOM     21  H   UNL     1       7.079   3.779  15.016  0.00  0.00    +0.000 HD
ATOM     22  H   UNL     1       5.155   8.100  17.598  0.00  0.00    +0.000 HD
ATOM     23  H   UNL     1       6.458   7.524  16.693  0.00  0.00    +0.000 HD
ENDBRANCH   1  16
BRANCH   4  24
ATOM     24  O   UNL     1       0.634   9.755  19.851  0.00  0.00    +0.000 OA
BRANCH  24  25
ATOM     25  C   UNL     1       0.802   9.819  21.268  0.00  0.00    +0.000 C 
BRANCH  25  26
ATOM     26  C   UNL     1      -0.112  10.833  21.837  0.00  0.00    +0.000 A 
ATOM     27  C   UNL     1      -0.710  11.913  21.225  0.00  0.00    +0.000 A 
ATOM     28  N   UNL     1      -1.414  12.498  22.228  0.00  0.00    +0.000 N 
ATOM     29  N   UNL     1      -1.264  11.841  23.389  0.00  0.00    +0.000 NA
ATOM     30  N   UNL     1      -0.464  10.807  23.158  0.00  0.00    +0.000 NA
BRANCH  28  31
ATOM     31  C   UNL     1      -2.244  13.681  22.150  0.00  0.00    +0.000 C 
BRANCH  31  32
ATOM     32  C   UNL     1      -3.222  13.593  20.982  0.00  0.00    +0.000 C 
BRANCH  32  33
ATOM     33  C   UNL     1      -4.386  12.643  21.262  0.00  0.00    +0.000 C 
BRANCH  33  34
ATOM     34  C   UNL     1      -5.251  12.479  20.035  0.00  0.00    +0.000 A 
ATOM     35  C   UNL     1      -6.589  12.896  20.053  0.00  0.00    +0.000 A 
ATOM     36  C   UNL     1      -7.407  12.707  18.939  0.00  0.00    +0.000 A 
ATOM     37  C   UNL     1      -6.901  12.092  17.797  0.00  0.00    +0.000 A 
ATOM     38  C   UNL     1      -5.572  11.673  17.765  0.00  0.00    +0.000 A 
ATOM     39  C   UNL     1      -4.750  11.864  18.878  0.00  0.00    +0.000 A 
ENDBRANCH  33  34
ENDBRANCH  32  33
ENDBRANCH  31  32
ENDBRANCH  28  31
ENDBRANCH  25  26
ENDBRANCH  24  25
ENDBRANCH   4  24
TORSDOF 8
ENDMDL
MODEL 6
REMARK VINA RESULT:      -8.2      2.112      3.844
REMARK  Name = 
REMARK  8 active torsions:
REMARK  status: ('A' for Active; 'I' for Inactive)
REMARK    1  A    between atoms: N_10  and  C_11
REMARK    2  A    between atoms: C_14  and  O_15
REMARK    3  A    between atoms: O_15  and  C_16
REMARK    4  A    between atoms: C_16  and  C_17
REMARK    5  A    between atoms: N_19  and  C_20
REMARK    6  A    between atoms: C_20  and  C_21
REMARK    7  A    between atoms: C_21  and  C_22
REMARK    8  A    between atoms: C_22  and  C_23
REMARK                            x       y       z     vdW  Elec       q    Type
REMARK                         _______ _______ _______ _____ _____    ______ ____
ROOT
ATOM      1  C   UNL     1       2.612   5.978  18.785  0.00  0.00    +0.000 A 
ATOM      2  C   UNL     1       2.378   6.962  17.837  0.00  0.00    +0.000 A 
ATOM      3  C   UNL     1       2.025   8.281  18.096  0.00  0.00    +0.000 A 
ATOM      4  C   UNL     1       1.639   8.609  19.363  0.00  0.00    +0.000 A 
ATOM      5  C   UNL     1       1.779   7.663  20.371  0.00  0.00    +0.000 A 
ATOM      6  C   UNL     1       2.352   6.408  20.094  0.00  0.00    +0.000 A 
ENDROOT
BRANCH   1  16
ATOM      7  N   UNL     1       4.008   0.662  18.386  0.00  0.00    +0.000 N 
ATOM      8  C   UNL     1       3.730   1.973  18.387  0.00  0.00    +0.000 C 
ATOM      9  N   UNL     1       4.692   2.817  18.287  0.00  0.00    +0.000 NA
ATOM     10  C   UNL     1       4.404   4.251  18.069  0.00  0.00    +0.000 C 
ATOM     11  C   UNL     1       5.537   4.955  18.869  0.00  0.00    +0.000 C 
ATOM     12  C   UNL     1       5.880   6.387  18.476  0.00  0.00    +0.000 C 
ATOM     13  C   UNL     1       5.943   6.659  16.960  0.00  0.00    +0.000 C 
ATOM     14  C   UNL     1       5.083   5.789  16.019  0.00  0.00    +0.000 C 
ATOM     15  C   UNL     1       4.725   4.411  16.551  0.00  0.00    +0.000 C 
ATOM     16  N   UNL     1       3.000   4.654  18.466  0.00  0.00    +0.000 N 
ATOM     17  C   UNL     1       2.125   3.577  18.550  0.00  0.00    +0.000 C 
ATOM     18  N   UNL     1       0.786   3.787  18.631  0.00  0.00    +0.000 N 
ATOM     19  N   UNL     1       2.435   2.319  18.503  0.00  0.00    +0.000 NA
ATOM     20  H   UNL     1       4.956   0.434  18.630  0.00  0.00    +0.000 HD
ATOM     21  H   UNL     1       3.282   0.099  18.837  0.00  0.00    +0.000 HD
ATOM     22  H   UNL     1       0.417   4.662  18.963  0.00  0.00    +0.000 HD
ATOM     23  H   UNL     1       0.297   2.978  18.994  0.00  0.00    +0.000 HD
ENDBRANCH   1  16
BRANCH   4  24
ATOM     24  O   UNL     1       1.177   9.876  19.516  0.00  0.00    +0.000 OA
BRANCH  24  25
ATOM     25  C   UNL     1      -0.205   9.942  19.866  0.00  0.00    +0.000 C 
BRANCH  25  26
ATOM     26  C   UNL     1      -0.422  11.016  20.859  0.00  0.00    +0.000 A 
ATOM     27  C   UNL     1      -0.863  12.308  20.667  0.00  0.00    +0.000 A 
ATOM     28  N   UNL     1      -0.844  12.839  21.918  0.00  0.00    +0.000 N 
ATOM     29  N   UNL     1      -0.415  11.950  22.828  0.00  0.00    +0.000 NA
ATOM     30  N   UNL     1      -0.154  10.819  22.185  0.00  0.00    +0.000 NA
BRANCH  28  31
ATOM     31  C   UNL     1      -1.219  14.179  22.312  0.00  0.00    +0.000 C 
BRANCH  31  32
ATOM     32  C   UNL     1      -1.269  14.315  23.831  0.00  0.00    +0.000 C 
BRANCH  32  33
ATOM     33  C   UNL     1      -2.479  15.120  24.307  0.00  0.00    +0.000 C 
BRANCH  33  34
ATOM     34  C   UNL     1      -3.746  14.308  24.182  0.00  0.00    +0.000 A 
ATOM     35  C   UNL     1      -4.887  14.867  23.590  0.00  0.00    +0.000 A 
ATOM     36  C   UNL     1      -6.075  14.139  23.511  0.00  0.00    +0.000 A 
ATOM     37  C   UNL     1      -6.139  12.848  24.030  0.00  0.00    +0.000 A 
ATOM     38  C   UNL     1      -5.011  12.281  24.620  0.00  0.00    +0.000 A 
ATOM     39  C   UNL     1      -3.820  13.006  24.698  0.00  0.00    +0.000 A 
ENDBRANCH  33  34
ENDBRANCH  32  33
ENDBRANCH  31  32
ENDBRANCH  28  31
ENDBRANCH  25  26
ENDBRANCH  24  25
ENDBRANCH   4  24
TORSDOF 8
ENDMDL
MODEL 7
REMARK VINA RESULT:      -8.1      2.103      3.529
REMARK  Name = 
REMARK  8 active torsions:
REMARK  status: ('A' for Active; 'I' for Inactive)
REMARK    1  A    between atoms: N_10  and  C_11
REMARK    2  A    between atoms: C_14  and  O_15
REMARK    3  A    between atoms: O_15  and  C_16
REMARK    4  A    between atoms: C_16  and  C_17
REMARK    5  A    between atoms: N_19  and  C_20
REMARK    6  A    between atoms: C_20  and  C_21
REMARK    7  A    between atoms: C_21  and  C_22
REMARK    8  A    between atoms: C_22  and  C_23
REMARK                            x       y       z     vdW  Elec       q    Type
REMARK                         _______ _______ _______ _____ _____    ______ ____
ROOT
ATOM      1  C   UNL     1       3.377   6.464  18.453  0.00  0.00    +0.000 A 
ATOM      2  C   UNL     1       2.712   7.540  17.886  0.00  0.00    +0.000 A 
ATOM      3  C   UNL     1       1.908   8.453  18.559  0.00  0.00    +0.000 A 
ATOM      4  C   UNL     1       1.532   8.161  19.838  0.00  0.00    +0.000 A 
ATOM      5  C   UNL     1       2.102   7.061  20.469  0.00  0.00    +0.000 A 
ATOM      6  C   UNL     1       3.083   6.295  19.812  0.00  0.00    +0.000 A 
ENDROOT
BRANCH   1  16
ATOM      7  N   UNL     1       6.394   3.501  14.919  0.00  0.00    +0.000 N 
ATOM      8  C   UNL     1       5.660   4.129  15.847  0.00  0.00    +0.000 C 
ATOM      9  N   UNL     1       4.594   3.565  16.288  0.00  0.00    +0.000 NA
ATOM     10  C   UNL     1       3.884   4.128  17.458  0.00  0.00    +0.000 C 
ATOM     11  C   UNL     1       2.392   3.843  17.125  0.00  0.00    +0.000 C 
ATOM     12  C   UNL     1       1.413   3.808  18.292  0.00  0.00    +0.000 C 
ATOM     13  C   UNL     1       1.910   3.068  19.549  0.00  0.00    +0.000 C 
ATOM     14  C   UNL     1       3.428   3.011  19.818  0.00  0.00    +0.000 C 
ATOM     15  C   UNL     1       4.314   3.145  18.591  0.00  0.00    +0.000 C 
ATOM     16  N   UNL     1       4.210   5.581  17.723  0.00  0.00    +0.000 N 
ATOM     17  C   UNL     1       5.393   5.995  17.121  0.00  0.00    +0.000 C 
ATOM     18  N   UNL     1       5.963   7.177  17.471  0.00  0.00    +0.000 N 
ATOM     19  N   UNL     1       6.096   5.335  16.254  0.00  0.00    +0.000 NA
ATOM     20  H   UNL     1       5.902   2.794  14.402  0.00  0.00    +0.000 HD
ATOM     21  H   UNL     1       6.971   4.141  14.365  0.00  0.00    +0.000 HD
ATOM     22  H   UNL     1       5.419   7.912  17.889  0.00  0.00    +0.000 HD
ATOM     23  H   UNL     1       6.615   7.505  16.769  0.00  0.00    +0.000 HD
ENDBRANCH   1  16
BRANCH   4  24
ATOM     24  O   UNL     1       0.640   9.023  20.388  0.00  0.00    +0.000 OA
BRANCH  24  25
ATOM     25  C   UNL     1       0.992   9.448  21.705  0.00  0.00    +0.000 C 
BRANCH  25  26
ATOM     26  C   UNL     1       0.276  10.699  22.037  0.00  0.00    +0.000 A 
ATOM     27  C   UNL     1      -0.918  10.872  22.703  0.00  0.00    +0.000 A 
ATOM     28  N   UNL     1      -1.093  12.219  22.696  0.00  0.00    +0.000 N 
ATOM     29  N   UNL     1      -0.089  12.847  22.064  0.00  0.00    +0.000 NA
ATOM     30  N   UNL     1       0.765  11.917  21.655  0.00  0.00    +0.000 NA
BRANCH  28  31
ATOM     31  C   UNL     1      -2.190  12.968  23.268  0.00  0.00    +0.000 C 
BRANCH  31  32
ATOM     32  C   UNL     1      -3.528  12.523  22.685  0.00  0.00    +0.000 C 
BRANCH  32  33
ATOM     33  C   UNL     1      -3.942  13.353  21.469  0.00  0.00    +0.000 C 
BRANCH  33  34
ATOM     34  C   UNL     1      -5.031  12.654  20.690  0.00  0.00    +0.000 A 
ATOM     35  C   UNL     1      -6.267  12.381  21.292  0.00  0.00    +0.000 A 
ATOM     36  C   UNL     1      -7.261  11.695  20.593  0.00  0.00    +0.000 A 
ATOM     37  C   UNL     1      -7.030  11.269  19.288  0.00  0.00    +0.000 A 
ATOM     38  C   UNL     1      -5.805  11.535  18.677  0.00  0.00    +0.000 A 
ATOM     39  C   UNL     1      -4.809  12.223  19.373  0.00  0.00    +0.000 A 
ENDBRANCH  33  34
ENDBRANCH  32  33
ENDBRANCH  31  32
ENDBRANCH  28  31
ENDBRANCH  25  26
ENDBRANCH  24  25
ENDBRANCH   4  24
TORSDOF 8
ENDMDL
MODEL 8
REMARK VINA RESULT:      -8.1      1.498      2.750
REMARK  Name = 
REMARK  8 active torsions:
REMARK  status: ('A' for Active; 'I' for Inactive)
REMARK    1  A    between atoms: N_10  and  C_11
REMARK    2  A    between atoms: C_14  and  O_15
REMARK    3  A    between atoms: O_15  and  C_16
REMARK    4  A    between atoms: C_16  and  C_17
REMARK    5  A    between atoms: N_19  and  C_20
REMARK    6  A    between atoms: C_20  and  C_21
REMARK    7  A    between atoms: C_21  and  C_22
REMARK    8  A    between atoms: C_22  and  C_23
REMARK                            x       y       z     vdW  Elec       q    Type
REMARK                         _______ _______ _______ _____ _____    ______ ____
ROOT
ATOM      1  C   UNL     1       3.262   5.952  18.625  0.00  0.00    +0.000 A 
ATOM      2  C   UNL     1       3.024   5.640  19.955  0.00  0.00    +0.000 A 
ATOM      3  C   UNL     1       2.153   6.305  20.809  0.00  0.00    +0.000 A 
ATOM      4  C   UNL     1       1.652   7.510  20.409  0.00  0.00    +0.000 A 
ATOM      5  C   UNL     1       1.892   7.936  19.109  0.00  0.00    +0.000 A 
ATOM      6  C   UNL     1       2.599   7.115  18.211  0.00  0.00    +0.000 A 
ENDROOT
BRANCH   1  16
ATOM      7  N   UNL     1       6.413   3.635  14.743  0.00  0.00    +0.000 N 
ATOM      8  C   UNL     1       5.653   4.098  15.745  0.00  0.00    +0.000 C 
ATOM      9  N   UNL     1       4.634   3.416  16.125  0.00  0.00    +0.000 NA
ATOM     10  C   UNL     1       3.908   3.788  17.359  0.00  0.00    +0.000 C 
ATOM     11  C   UNL     1       2.433   3.442  17.007  0.00  0.00    +0.000 C 
ATOM     12  C   UNL     1       1.478   3.205  18.170  0.00  0.00    +0.000 C 
ATOM     13  C   UNL     1       2.043   2.360  19.327  0.00  0.00    +0.000 C 
ATOM     14  C   UNL     1       3.566   2.375  19.575  0.00  0.00    +0.000 C 
ATOM     15  C   UNL     1       4.421   2.711  18.365  0.00  0.00    +0.000 C 
ATOM     16  N   UNL     1       4.140   5.220  17.790  0.00  0.00    +0.000 N 
ATOM     17  C   UNL     1       5.283   5.780  17.231  0.00  0.00    +0.000 C 
ATOM     18  N   UNL     1       5.778   6.950  17.712  0.00  0.00    +0.000 N 
ATOM     19  N   UNL     1       6.014   5.276  16.287  0.00  0.00    +0.000 NA
ATOM     20  H   UNL     1       5.961   2.960  14.151  0.00  0.00    +0.000 HD
ATOM     21  H   UNL     1       6.937   4.373  14.264  0.00  0.00    +0.000 HD
ATOM     22  H   UNL     1       5.192   7.592  18.218  0.00  0.00    +0.000 HD
ATOM     23  H   UNL     1       6.395   7.401  17.049  0.00  0.00    +0.000 HD
ENDBRANCH   1  16
BRANCH   4  24
ATOM     24  O   UNL     1       0.920   8.168  21.343  0.00  0.00    +0.000 OA
BRANCH  24  25
ATOM     25  C   UNL     1       1.307   9.531  21.517  0.00  0.00    +0.000 C 
BRANCH  25  26
ATOM     26  C   UNL     1       0.150  10.329  21.977  0.00  0.00    +0.000 A 
ATOM     27  C   UNL     1      -0.738  11.085  21.242  0.00  0.00    +0.000 A 
ATOM     28  N   UNL     1      -1.567  11.606  22.183  0.00  0.00    +0.000 N 
ATOM     29  N   UNL     1      -1.222  11.214  23.420  0.00  0.00    +0.000 NA
ATOM     30  N   UNL     1      -0.164  10.422  23.304  0.00  0.00    +0.000 NA
BRANCH  28  31
ATOM     31  C   UNL     1      -2.700  12.480  21.973  0.00  0.00    +0.000 C 
BRANCH  31  32
ATOM     32  C   UNL     1      -2.711  13.041  20.555  0.00  0.00    +0.000 C 
BRANCH  32  33
ATOM     33  C   UNL     1      -3.986  12.684  19.792  0.00  0.00    +0.000 C 
BRANCH  33  34
ATOM     34  C   UNL     1      -3.666  11.862  18.567  0.00  0.00    +0.000 A 
ATOM     35  C   UNL     1      -2.337  11.535  18.263  0.00  0.00    +0.000 A 
ATOM     36  C   UNL     1      -2.028  10.815  17.108  0.00  0.00    +0.000 A 
ATOM     37  C   UNL     1      -3.043  10.420  16.240  0.00  0.00    +0.000 A 
ATOM     38  C   UNL     1      -4.368  10.737  16.531  0.00  0.00    +0.000 A 
ATOM     39  C   UNL     1      -4.680  11.455  17.687  0.00  0.00    +0.000 A 
ENDBRANCH  33  34
ENDBRANCH  32  33
ENDBRANCH  31  32
ENDBRANCH  28  31
ENDBRANCH  25  26
ENDBRANCH  24  25
ENDBRANCH   4  24
TORSDOF 8
ENDMDL
MODEL 9
REMARK VINA RESULT:      -8.0      3.240      4.482
REMARK  Name = 
REMARK  8 active torsions:
REMARK  status: ('A' for Active; 'I' for Inactive)
REMARK    1  A    between atoms: N_10  and  C_11
REMARK    2  A    between atoms: C_14  and  O_15
REMARK    3  A    between atoms: O_15  and  C_16
REMARK    4  A    between atoms: C_16  and  C_17
REMARK    5  A    between atoms: N_19  and  C_20
REMARK    6  A    between atoms: C_20  and  C_21
REMARK    7  A    between atoms: C_21  and  C_22
REMARK    8  A    between atoms: C_22  and  C_23
REMARK                            x       y       z     vdW  Elec       q    Type
REMARK                         _______ _______ _______ _____ _____    ______ ____
ROOT
ATOM      1  C   UNL     1       3.076   6.437  18.574  0.00  0.00    +0.000 A 
ATOM      2  C   UNL     1       2.796   6.406  19.931  0.00  0.00    +0.000 A 
ATOM      3  C   UNL     1       1.919   7.247  20.606  0.00  0.00    +0.000 A 
ATOM      4  C   UNL     1       1.459   8.355  19.955  0.00  0.00    +0.000 A 
ATOM      5  C   UNL     1       1.745   8.504  18.603  0.00  0.00    +0.000 A 
ATOM      6  C   UNL     1       2.455   7.505  17.912  0.00  0.00    +0.000 A 
ENDROOT
BRANCH   1  16
ATOM      7  N   UNL     1       6.295   3.340  15.346  0.00  0.00    +0.000 N 
ATOM      8  C   UNL     1       5.511   4.005  16.205  0.00  0.00    +0.000 C 
ATOM      9  N   UNL     1       4.445   3.441  16.646  0.00  0.00    +0.000 NA
ATOM     10  C   UNL     1       3.680   4.057  17.752  0.00  0.00    +0.000 C 
ATOM     11  C   UNL     1       2.209   3.708  17.388  0.00  0.00    +0.000 C 
ATOM     12  C   UNL     1       1.190   3.721  18.521  0.00  0.00    +0.000 C 
ATOM     13  C   UNL     1       1.661   3.079  19.840  0.00  0.00    +0.000 C 
ATOM     14  C   UNL     1       3.170   3.082  20.164  0.00  0.00    +0.000 C 
ATOM     15  C   UNL     1       4.095   3.162  18.960  0.00  0.00    +0.000 C 
ATOM     16  N   UNL     1       3.958   5.534  17.932  0.00  0.00    +0.000 N 
ATOM     17  C   UNL     1       5.150   5.941  17.344  0.00  0.00    +0.000 C 
ATOM     18  N   UNL     1       5.676   7.159  17.635  0.00  0.00    +0.000 N 
ATOM     19  N   UNL     1       5.900   5.247  16.547  0.00  0.00    +0.000 NA
ATOM     20  H   UNL     1       5.840   2.587  14.860  0.00  0.00    +0.000 HD
ATOM     21  H   UNL     1       6.874   3.959  14.771  0.00  0.00    +0.000 HD
ATOM     22  H   UNL     1       5.098   7.904  17.985  0.00  0.00    +0.000 HD
ATOM     23  H   UNL     1       6.343   7.460  16.936  0.00  0.00    +0.000 HD
ENDBRANCH   1  16
BRANCH   4  24
ATOM     24  O   UNL     1       0.719   9.203  20.713  0.00  0.00    +0.000 OA
BRANCH  24  25
ATOM     25  C   UNL     1      -0.165  10.027  19.952  0.00  0.00    +0.000 C 
BRANCH  25  26
ATOM     26  C   UNL     1      -0.198  11.390  20.523  0.00  0.00    +0.000 A 
ATOM     27  C   UNL     1      -1.057  12.433  20.247  0.00  0.00    +0.000 A 
ATOM     28  N   UNL     1      -0.603  13.437  21.040  0.00  0.00    +0.000 N 
ATOM     29  N   UNL     1       0.468  13.059  21.757  0.00  0.00    +0.000 NA
ATOM     30  N   UNL     1       0.725  11.794  21.447  0.00  0.00    +0.000 NA
BRANCH  28  31
ATOM     31  C   UNL     1      -1.139  14.775  21.162  0.00  0.00    +0.000 C 
BRANCH  31  32
ATOM     32  C   UNL     1      -0.070  15.827  20.883  0.00  0.00    +0.000 C 
BRANCH  32  33
ATOM     33  C   UNL     1      -0.107  16.332  19.441  0.00  0.00    +0.000 C 
BRANCH  33  34
ATOM     34  C   UNL     1       1.215  16.085  18.753  0.00  0.00    +0.000 A 
ATOM     35  C   UNL     1       1.774  17.068  17.924  0.00  0.00    +0.000 A 
ATOM     36  C   UNL     1       2.972  16.830  17.249  0.00  0.00    +0.000 A 
ATOM     37  C   UNL     1       3.621  15.605  17.388  0.00  0.00    +0.000 A 
ATOM     38  C   UNL     1       3.076  14.620  18.209  0.00  0.00    +0.000 A 
ATOM     39  C   UNL     1       1.878  14.857  18.888  0.00  0.00    +0.000 A 
ENDBRANCH  33  34
ENDBRANCH  32  33
ENDBRANCH  31  32
ENDBRANCH  28  31
ENDBRANCH  25  26
ENDBRANCH  24  25
ENDBRANCH   4  24
TORSDOF 8
ENDMDL
