MODEL 1
REMARK VINA RESULT:      -7.7      0.000      0.000
REMARK  Name = 
REMARK  10 active torsions:
REMARK  status: ('A' for Active; 'I' for Inactive)
REMARK    1  A    between atoms: C_2  and  C_3
REMARK    2  A    between atoms: C_4  and  C_5
REMARK    3  A    between atoms: C_8  and  O_9
REMARK    4  A    between atoms: N_12  and  C_13
REMARK    5  A    between atoms: C_13  and  C_14
REMARK    6  A    between atoms: C_14  and  C_15
REMARK    7  A    between atoms: C_15  and  N_16
REMARK    8  A    between atoms: C_17  and  C_19
REMARK    9  A    between atoms: C_20  and  C_21
REMARK   10  A    between atoms: C_24  and  O_25
REMARK                            x       y       z     vdW  Elec       q    Type
REMARK                         _______ _______ _______ _____ _____    ______ ____
ROOT
ATOM      1  C   UNL     1       5.367   4.710  19.124  0.00  0.00    +0.000 C 
ENDROOT
BRANCH   1   2
ATOM      2  C   UNL     1       6.609   4.975  18.263  0.00  0.00    +0.000 C 
BRANCH   2   5
ATOM      3  O   UNL     1       7.291   7.204  16.629  0.00  0.00    +0.000 OA
ATOM      4  C   UNL     1       7.638   7.184  17.803  0.00  0.00    +0.000 C 
ATOM      5  N   UNL     1       7.346   6.164  18.679  0.00  0.00    +0.000 N 
ATOM      6  H   UNL     1       7.705   6.199  19.623  0.00  0.00    +0.000 HD
BRANCH   4   7
ATOM      7  C   UNL     1       8.425   8.285  18.429  0.00  0.00    +0.000 C 
ATOM      8  C   UNL     1       8.346   9.544  17.967  0.00  0.00    +0.000 C 
BRANCH   8   9
ATOM      9  C   UNL     1       9.090  10.641  18.596  0.00  0.00    +0.000 A 
ATOM     10  C   UNL     1       9.537  10.538  19.921  0.00  0.00    +0.000 A 
ATOM     11  C   UNL     1      10.203  11.608  20.531  0.00  0.00    +0.000 A 
ATOM     12  C   UNL     1      10.423  12.778  19.812  0.00  0.00    +0.000 A 
ATOM     13  C   UNL     1      10.008  12.887  18.490  0.00  0.00    +0.000 A 
ATOM     14  C   UNL     1       9.341  11.820  17.881  0.00  0.00    +0.000 A 
BRANCH  12  15
ATOM     15  O   UNL     1      11.047  13.854  20.372  0.00  0.00    +0.000 OA
ATOM     16  H   UNL     1      11.814  13.541  20.879  0.00  0.00    +0.000 HD
ENDBRANCH  12  15
ENDBRANCH   8   9
ENDBRANCH   4   7
ENDBRANCH   2   5
ENDBRANCH   1   2
BRANCH   1  17
ATOM     17  C   UNL     1       4.073   4.793  18.303  0.00  0.00    +0.000 C 
BRANCH  17  18
ATOM     18  N   UNL     1       3.187   5.863  18.745  0.00  0.00    +0.000 N 
ATOM     19  C   UNL     1       3.156   7.091  18.118  0.00  0.00    +0.000 C 
ATOM     20  O   UNL     1       3.801   7.355  17.115  0.00  0.00    +0.000 OA
ATOM     21  H   UNL     1       2.635   5.710  19.578  0.00  0.00    +0.000 HD
BRANCH  19  22
ATOM     22  C   UNL     1       2.252   8.073  18.771  0.00  0.00    +0.000 C 
ATOM     23  C   UNL     1       1.896   7.900  20.055  0.00  0.00    +0.000 C 
BRANCH  23  24
ATOM     24  C   UNL     1       1.007   8.807  20.800  0.00  0.00    +0.000 A 
ATOM     25  C   UNL     1       0.972   8.739  22.202  0.00  0.00    +0.000 A 
ATOM     26  C   UNL     1       0.150   9.604  22.941  0.00  0.00    +0.000 A 
ATOM     27  C   UNL     1      -0.629  10.542  22.274  0.00  0.00    +0.000 A 
ATOM     28  C   UNL     1      -0.592  10.638  20.890  0.00  0.00    +0.000 A 
ATOM     29  C   UNL     1       0.228   9.780  20.156  0.00  0.00    +0.000 A 
BRANCH  27  30
ATOM     30  O   UNL     1      -1.446  11.401  22.946  0.00  0.00    +0.000 OA
ATOM     31  H   UNL     1      -1.039  12.283  22.949  0.00  0.00    +0.000 HD
ENDBRANCH  27  30
ENDBRANCH  23  24
ENDBRANCH  19  22
ENDBRANCH  17  18
ENDBRANCH   1  17
TORSDOF 10
ENDMDL
MODEL 2
REMARK VINA RESULT:      -7.6      1.358      8.478
REMARK  Name = 
REMARK  10 active torsions:
REMARK  status: ('A' for Active; 'I' for Inactive)
REMARK    1  A    between atoms: C_2  and  C_3
REMARK    2  A    between atoms: C_4  and  C_5
REMARK    3  A    between atoms: C_8  and  O_9
REMARK    4  A    between atoms: N_12  and  C_13
REMARK    5  A    between atoms: C_13  and  C_14
REMARK    6  A    between atoms: C_14  and  C_15
REMARK    7  A    between atoms: C_15  and  N_16
REMARK    8  A    between atoms: C_17  and  C_19
REMARK    9  A    between atoms: C_20  and  C_21
REMARK   10  A    between atoms: C_24  and  O_25
REMARK                            x       y       z     vdW  Elec       q    Type
REMARK                         _______ _______ _______ _____ _____    ______ ____
ROOT
ATOM      1  C   UNL     1       4.825   5.274  17.453  0.00  0.00    +0.000 C 
ENDROOT
BRANCH   1   2
ATOM      2  C   UNL     1       4.870   5.093  18.977  0.00  0.00    +0.000 C 
BRANCH   2   5
ATOM      3  O   UNL     1       2.162   4.398  19.513  0.00  0.00    +0.000 OA
ATOM      4  C   UNL     1       2.590   5.486  19.871  0.00  0.00    +0.000 C 
ATOM      5  N   UNL     1       3.885   5.912  19.676  0.00  0.00    +0.000 N 
ATOM      6  H   UNL     1       4.152   6.843  19.962  0.00  0.00    +0.000 HD
BRANCH   4   7
ATOM      7  C   UNL     1       1.746   6.492  20.578  0.00  0.00    +0.000 C 
ATOM      8  C   UNL     1       1.785   7.792  20.240  0.00  0.00    +0.000 C 
BRANCH   8   9
ATOM      9  C   UNL     1       0.934   8.784  20.905  0.00  0.00    +0.000 A 
ATOM     10  C   UNL     1       0.237   9.746  20.161  0.00  0.00    +0.000 A 
ATOM     11  C   UNL     1      -0.535  10.721  20.806  0.00  0.00    +0.000 A 
ATOM     12  C   UNL     1      -0.609  10.728  22.195  0.00  0.00    +0.000 A 
ATOM     13  C   UNL     1       0.058   9.767  22.946  0.00  0.00    +0.000 A 
ATOM     14  C   UNL     1       0.829   8.795  22.302  0.00  0.00    +0.000 A 
BRANCH  12  15
ATOM     15  O   UNL     1      -1.328  11.672  22.866  0.00  0.00    +0.000 OA
ATOM     16  H   UNL     1      -1.880  12.156  22.230  0.00  0.00    +0.000 HD
ENDBRANCH  12  15
ENDBRANCH   8   9
ENDBRANCH   4   7
ENDBRANCH   2   5
ENDBRANCH   1   2
BRANCH   1  17
ATOM     17  C   UNL     1       6.229   5.426  16.853  0.00  0.00    +0.000 C 
BRANCH  17  18
ATOM     18  N   UNL     1       6.718   6.800  16.891  0.00  0.00    +0.000 N 
ATOM     19  C   UNL     1       7.589   7.237  17.865  0.00  0.00    +0.000 C 
ATOM     20  O   UNL     1       8.074   6.508  18.718  0.00  0.00    +0.000 OA
ATOM     21  H   UNL     1       6.345   7.456  16.218  0.00  0.00    +0.000 HD
BRANCH  19  22
ATOM     22  C   UNL     1       7.900   8.689  17.782  0.00  0.00    +0.000 C 
ATOM     23  C   UNL     1       8.791   9.229  18.630  0.00  0.00    +0.000 C 
BRANCH  23  24
ATOM     24  C   UNL     1       9.173  10.650  18.638  0.00  0.00    +0.000 A 
ATOM     25  C   UNL     1      10.202  11.082  19.490  0.00  0.00    +0.000 A 
ATOM     26  C   UNL     1      10.602  12.427  19.507  0.00  0.00    +0.000 A 
ATOM     27  C   UNL     1       9.977  13.336  18.662  0.00  0.00    +0.000 A 
ATOM     28  C   UNL     1       8.972  12.924  17.798  0.00  0.00    +0.000 A 
ATOM     29  C   UNL     1       8.576  11.586  17.780  0.00  0.00    +0.000 A 
BRANCH  27  30
ATOM     30  O   UNL     1      10.327  14.653  18.643  0.00  0.00    +0.000 OA
ATOM     31  H   UNL     1      10.320  14.992  19.553  0.00  0.00    +0.000 HD
ENDBRANCH  27  30
ENDBRANCH  23  24
ENDBRANCH  19  22
ENDBRANCH  17  18
ENDBRANCH   1  17
TORSDOF 10
ENDMDL
MODEL 3
REMARK VINA RESULT:      -7.5      1.090      8.165
REMARK  Name = 
REMARK  10 active torsions:
REMARK  status: ('A' for Active; 'I' for Inactive)
REMARK    1  A    between atoms: C_2  and  C_3
REMARK    2  A    between atoms: C_4  and  C_5
REMARK    3  A    between atoms: C_8  and  O_9
REMARK    4  A    between atoms: N_12  and  C_13
REMARK    5  A    between atoms: C_13  and  C_14
REMARK    6  A    between atoms: C_14  and  C_15
REMARK    7  A    between atoms: C_15  and  N_16
REMARK    8  A    between atoms: C_17  and  C_19
REMARK    9  A    between atoms: C_20  and  C_21
REMARK   10  A    between atoms: C_24  and  O_25
REMARK                            x       y       z     vdW  Elec       q    Type
REMARK                         _______ _______ _______ _____ _____    ______ ____
ROOT
ATOM      1  C   UNL     1       5.447   4.919  19.380  0.00  0.00    +0.000 C 
ENDROOT
BRANCH   1   2
ATOM      2  C   UNL     1       4.229   4.834  18.450  0.00  0.00    +0.000 C 
BRANCH   2   5
ATOM      3  O   UNL     1       4.395   7.106  16.743  0.00  0.00    +0.000 OA
ATOM      4  C   UNL     1       3.561   7.081  17.638  0.00  0.00    +0.000 C 
ATOM      5  N   UNL     1       3.388   6.026  18.506  0.00  0.00    +0.000 N 
ATOM      6  H   UNL     1       2.707   6.098  19.248  0.00  0.00    +0.000 HD
BRANCH   4   7
ATOM      7  C   UNL     1       2.618   8.207  17.892  0.00  0.00    +0.000 C 
ATOM      8  C   UNL     1       1.862   8.242  19.003  0.00  0.00    +0.000 C 
BRANCH   8   9
ATOM      9  C   UNL     1       0.955   9.361  19.279  0.00  0.00    +0.000 A 
ATOM     10  C   UNL     1       0.821   9.872  20.577  0.00  0.00    +0.000 A 
ATOM     11  C   UNL     1      -0.084  10.908  20.843  0.00  0.00    +0.000 A 
ATOM     12  C   UNL     1      -0.849  11.432  19.807  0.00  0.00    +0.000 A 
ATOM     13  C   UNL     1      -0.710  10.953  18.510  0.00  0.00    +0.000 A 
ATOM     14  C   UNL     1       0.191   9.917  18.245  0.00  0.00    +0.000 A 
BRANCH  12  15
ATOM     15  O   UNL     1      -1.758  12.425  20.023  0.00  0.00    +0.000 OA
ATOM     16  H   UNL     1      -1.314  13.163  20.473  0.00  0.00    +0.000 HD
ENDBRANCH  12  15
ENDBRANCH   8   9
ENDBRANCH   4   7
ENDBRANCH   2   5
ENDBRANCH   1   2
BRANCH   1  17
ATOM     17  C   UNL     1       6.745   5.173  18.601  0.00  0.00    +0.000 C 
BRANCH  17  18
ATOM     18  N   UNL     1       7.133   6.579  18.587  0.00  0.00    +0.000 N 
ATOM     19  C   UNL     1       7.570   7.203  17.438  0.00  0.00    +0.000 C 
ATOM     20  O   UNL     1       7.597   6.663  16.342  0.00  0.00    +0.000 OA
ATOM     21  H   UNL     1       7.143   7.079  19.465  0.00  0.00    +0.000 HD
BRANCH  19  22
ATOM     22  C   UNL     1       8.001   8.610  17.648  0.00  0.00    +0.000 C 
ATOM     23  C   UNL     1       8.746   8.925  18.721  0.00  0.00    +0.000 C 
BRANCH  23  24
ATOM     24  C   UNL     1       9.227  10.281  19.029  0.00  0.00    +0.000 A 
ATOM     25  C   UNL     1       9.472  11.181  17.978  0.00  0.00    +0.000 A 
ATOM     26  C   UNL     1       9.912  12.487  18.242  0.00  0.00    +0.000 A 
ATOM     27  C   UNL     1      10.095  12.895  19.557  0.00  0.00    +0.000 A 
ATOM     28  C   UNL     1       9.838  12.027  20.609  0.00  0.00    +0.000 A 
ATOM     29  C   UNL     1       9.398  10.728  20.348  0.00  0.00    +0.000 A 
BRANCH  27  30
ATOM     30  O   UNL     1      10.524  14.151  19.864  0.00  0.00    +0.000 OA
ATOM     31  H   UNL     1       9.894  14.794  19.500  0.00  0.00    +0.000 HD
ENDBRANCH  27  30
ENDBRANCH  23  24
ENDBRANCH  19  22
ENDBRANCH  17  18
ENDBRANCH   1  17
TORSDOF 10
ENDMDL
MODEL 4
REMARK VINA RESULT:      -7.4      4.704      7.086
REMARK  Name = 
REMARK  10 active torsions:
REMARK  status: ('A' for Active; 'I' for Inactive)
REMARK    1  A    between atoms: C_2  and  C_3
REMARK    2  A    between atoms: C_4  and  C_5
REMARK    3  A    between atoms: C_8  and  O_9
REMARK    4  A    between atoms: N_12  and  C_13
REMARK    5  A    between atoms: C_13  and  C_14
REMARK    6  A    between atoms: C_14  and  C_15
REMARK    7  A    between atoms: C_15  and  N_16
REMARK    8  A    between atoms: C_17  and  C_19
REMARK    9  A    between atoms: C_20  and  C_21
REMARK   10  A    between atoms: C_24  and  O_25
REMARK                            x       y       z     vdW  Elec       q    Type
REMARK                         _______ _______ _______ _____ _____    ______ ____
ROOT
ATOM      1  C   UNL     1       0.633  11.380  20.340  0.00  0.00    +0.000 C 
ENDROOT
BRANCH   1   2
ATOM      2  C   UNL     1       0.897  11.334  18.828  0.00  0.00    +0.000 C 
BRANCH   2   5
ATOM      3  O   UNL     1       0.696   8.791  17.565  0.00  0.00    +0.000 OA
ATOM      4  C   UNL     1       1.796   9.228  17.873  0.00  0.00    +0.000 C 
ATOM      5  N   UNL     1       2.004  10.450  18.472  0.00  0.00    +0.000 N 
ATOM      6  H   UNL     1       2.939  10.724  18.736  0.00  0.00    +0.000 HD
BRANCH   4   7
ATOM      7  C   UNL     1       3.060   8.477  17.627  0.00  0.00    +0.000 C 
ATOM      8  C   UNL     1       3.158   7.169  17.919  0.00  0.00    +0.000 C 
BRANCH   8   9
ATOM      9  C   UNL     1       4.385   6.412  17.650  0.00  0.00    +0.000 A 
ATOM     10  C   UNL     1       4.823   5.417  18.534  0.00  0.00    +0.000 A 
ATOM     11  C   UNL     1       6.022   4.733  18.296  0.00  0.00    +0.000 A 
ATOM     12  C   UNL     1       6.777   5.044  17.171  0.00  0.00    +0.000 A 
ATOM     13  C   UNL     1       6.345   6.011  16.271  0.00  0.00    +0.000 A 
ATOM     14  C   UNL     1       5.149   6.696  16.510  0.00  0.00    +0.000 A 
BRANCH  12  15
ATOM     15  O   UNL     1       7.962   4.420  16.911  0.00  0.00    +0.000 OA
ATOM     16  H   UNL     1       7.797   3.469  16.805  0.00  0.00    +0.000 HD
ENDBRANCH  12  15
ENDBRANCH   8   9
ENDBRANCH   4   7
ENDBRANCH   2   5
ENDBRANCH   1   2
BRANCH   1  17
ATOM     17  C   UNL     1      -0.315  10.259  20.789  0.00  0.00    +0.000 C 
BRANCH  17  18
ATOM     18  N   UNL     1       0.289   8.934  20.700  0.00  0.00    +0.000 N 
ATOM     19  C   UNL     1       1.285   8.528  21.563  0.00  0.00    +0.000 C 
ATOM     20  O   UNL     1       1.685   9.200  22.501  0.00  0.00    +0.000 OA
ATOM     21  H   UNL     1       0.009   8.333  19.937  0.00  0.00    +0.000 HD
BRANCH  19  22
ATOM     22  C   UNL     1       1.829   7.179  21.254  0.00  0.00    +0.000 C 
ATOM     23  C   UNL     1       1.128   6.340  20.474  0.00  0.00    +0.000 C 
BRANCH  23  24
ATOM     24  C   UNL     1       1.569   4.985  20.106  0.00  0.00    +0.000 A 
ATOM     25  C   UNL     1       2.240   4.197  21.054  0.00  0.00    +0.000 A 
ATOM     26  C   UNL     1       2.655   2.894  20.739  0.00  0.00    +0.000 A 
ATOM     27  C   UNL     1       2.387   2.378  19.477  0.00  0.00    +0.000 A 
ATOM     28  C   UNL     1       1.706   3.134  18.533  0.00  0.00    +0.000 A 
ATOM     29  C   UNL     1       1.292   4.429  18.848  0.00  0.00    +0.000 A 
BRANCH  27  30
ATOM     30  O   UNL     1       2.772   1.120  19.122  0.00  0.00    +0.000 OA
ATOM     31  H   UNL     1       2.842   0.576  19.923  0.00  0.00    +0.000 HD
ENDBRANCH  27  30
ENDBRANCH  23  24
ENDBRANCH  19  22
ENDBRANCH  17  18
ENDBRANCH   1  17
TORSDOF 10
ENDMDL
MODEL 5
REMARK VINA RESULT:      -7.3      0.905      8.197
REMARK  Name = 
REMARK  10 active torsions:
REMARK  status: ('A' for Active; 'I' for Inactive)
REMARK    1  A    between atoms: C_2  and  C_3
REMARK    2  A    between atoms: C_4  and  C_5
REMARK    3  A    between atoms: C_8  and  O_9
REMARK    4  A    between atoms: N_12  and  C_13
REMARK    5  A    between atoms: C_13  and  C_14
REMARK    6  A    between atoms: C_14  and  C_15
REMARK    7  A    between atoms: C_15  and  N_16
REMARK    8  A    between atoms: C_17  and  C_19
REMARK    9  A    between atoms: C_20  and  C_21
REMARK   10  A    between atoms: C_24  and  O_25
REMARK                            x       y       z     vdW  Elec       q    Type
REMARK                         _______ _______ _______ _____ _____    ______ ____
ROOT
ATOM      1  C   UNL     1       5.335   4.264  18.798  0.00  0.00    +0.000 C 
ENDROOT
BRANCH   1   2
ATOM      2  C   UNL     1       4.024   4.385  18.007  0.00  0.00    +0.000 C 
BRANCH   2   5
ATOM      3  O   UNL     1       3.932   7.139  17.294  0.00  0.00    +0.000 OA
ATOM      4  C   UNL     1       3.169   6.709  18.149  0.00  0.00    +0.000 C 
ATOM      5  N   UNL     1       3.122   5.394  18.554  0.00  0.00    +0.000 N 
ATOM      6  H   UNL     1       2.494   5.123  19.297  0.00  0.00    +0.000 HD
BRANCH   4   7
ATOM      7  C   UNL     1       2.183   7.573  18.858  0.00  0.00    +0.000 C 
ATOM      8  C   UNL     1       1.884   8.802  18.404  0.00  0.00    +0.000 C 
BRANCH   8   9
ATOM      9  C   UNL     1       0.891   9.648  19.074  0.00  0.00    +0.000 A 
ATOM     10  C   UNL     1      -0.049  10.377  18.333  0.00  0.00    +0.000 A 
ATOM     11  C   UNL     1      -0.962  11.221  18.977  0.00  0.00    +0.000 A 
ATOM     12  C   UNL     1      -0.934  11.330  20.363  0.00  0.00    +0.000 A 
ATOM     13  C   UNL     1      -0.023  10.597  21.114  0.00  0.00    +0.000 A 
ATOM     14  C   UNL     1       0.889   9.755  20.471  0.00  0.00    +0.000 A 
BRANCH  12  15
ATOM     15  O   UNL     1      -1.788  12.157  21.031  0.00  0.00    +0.000 OA
ATOM     16  H   UNL     1      -2.696  11.968  20.743  0.00  0.00    +0.000 HD
ENDBRANCH  12  15
ENDBRANCH   8   9
ENDBRANCH   4   7
ENDBRANCH   2   5
ENDBRANCH   1   2
BRANCH   1  17
ATOM     17  C   UNL     1       6.546   4.714  17.969  0.00  0.00    +0.000 C 
BRANCH  17  18
ATOM     18  N   UNL     1       7.158   5.937  18.476  0.00  0.00    +0.000 N 
ATOM     19  C   UNL     1       7.700   6.884  17.634  0.00  0.00    +0.000 C 
ATOM     20  O   UNL     1       7.648   6.817  16.416  0.00  0.00    +0.000 OA
ATOM     21  H   UNL     1       7.242   6.047  19.478  0.00  0.00    +0.000 HD
BRANCH  19  22
ATOM     22  C   UNL     1       8.353   8.014  18.347  0.00  0.00    +0.000 C 
ATOM     23  C   UNL     1       8.217   9.265  17.877  0.00  0.00    +0.000 C 
BRANCH  23  24
ATOM     24  C   UNL     1       8.818  10.456  18.499  0.00  0.00    +0.000 A 
ATOM     25  C   UNL     1       8.731  11.695  17.844  0.00  0.00    +0.000 A 
ATOM     26  C   UNL     1       9.277  12.851  18.421  0.00  0.00    +0.000 A 
ATOM     27  C   UNL     1       9.902  12.767  19.659  0.00  0.00    +0.000 A 
ATOM     28  C   UNL     1       9.981  11.556  20.332  0.00  0.00    +0.000 A 
ATOM     29  C   UNL     1       9.435  10.406  19.758  0.00  0.00    +0.000 A 
BRANCH  27  30
ATOM     30  O   UNL     1      10.452  13.860  20.259  0.00  0.00    +0.000 OA
ATOM     31  H   UNL     1       9.932  14.644  20.018  0.00  0.00    +0.000 HD
ENDBRANCH  27  30
ENDBRANCH  23  24
ENDBRANCH  19  22
ENDBRANCH  17  18
ENDBRANCH   1  17
TORSDOF 10
ENDMDL
MODEL 6
REMARK VINA RESULT:      -7.3      1.458      8.201
REMARK  Name = 
REMARK  10 active torsions:
REMARK  status: ('A' for Active; 'I' for Inactive)
REMARK    1  A    between atoms: C_2  and  C_3
REMARK    2  A    between atoms: C_4  and  C_5
REMARK    3  A    between atoms: C_8  and  O_9
REMARK    4  A    between atoms: N_12  and  C_13
REMARK    5  A    between atoms: C_13  and  C_14
REMARK    6  A    between atoms: C_14  and  C_15
REMARK    7  A    between atoms: C_15  and  N_16
REMARK    8  A    between atoms: C_17  and  C_19
REMARK    9  A    between atoms: C_20  and  C_21
REMARK   10  A    between atoms: C_24  and  O_25
REMARK                            x       y       z     vdW  Elec       q    Type
REMARK                         _______ _______ _______ _____ _____    ______ ____
ROOT
ATOM      1  C   UNL     1       6.960   4.413  16.495  0.00  0.00    +0.000 C 
ENDROOT
BRANCH   1   2
ATOM      2  C   UNL     1       5.683   4.853  15.767  0.00  0.00    +0.000 C 
BRANCH   2   5
ATOM      3  O   UNL     1       3.517   3.699  17.208  0.00  0.00    +0.000 OA
ATOM      4  C   UNL     1       3.718   4.903  17.281  0.00  0.00    +0.000 C 
ATOM      5  N   UNL     1       4.745   5.556  16.637  0.00  0.00    +0.000 N 
ATOM      6  H   UNL     1       4.822   6.561  16.711  0.00  0.00    +0.000 HD
BRANCH   4   7
ATOM      7  C   UNL     1       2.863   5.816  18.092  0.00  0.00    +0.000 C 
ATOM      8  C   UNL     1       3.012   7.150  18.023  0.00  0.00    +0.000 C 
BRANCH   8   9
ATOM      9  C   UNL     1       2.154   8.059  18.791  0.00  0.00    +0.000 A 
ATOM     10  C   UNL     1       1.840   7.790  20.130  0.00  0.00    +0.000 A 
ATOM     11  C   UNL     1       0.980   8.636  20.842  0.00  0.00    +0.000 A 
ATOM     12  C   UNL     1       0.440   9.751  20.212  0.00  0.00    +0.000 A 
ATOM     13  C   UNL     1       0.760  10.045  18.892  0.00  0.00    +0.000 A 
ATOM     14  C   UNL     1       1.617   9.200  18.180  0.00  0.00    +0.000 A 
BRANCH  12  15
ATOM     15  O   UNL     1      -0.420  10.590  20.858  0.00  0.00    +0.000 OA
ATOM     16  H   UNL     1      -0.794  11.212  20.213  0.00  0.00    +0.000 HD
ENDBRANCH  12  15
ENDBRANCH   8   9
ENDBRANCH   4   7
ENDBRANCH   2   5
ENDBRANCH   1   2
BRANCH   1  17
ATOM     17  C   UNL     1       7.044   5.004  17.909  0.00  0.00    +0.000 C 
BRANCH  17  18
ATOM     18  N   UNL     1       7.900   6.183  17.982  0.00  0.00    +0.000 N 
ATOM     19  C   UNL     1       7.420   7.450  17.727  0.00  0.00    +0.000 C 
ATOM     20  O   UNL     1       6.245   7.696  17.496  0.00  0.00    +0.000 OA
ATOM     21  H   UNL     1       8.886   6.045  18.158  0.00  0.00    +0.000 HD
BRANCH  19  22
ATOM     22  C   UNL     1       8.466   8.506  17.767  0.00  0.00    +0.000 C 
ATOM     23  C   UNL     1       8.155   9.734  18.212  0.00  0.00    +0.000 C 
BRANCH  23  24
ATOM     24  C   UNL     1       9.107  10.853  18.294  0.00  0.00    +0.000 A 
ATOM     25  C   UNL     1       8.786  12.078  17.687  0.00  0.00    +0.000 A 
ATOM     26  C   UNL     1       9.665  13.169  17.765  0.00  0.00    +0.000 A 
ATOM     27  C   UNL     1      10.861  13.035  18.460  0.00  0.00    +0.000 A 
ATOM     28  C   UNL     1      11.186  11.839  19.085  0.00  0.00    +0.000 A 
ATOM     29  C   UNL     1      10.310  10.755  19.009  0.00  0.00    +0.000 A 
BRANCH  27  30
ATOM     30  O   UNL     1      11.749  14.064  18.562  0.00  0.00    +0.000 OA
ATOM     31  H   UNL     1      11.733  14.574  17.736  0.00  0.00    +0.000 HD
ENDBRANCH  27  30
ENDBRANCH  23  24
ENDBRANCH  19  22
ENDBRANCH  17  18
ENDBRANCH   1  17
TORSDOF 10
ENDMDL
MODEL 7
REMARK VINA RESULT:      -7.3      2.227      2.447
REMARK  Name = 
REMARK  10 active torsions:
REMARK  status: ('A' for Active; 'I' for Inactive)
REMARK    1  A    between atoms: C_2  and  C_3
REMARK    2  A    between atoms: C_4  and  C_5
REMARK    3  A    between atoms: C_8  and  O_9
REMARK    4  A    between atoms: N_12  and  C_13
REMARK    5  A    between atoms: C_13  and  C_14
REMARK    6  A    between atoms: C_14  and  C_15
REMARK    7  A    between atoms: C_15  and  N_16
REMARK    8  A    between atoms: C_17  and  C_19
REMARK    9  A    between atoms: C_20  and  C_21
REMARK   10  A    between atoms: C_24  and  O_25
REMARK                            x       y       z     vdW  Elec       q    Type
REMARK                         _______ _______ _______ _____ _____    ______ ____
ROOT
ATOM      1  C   UNL     1       5.811   5.330  17.514  0.00  0.00    +0.000 C 
ENDROOT
BRANCH   1   2
ATOM      2  C   UNL     1       6.971   5.752  16.602  0.00  0.00    +0.000 C 
BRANCH   2   5
ATOM      3  O   UNL     1       8.231   6.831  18.915  0.00  0.00    +0.000 OA
ATOM      4  C   UNL     1       7.969   7.563  17.971  0.00  0.00    +0.000 C 
ATOM      5  N   UNL     1       7.376   7.140  16.803  0.00  0.00    +0.000 N 
ATOM      6  H   UNL     1       7.151   7.813  16.085  0.00  0.00    +0.000 HD
BRANCH   4   7
ATOM      7  C   UNL     1       8.270   9.023  17.976  0.00  0.00    +0.000 C 
ATOM      8  C   UNL     1       9.040   9.570  18.933  0.00  0.00    +0.000 C 
BRANCH   8   9
ATOM      9  C   UNL     1       9.370  10.999  18.929  0.00  0.00    +0.000 A 
ATOM     10  C   UNL     1      10.167  11.554  19.939  0.00  0.00    +0.000 A 
ATOM     11  C   UNL     1      10.438  12.928  19.957  0.00  0.00    +0.000 A 
ATOM     12  C   UNL     1       9.913  13.743  18.959  0.00  0.00    +0.000 A 
ATOM     13  C   UNL     1       9.140  13.204  17.937  0.00  0.00    +0.000 A 
ATOM     14  C   UNL     1       8.868  11.833  17.921  0.00  0.00    +0.000 A 
BRANCH  12  15
ATOM     15  O   UNL     1      10.130  15.089  18.948  0.00  0.00    +0.000 OA
ATOM     16  H   UNL     1       9.701  15.469  18.164  0.00  0.00    +0.000 HD
ENDBRANCH  12  15
ENDBRANCH   8   9
ENDBRANCH   4   7
ENDBRANCH   2   5
ENDBRANCH   1   2
BRANCH   1  17
ATOM     17  C   UNL     1       4.446   5.638  16.883  0.00  0.00    +0.000 C 
BRANCH  17  18
ATOM     18  N   UNL     1       3.835   6.851  17.415  0.00  0.00    +0.000 N 
ATOM     19  C   UNL     1       2.795   6.807  18.319  0.00  0.00    +0.000 C 
ATOM     20  O   UNL     1       2.357   5.772  18.798  0.00  0.00    +0.000 OA
ATOM     21  H   UNL     1       4.146   7.741  17.050  0.00  0.00    +0.000 HD
BRANCH  19  22
ATOM     22  C   UNL     1       2.253   8.146  18.673  0.00  0.00    +0.000 C 
ATOM     23  C   UNL     1       1.296   8.699  17.912  0.00  0.00    +0.000 C 
BRANCH  23  24
ATOM     24  C   UNL     1       0.689  10.016  18.167  0.00  0.00    +0.000 A 
ATOM     25  C   UNL     1      -0.697  10.178  18.014  0.00  0.00    +0.000 A 
ATOM     26  C   UNL     1      -1.307  11.415  18.269  0.00  0.00    +0.000 A 
ATOM     27  C   UNL     1      -0.528  12.488  18.687  0.00  0.00    +0.000 A 
ATOM     28  C   UNL     1       0.841  12.342  18.864  0.00  0.00    +0.000 A 
ATOM     29  C   UNL     1       1.447  11.109  18.613  0.00  0.00    +0.000 A 
BRANCH  27  30
ATOM     30  O   UNL     1      -1.072  13.710  18.944  0.00  0.00    +0.000 OA
ATOM     31  H   UNL     1      -1.113  13.839  19.905  0.00  0.00    +0.000 HD
ENDBRANCH  27  30
ENDBRANCH  23  24
ENDBRANCH  19  22
ENDBRANCH  17  18
ENDBRANCH   1  17
TORSDOF 10
ENDMDL
MODEL 8
REMARK VINA RESULT:      -7.2      1.791      2.380
REMARK  Name = 
REMARK  10 active torsions:
REMARK  status: ('A' for Active; 'I' for Inactive)
REMARK    1  A    between atoms: C_2  and  C_3
REMARK    2  A    between atoms: C_4  and  C_5
REMARK    3  A    between atoms: C_8  and  O_9
REMARK    4  A    between atoms: N_12  and  C_13
REMARK    5  A    between atoms: C_13  and  C_14
REMARK    6  A    between atoms: C_14  and  C_15
REMARK    7  A    between atoms: C_15  and  N_16
REMARK    8  A    between atoms: C_17  and  C_19
REMARK    9  A    between atoms: C_20  and  C_21
REMARK   10  A    between atoms: C_24  and  O_25
REMARK                            x       y       z     vdW  Elec       q    Type
REMARK                         _______ _______ _______ _____ _____    ______ ____
ROOT
ATOM      1  C   UNL     1       4.244   4.512  18.302  0.00  0.00    +0.000 C 
ENDROOT
BRANCH   1   2
ATOM      2  C   UNL     1       5.674   4.734  17.791  0.00  0.00    +0.000 C 
BRANCH   2   5
ATOM      3  O   UNL     1       7.554   6.080  16.131  0.00  0.00    +0.000 OA
ATOM      4  C   UNL     1       7.047   6.672  17.075  0.00  0.00    +0.000 C 
ATOM      5  N   UNL     1       6.117   6.118  17.926  0.00  0.00    +0.000 N 
ATOM      6  H   UNL     1       5.776   6.656  18.710  0.00  0.00    +0.000 HD
BRANCH   4   7
ATOM      7  C   UNL     1       7.379   8.085  17.413  0.00  0.00    +0.000 C 
ATOM      8  C   UNL     1       8.400   8.381  18.235  0.00  0.00    +0.000 C 
BRANCH   8   9
ATOM      9  C   UNL     1       8.757   9.768  18.548  0.00  0.00    +0.000 A 
ATOM     10  C   UNL     1       8.464  10.805  17.651  0.00  0.00    +0.000 A 
ATOM     11  C   UNL     1       8.852  12.120  17.934  0.00  0.00    +0.000 A 
ATOM     12  C   UNL     1       9.530  12.395  19.117  0.00  0.00    +0.000 A 
ATOM     13  C   UNL     1       9.808  11.383  20.028  0.00  0.00    +0.000 A 
ATOM     14  C   UNL     1       9.422  10.069  19.744  0.00  0.00    +0.000 A 
BRANCH  12  15
ATOM     15  O   UNL     1       9.948  13.657  19.423  0.00  0.00    +0.000 OA
ATOM     16  H   UNL     1      10.492  13.992  18.692  0.00  0.00    +0.000 HD
ENDBRANCH  12  15
ENDBRANCH   8   9
ENDBRANCH   4   7
ENDBRANCH   2   5
ENDBRANCH   1   2
BRANCH   1  17
ATOM     17  C   UNL     1       3.879   5.494  19.425  0.00  0.00    +0.000 C 
BRANCH  17  18
ATOM     18  N   UNL     1       2.672   6.260  19.140  0.00  0.00    +0.000 N 
ATOM     19  C   UNL     1       2.696   7.394  18.356  0.00  0.00    +0.000 C 
ATOM     20  O   UNL     1       3.696   7.801  17.784  0.00  0.00    +0.000 OA
ATOM     21  H   UNL     1       1.812   5.981  19.593  0.00  0.00    +0.000 HD
BRANCH  19  22
ATOM     22  C   UNL     1       1.381   8.081  18.256  0.00  0.00    +0.000 C 
ATOM     23  C   UNL     1       1.249   9.335  18.717  0.00  0.00    +0.000 C 
BRANCH  23  24
ATOM     24  C   UNL     1      -0.003  10.109  18.671  0.00  0.00    +0.000 A 
ATOM     25  C   UNL     1      -0.264  11.057  19.674  0.00  0.00    +0.000 A 
ATOM     26  C   UNL     1      -1.439  11.823  19.646  0.00  0.00    +0.000 A 
ATOM     27  C   UNL     1      -2.347  11.647  18.609  0.00  0.00    +0.000 A 
ATOM     28  C   UNL     1      -2.096  10.730  17.598  0.00  0.00    +0.000 A 
ATOM     29  C   UNL     1      -0.926   9.969  17.624  0.00  0.00    +0.000 A 
BRANCH  27  30
ATOM     30  O   UNL     1      -3.503  12.364  18.540  0.00  0.00    +0.000 OA
ATOM     31  H   UNL     1      -4.002  12.234  19.363  0.00  0.00    +0.000 HD
ENDBRANCH  27  30
ENDBRANCH  23  24
ENDBRANCH  19  22
ENDBRANCH  17  18
ENDBRANCH   1  17
TORSDOF 10
ENDMDL
MODEL 9
REMARK VINA RESULT:      -7.2      1.285      1.697
REMARK  Name = 
REMARK  10 active torsions:
REMARK  status: ('A' for Active; 'I' for Inactive)
REMARK    1  A    between atoms: C_2  and  C_3
REMARK    2  A    between atoms: C_4  and  C_5
REMARK    3  A    between atoms: C_8  and  O_9
REMARK    4  A    between atoms: N_12  and  C_13
REMARK    5  A    between atoms: C_13  and  C_14
REMARK    6  A    between atoms: C_14  and  C_15
REMARK    7  A    between atoms: C_15  and  N_16
REMARK    8  A    between atoms: C_17  and  C_19
REMARK    9  A    between atoms: C_20  and  C_21
REMARK   10  A    between atoms: C_24  and  O_25
REMARK                            x       y       z     vdW  Elec       q    Type
REMARK                         _______ _______ _______ _____ _____    ______ ____
ROOT
ATOM      1  C   UNL     1       5.070   4.331  18.755  0.00  0.00    +0.000 C 
ENDROOT
BRANCH   1   2
ATOM      2  C   UNL     1       5.694   5.194  17.649  0.00  0.00    +0.000 C 
BRANCH   2   5
ATOM      3  O   UNL     1       7.725   6.655  16.292  0.00  0.00    +0.000 OA
ATOM      4  C   UNL     1       7.419   6.964  17.436  0.00  0.00    +0.000 C 
ATOM      5  N   UNL     1       6.441   6.334  18.172  0.00  0.00    +0.000 N 
ATOM      6  H   UNL     1       6.274   6.618  19.127  0.00  0.00    +0.000 HD
BRANCH   4   7
ATOM      7  C   UNL     1       8.076   8.080  18.173  0.00  0.00    +0.000 C 
ATOM      8  C   UNL     1       8.176   9.306  17.631  0.00  0.00    +0.000 C 
BRANCH   8   9
ATOM      9  C   UNL     1       8.791  10.420  18.361  0.00  0.00    +0.000 A 
ATOM     10  C   UNL     1       8.744  11.725  17.851  0.00  0.00    +0.000 A 
ATOM     11  C   UNL     1       9.376  12.775  18.529  0.00  0.00    +0.000 A 
ATOM     12  C   UNL     1      10.051  12.517  19.717  0.00  0.00    +0.000 A 
ATOM     13  C   UNL     1      10.087  11.233  20.248  0.00  0.00    +0.000 A 
ATOM     14  C   UNL     1       9.458  10.184  19.571  0.00  0.00    +0.000 A 
BRANCH  12  15
ATOM     15  O   UNL     1      10.700  13.504  20.398  0.00  0.00    +0.000 OA
ATOM     16  H   UNL     1      10.572  14.344  19.929  0.00  0.00    +0.000 HD
ENDBRANCH  12  15
ENDBRANCH   8   9
ENDBRANCH   4   7
ENDBRANCH   2   5
ENDBRANCH   1   2
BRANCH   1  17
ATOM     17  C   UNL     1       3.549   4.515  18.834  0.00  0.00    +0.000 C 
BRANCH  17  18
ATOM     18  N   UNL     1       3.161   5.780  19.448  0.00  0.00    +0.000 N 
ATOM     19  C   UNL     1       2.050   5.887  20.258  0.00  0.00    +0.000 C 
ATOM     20  O   UNL     1       1.355   4.936  20.584  0.00  0.00    +0.000 OA
ATOM     21  H   UNL     1       3.690   6.607  19.209  0.00  0.00    +0.000 HD
BRANCH  19  22
ATOM     22  C   UNL     1       1.775   7.274  20.716  0.00  0.00    +0.000 C 
ATOM     23  C   UNL     1       0.509   7.661  20.946  0.00  0.00    +0.000 C 
BRANCH  23  24
ATOM     24  C   UNL     1       0.121   9.006  21.398  0.00  0.00    +0.000 A 
ATOM     25  C   UNL     1      -0.400   9.175  22.692  0.00  0.00    +0.000 A 
ATOM     26  C   UNL     1      -0.760  10.448  23.158  0.00  0.00    +0.000 A 
ATOM     27  C   UNL     1      -0.589  11.553  22.333  0.00  0.00    +0.000 A 
ATOM     28  C   UNL     1      -0.056  11.409  21.059  0.00  0.00    +0.000 A 
ATOM     29  C   UNL     1       0.305  10.142  20.596  0.00  0.00    +0.000 A 
BRANCH  27  30
ATOM     30  O   UNL     1      -0.927  12.809  22.739  0.00  0.00    +0.000 OA
ATOM     31  H   UNL     1      -1.577  12.742  23.457  0.00  0.00    +0.000 HD
ENDBRANCH  27  30
ENDBRANCH  23  24
ENDBRANCH  19  22
ENDBRANCH  17  18
ENDBRANCH   1  17
TORSDOF 10
ENDMDL
