MODEL 1
REMARK VINA RESULT:      -4.4      0.000      0.000
REMARK  Name = 
REMARK  2 active torsions:
REMARK  status: ('A' for Active; 'I' for Inactive)
REMARK    1  A    between atoms: C_2  and  OXT_3
REMARK    2  A    between atoms: C_2  and  CA_4
REMARK                            x       y       z     vdW  Elec       q    Type
REMARK                         _______ _______ _______ _____ _____    ______ ____
ROOT
ATOM      1  CA  UNL     1       5.847   4.639  17.505  0.00  0.00    +0.000 C 
ATOM      2  C   UNL     1       5.224   5.953  17.950  0.00  0.00    +0.000 C 
ATOM      3 SE   UNL     1       3.751   5.441  19.100  0.00  0.00    +0.000 Se
ATOM      4  C   UNL     1       4.640   3.712  19.292  0.00  0.00    +0.000 C 
ATOM      5  N   UNL     1       5.973   3.809  18.697  0.00  0.00    +0.000 NA
ATOM      6  H   UNL     1       6.321   2.852  18.453  0.00  0.00    +0.000 HD
ENDROOT
BRANCH   1   8
ATOM      7  O   UNL     1       8.148   4.186  17.202  0.00  0.00    +0.000 OA
ATOM      8  C   UNL     1       7.188   4.850  16.846  0.00  0.00    +0.000 C 
BRANCH   8   9
ATOM      9  OXT UNL     1       7.351   5.775  15.875  0.00  0.00    +0.000 OA
ATOM     10  HXT UNL     1       7.205   6.718  16.036  0.00  0.00    +0.000 HD
ENDBRANCH   8   9
ENDBRANCH   1   8
TORSDOF 2
ENDMDL
MODEL 2
REMARK VINA RESULT:      -4.3      0.590      1.256
REMARK  Name = 
REMARK  2 active torsions:
REMARK  status: ('A' for Active; 'I' for Inactive)
REMARK    1  A    between atoms: C_2  and  OXT_3
REMARK    2  A    between atoms: C_2  and  CA_4
REMARK                            x       y       z     vdW  Elec       q    Type
REMARK                         _______ _______ _______ _____ _____    ______ ____
ROOT
ATOM      1  CA  UNL     1       5.784   4.424  17.316  0.00  0.00    +0.000 C 
ATOM      2  C   UNL     1       4.907   5.666  17.337  0.00  0.00    +0.000 C 
ATOM      3 SE   UNL     1       3.239   5.085  18.133  0.00  0.00    +0.000 Se
ATOM      4  C   UNL     1       4.236   3.571  18.861  0.00  0.00    +0.000 C 
ATOM      5  N   UNL     1       5.663   3.802  18.630  0.00  0.00    +0.000 NA
ATOM      6  H   UNL     1       6.177   2.891  18.663  0.00  0.00    +0.000 HD
ENDROOT
BRANCH   1   8
ATOM      7  O   UNL     1       7.477   5.643  16.203  0.00  0.00    +0.000 OA
ATOM      8  C   UNL     1       7.222   4.759  17.005  0.00  0.00    +0.000 C 
BRANCH   8   9
ATOM      9  OXT UNL     1       8.238   4.086  17.589  0.00  0.00    +0.000 OA
ATOM     10  HXT UNL     1       9.109   4.013  17.175  0.00  0.00    +0.000 HD
ENDBRANCH   8   9
ENDBRANCH   1   8
TORSDOF 2
ENDMDL
MODEL 3
REMARK VINA RESULT:      -4.2      1.167      1.617
REMARK  Name = 
REMARK  2 active torsions:
REMARK  status: ('A' for Active; 'I' for Inactive)
REMARK    1  A    between atoms: C_2  and  OXT_3
REMARK    2  A    between atoms: C_2  and  CA_4
REMARK                            x       y       z     vdW  Elec       q    Type
REMARK                         _______ _______ _______ _____ _____    ______ ____
ROOT
ATOM      1  CA  UNL     1       5.724   4.750  17.235  0.00  0.00    +0.000 C 
ATOM      2  C   UNL     1       5.640   4.925  18.743  0.00  0.00    +0.000 C 
ATOM      3 SE   UNL     1       3.846   4.365  19.211  0.00  0.00    +0.000 Se
ATOM      4  C   UNL     1       3.809   3.418  17.503  0.00  0.00    +0.000 C 
ATOM      5  N   UNL     1       5.157   3.440  16.932  0.00  0.00    +0.000 NA
ATOM      6  H   UNL     1       5.105   3.284  15.899  0.00  0.00    +0.000 HD
ENDROOT
BRANCH   1   8
ATOM      7  O   UNL     1       7.407   5.610  15.815  0.00  0.00    +0.000 OA
ATOM      8  C   UNL     1       7.144   4.855  16.736  0.00  0.00    +0.000 C 
BRANCH   8   9
ATOM      9  OXT UNL     1       8.132   4.113  17.283  0.00  0.00    +0.000 OA
ATOM     10  HXT UNL     1       8.598   4.392  18.084  0.00  0.00    +0.000 HD
ENDBRANCH   8   9
ENDBRANCH   1   8
TORSDOF 2
ENDMDL
MODEL 4
REMARK VINA RESULT:      -4.2      1.206      1.248
REMARK  Name = 
REMARK  2 active torsions:
REMARK  status: ('A' for Active; 'I' for Inactive)
REMARK    1  A    between atoms: C_2  and  OXT_3
REMARK    2  A    between atoms: C_2  and  CA_4
REMARK                            x       y       z     vdW  Elec       q    Type
REMARK                         _______ _______ _______ _____ _____    ______ ____
ROOT
ATOM      1  CA  UNL     1       5.789   4.679  17.238  0.00  0.00    +0.000 C 
ATOM      2  C   UNL     1       5.763   4.745  18.757  0.00  0.00    +0.000 C 
ATOM      3 SE   UNL     1       3.991   4.139  19.253  0.00  0.00    +0.000 Se
ATOM      4  C   UNL     1       3.892   3.317  17.483  0.00  0.00    +0.000 C 
ATOM      5  N   UNL     1       5.216   3.390  16.864  0.00  0.00    +0.000 NA
ATOM      6  H   UNL     1       5.125   3.308  15.825  0.00  0.00    +0.000 HD
ENDROOT
BRANCH   1   8
ATOM      7  O   UNL     1       8.107   4.216  17.213  0.00  0.00    +0.000 OA
ATOM      8  C   UNL     1       7.188   4.829  16.694  0.00  0.00    +0.000 C 
BRANCH   8   9
ATOM      9  OXT UNL     1       7.447   5.646  15.649  0.00  0.00    +0.000 OA
ATOM     10  HXT UNL     1       8.339   5.749  15.289  0.00  0.00    +0.000 HD
ENDBRANCH   8   9
ENDBRANCH   1   8
TORSDOF 2
ENDMDL
MODEL 5
REMARK VINA RESULT:      -4.2      2.311      2.815
REMARK  Name = 
REMARK  2 active torsions:
REMARK  status: ('A' for Active; 'I' for Inactive)
REMARK    1  A    between atoms: C_2  and  OXT_3
REMARK    2  A    between atoms: C_2  and  CA_4
REMARK                            x       y       z     vdW  Elec       q    Type
REMARK                         _______ _______ _______ _____ _____    ______ ____
ROOT
ATOM      1  CA  UNL     1       7.127   4.846  16.365  0.00  0.00    +0.000 C 
ATOM      2  C   UNL     1       5.825   4.509  17.075  0.00  0.00    +0.000 C 
ATOM      3 SE   UNL     1       6.023   5.244  18.856  0.00  0.00    +0.000 Se
ATOM      4  C   UNL     1       7.430   6.380  18.116  0.00  0.00    +0.000 C 
ATOM      5  N   UNL     1       7.416   6.246  16.659  0.00  0.00    +0.000 NA
ATOM      6  H   UNL     1       8.346   6.527  16.270  0.00  0.00    +0.000 HD
ENDROOT
BRANCH   1   8
ATOM      7  O   UNL     1       7.570   5.392  14.108  0.00  0.00    +0.000 OA
ATOM      8  C   UNL     1       7.032   4.613  14.877  0.00  0.00    +0.000 C 
BRANCH   8   9
ATOM      9  OXT UNL     1       6.346   3.561  14.378  0.00  0.00    +0.000 OA
ATOM     10  HXT UNL     1       5.408   3.623  14.152  0.00  0.00    +0.000 HD
ENDBRANCH   8   9
ENDBRANCH   1   8
TORSDOF 2
ENDMDL
MODEL 6
REMARK VINA RESULT:      -4.1      3.368      4.081
REMARK  Name = 
REMARK  2 active torsions:
REMARK  status: ('A' for Active; 'I' for Inactive)
REMARK    1  A    between atoms: C_2  and  OXT_3
REMARK    2  A    between atoms: C_2  and  CA_4
REMARK                            x       y       z     vdW  Elec       q    Type
REMARK                         _______ _______ _______ _____ _____    ______ ____
ROOT
ATOM      1  CA  UNL     1       3.967   3.282  18.538  0.00  0.00    +0.000 C 
ATOM      2  C   UNL     1       3.997   3.754  17.093  0.00  0.00    +0.000 C 
ATOM      3 SE   UNL     1       5.044   5.383  17.122  0.00  0.00    +0.000 Se
ATOM      4  C   UNL     1       5.762   4.766  18.831  0.00  0.00    +0.000 C 
ATOM      5  N   UNL     1       5.332   3.383  19.042  0.00  0.00    +0.000 NA
ATOM      6  H   UNL     1       5.375   3.152  20.061  0.00  0.00    +0.000 HD
ENDROOT
BRANCH   1   8
ATOM      7  O   UNL     1       2.279   1.678  18.950  0.00  0.00    +0.000 OA
ATOM      8  C   UNL     1       3.448   1.870  18.656  0.00  0.00    +0.000 C 
BRANCH   8   9
ATOM      9  OXT UNL     1       4.261   0.809  18.458  0.00  0.00    +0.000 OA
ATOM     10  HXT UNL     1       4.532   0.530  17.572  0.00  0.00    +0.000 HD
ENDBRANCH   8   9
ENDBRANCH   1   8
TORSDOF 2
ENDMDL
MODEL 7
REMARK VINA RESULT:      -4.1      3.143      4.032
REMARK  Name = 
REMARK  2 active torsions:
REMARK  status: ('A' for Active; 'I' for Inactive)
REMARK    1  A    between atoms: C_2  and  OXT_3
REMARK    2  A    between atoms: C_2  and  CA_4
REMARK                            x       y       z     vdW  Elec       q    Type
REMARK                         _______ _______ _______ _____ _____    ______ ____
ROOT
ATOM      1  CA  UNL     1       4.619   3.638  18.947  0.00  0.00    +0.000 C 
ATOM      2  C   UNL     1       4.103   3.303  17.556  0.00  0.00    +0.000 C 
ATOM      3 SE   UNL     1       4.916   4.622  16.392  0.00  0.00    +0.000 Se
ATOM      4  C   UNL     1       6.236   4.901  17.806  0.00  0.00    +0.000 C 
ATOM      5  N   UNL     1       6.055   3.861  18.820  0.00  0.00    +0.000 NA
ATOM      6  H   UNL     1       6.467   4.179  19.728  0.00  0.00    +0.000 HD
ENDROOT
BRANCH   1   8
ATOM      7  O   UNL     1       3.307   2.576  20.603  0.00  0.00    +0.000 OA
ATOM      8  C   UNL     1       4.327   2.534  19.933  0.00  0.00    +0.000 C 
BRANCH   8   9
ATOM      9  OXT UNL     1       5.184   1.503  20.102  0.00  0.00    +0.000 OA
ATOM     10  HXT UNL     1       5.739   1.176  19.380  0.00  0.00    +0.000 HD
ENDBRANCH   8   9
ENDBRANCH   1   8
TORSDOF 2
ENDMDL
MODEL 8
REMARK VINA RESULT:      -4.1      2.417      2.768
REMARK  Name = 
REMARK  2 active torsions:
REMARK  status: ('A' for Active; 'I' for Inactive)
REMARK    1  A    between atoms: C_2  and  OXT_3
REMARK    2  A    between atoms: C_2  and  CA_4
REMARK                            x       y       z     vdW  Elec       q    Type
REMARK                         _______ _______ _______ _____ _____    ______ ____
ROOT
ATOM      1  CA  UNL     1       6.464   4.339  15.814  0.00  0.00    +0.000 C 
ATOM      2  C   UNL     1       5.360   5.305  16.215  0.00  0.00    +0.000 C 
ATOM      3 SE   UNL     1       5.471   5.417  18.145  0.00  0.00    +0.000 Se
ATOM      4  C   UNL     1       7.294   4.734  17.974  0.00  0.00    +0.000 C 
ATOM      5  N   UNL     1       7.657   4.733  16.557  0.00  0.00    +0.000 NA
ATOM      6  H   UNL     1       8.440   4.058  16.394  0.00  0.00    +0.000 HD
ENDROOT
BRANCH   1   8
ATOM      7  O   UNL     1       7.323   5.302  13.832  0.00  0.00    +0.000 OA
ATOM      8  C   UNL     1       6.718   4.364  14.327  0.00  0.00    +0.000 C 
BRANCH   8   9
ATOM      9  OXT UNL     1       6.274   3.370  13.526  0.00  0.00    +0.000 OA
ATOM     10  HXT UNL     1       6.746   3.110  12.723  0.00  0.00    +0.000 HD
ENDBRANCH   8   9
ENDBRANCH   1   8
TORSDOF 2
ENDMDL
MODEL 9
REMARK VINA RESULT:      -4.1      2.297      2.699
REMARK  Name = 
REMARK  2 active torsions:
REMARK  status: ('A' for Active; 'I' for Inactive)
REMARK    1  A    between atoms: C_2  and  OXT_3
REMARK    2  A    between atoms: C_2  and  CA_4
REMARK                            x       y       z     vdW  Elec       q    Type
REMARK                         _______ _______ _______ _____ _____    ______ ____
ROOT
ATOM      1  CA  UNL     1       7.132   4.889  16.414  0.00  0.00    +0.000 C 
ATOM      2  C   UNL     1       5.843   4.546  17.143  0.00  0.00    +0.000 C 
ATOM      3 SE   UNL     1       6.073   5.267  18.927  0.00  0.00    +0.000 Se
ATOM      4  C   UNL     1       7.467   6.408  18.172  0.00  0.00    +0.000 C 
ATOM      5  N   UNL     1       7.426   6.286  16.714  0.00  0.00    +0.000 NA
ATOM      6  H   UNL     1       8.349   6.570  16.310  0.00  0.00    +0.000 HD
ENDROOT
BRANCH   1   8
ATOM      7  O   UNL     1       6.293   3.774  14.504  0.00  0.00    +0.000 OA
ATOM      8  C   UNL     1       7.009   4.668  14.926  0.00  0.00    +0.000 C 
BRANCH   8   9
ATOM      9  OXT UNL     1       7.693   5.434  14.048  0.00  0.00    +0.000 OA
ATOM     10  HXT UNL     1       7.260   6.124  13.525  0.00  0.00    +0.000 HD
ENDBRANCH   8   9
ENDBRANCH   1   8
TORSDOF 2
ENDMDL
