MODEL 1
REMARK VINA RESULT:      -7.0      0.000      0.000
REMARK  Name = 
REMARK  6 active torsions:
REMARK  status: ('A' for Active; 'I' for Inactive)
REMARK    1  A    between atoms: C_1  and  C_2
REMARK    2  A    between atoms: C_2  and  C_3
REMARK    3  A    between atoms: C_3  and  C_4
REMARK    4  A    between atoms: C_4  and  C_5
REMARK    5  A    between atoms: C_8  and  C_9
REMARK    6  A    between atoms: C_10  and  C_11
REMARK                            x       y       z     vdW  Elec       q    Type
REMARK                         _______ _______ _______ _____ _____    ______ ____
ROOT
ATOM      1  C   UNL     1       3.370   5.730  18.969  0.00  0.00    +0.000 C 
ATOM      2  C   UNL     1       4.535   5.538  18.012  0.00  0.00    +0.000 C 
ATOM      3  O   UNL     1       5.388   6.381  17.779  0.00  0.00    +0.000 OA
ATOM      4  C   UNL     1       4.494   4.231  17.338  0.00  0.00    +0.000 C 
ATOM      5  C   UNL     1       5.433   3.828  16.266  0.00  0.00    +0.000 C 
ATOM      6  C   UNL     1       3.513   3.539  17.930  0.00  0.00    +0.000 C 
ATOM      7  C   UNL     1       3.152   2.122  17.611  0.00  0.00    +0.000 C 
ATOM      8  C   UNL     1       2.820   4.284  19.052  0.00  0.00    +0.000 C 
ATOM      9  C   UNL     1       1.312   4.060  19.070  0.00  0.00    +0.000 C 
ATOM     10  C   UNL     1       0.973   3.667  20.488  0.00  0.00    +0.000 C 
ATOM     11  C   UNL     1       2.296   3.408  21.125  0.00  0.00    +0.000 C 
ATOM     12  O   UNL     1       2.455   2.984  22.258  0.00  0.00    +0.000 OA
ATOM     13  O   UNL     1       3.310   3.699  20.274  0.00  0.00    +0.000 OA
ENDROOT
BRANCH   1  14
ATOM     14  C   UNL     1       2.495   6.849  18.377  0.00  0.00    +0.000 C 
BRANCH  14  15
ATOM     15  C   UNL     1       2.078   7.986  19.318  0.00  0.00    +0.000 C 
BRANCH  15  17
ATOM     16  C   UNL     1       0.654   8.502  21.304  0.00  0.00    +0.000 C 
ATOM     17  C   UNL     1       1.674   7.539  20.720  0.00  0.00    +0.000 C 
ENDBRANCH  15  17
ENDBRANCH  14  15
ENDBRANCH   1  14
TORSDOF 3
ENDMDL
MODEL 2
REMARK VINA RESULT:      -6.9      0.626      1.064
REMARK  Name = 
REMARK  6 active torsions:
REMARK  status: ('A' for Active; 'I' for Inactive)
REMARK    1  A    between atoms: C_1  and  C_2
REMARK    2  A    between atoms: C_2  and  C_3
REMARK    3  A    between atoms: C_3  and  C_4
REMARK    4  A    between atoms: C_4  and  C_5
REMARK    5  A    between atoms: C_8  and  C_9
REMARK    6  A    between atoms: C_10  and  C_11
REMARK                            x       y       z     vdW  Elec       q    Type
REMARK                         _______ _______ _______ _____ _____    ______ ____
ROOT
ATOM      1  C   UNL     1       3.476   5.655  19.100  0.00  0.00    +0.000 C 
ATOM      2  C   UNL     1       4.578   5.482  18.067  0.00  0.00    +0.000 C 
ATOM      3  O   UNL     1       5.467   6.294  17.858  0.00  0.00    +0.000 OA
ATOM      4  C   UNL     1       4.426   4.242  17.291  0.00  0.00    +0.000 C 
ATOM      5  C   UNL     1       5.284   3.882  16.138  0.00  0.00    +0.000 C 
ATOM      6  C   UNL     1       3.437   3.556  17.877  0.00  0.00    +0.000 C 
ATOM      7  C   UNL     1       2.977   2.194  17.463  0.00  0.00    +0.000 C 
ATOM      8  C   UNL     1       2.847   4.239  19.094  0.00  0.00    +0.000 C 
ATOM      9  C   UNL     1       1.331   4.097  19.177  0.00  0.00    +0.000 C 
ATOM     10  C   UNL     1       1.041   3.603  20.574  0.00  0.00    +0.000 C 
ATOM     11  C   UNL     1       2.377   3.219  21.113  0.00  0.00    +0.000 C 
ATOM     12  O   UNL     1       2.568   2.692  22.197  0.00  0.00    +0.000 OA
ATOM     13  O   UNL     1       3.362   3.526  20.234  0.00  0.00    +0.000 OA
ENDROOT
BRANCH   1  14
ATOM     14  C   UNL     1       2.640   6.867  18.652  0.00  0.00    +0.000 C 
BRANCH  14  15
ATOM     15  C   UNL     1       2.002   7.725  19.751  0.00  0.00    +0.000 C 
BRANCH  15  17
ATOM     16  C   UNL     1       1.824   9.316  17.834  0.00  0.00    +0.000 C 
ATOM     17  C   UNL     1       1.396   9.038  19.266  0.00  0.00    +0.000 C 
ENDBRANCH  15  17
ENDBRANCH  14  15
ENDBRANCH   1  14
TORSDOF 3
ENDMDL
MODEL 3
REMARK VINA RESULT:      -6.9      2.270      3.867
REMARK  Name = 
REMARK  6 active torsions:
REMARK  status: ('A' for Active; 'I' for Inactive)
REMARK    1  A    between atoms: C_1  and  C_2
REMARK    2  A    between atoms: C_2  and  C_3
REMARK    3  A    between atoms: C_3  and  C_4
REMARK    4  A    between atoms: C_4  and  C_5
REMARK    5  A    between atoms: C_8  and  C_9
REMARK    6  A    between atoms: C_10  and  C_11
REMARK                            x       y       z     vdW  Elec       q    Type
REMARK                         _______ _______ _______ _____ _____    ______ ____
ROOT
ATOM      1  C   UNL     1       3.210   5.300  17.755  0.00  0.00    +0.000 C 
ATOM      2  C   UNL     1       2.122   4.239  17.784  0.00  0.00    +0.000 C 
ATOM      3  O   UNL     1       1.057   4.321  17.192  0.00  0.00    +0.000 OA
ATOM      4  C   UNL     1       2.465   3.112  18.665  0.00  0.00    +0.000 C 
ATOM      5  C   UNL     1       1.537   2.001  18.979  0.00  0.00    +0.000 C 
ATOM      6  C   UNL     1       3.738   3.303  19.032  0.00  0.00    +0.000 C 
ATOM      7  C   UNL     1       4.533   2.362  19.883  0.00  0.00    +0.000 C 
ATOM      8  C   UNL     1       4.377   4.539  18.435  0.00  0.00    +0.000 C 
ATOM      9  C   UNL     1       5.273   5.279  19.421  0.00  0.00    +0.000 C 
ATOM     10  C   UNL     1       6.583   5.496  18.702  0.00  0.00    +0.000 C 
ATOM     11  C   UNL     1       6.480   4.641  17.484  0.00  0.00    +0.000 C 
ATOM     12  O   UNL     1       7.374   4.471  16.672  0.00  0.00    +0.000 OA
ATOM     13  O   UNL     1       5.255   4.066  17.397  0.00  0.00    +0.000 OA
ENDROOT
BRANCH   1  14
ATOM     14  C   UNL     1       2.621   6.554  18.423  0.00  0.00    +0.000 C 
BRANCH  14  15
ATOM     15  C   UNL     1       2.975   7.912  17.804  0.00  0.00    +0.000 C 
BRANCH  15  17
ATOM     16  C   UNL     1       1.329   9.258  19.114  0.00  0.00    +0.000 C 
ATOM     17  C   UNL     1       1.814   8.898  17.720  0.00  0.00    +0.000 C 
ENDBRANCH  15  17
ENDBRANCH  14  15
ENDBRANCH   1  14
TORSDOF 3
ENDMDL
MODEL 4
REMARK VINA RESULT:      -6.7      2.241      4.254
REMARK  Name = 
REMARK  6 active torsions:
REMARK  status: ('A' for Active; 'I' for Inactive)
REMARK    1  A    between atoms: C_1  and  C_2
REMARK    2  A    between atoms: C_2  and  C_3
REMARK    3  A    between atoms: C_3  and  C_4
REMARK    4  A    between atoms: C_4  and  C_5
REMARK    5  A    between atoms: C_8  and  C_9
REMARK    6  A    between atoms: C_10  and  C_11
REMARK                            x       y       z     vdW  Elec       q    Type
REMARK                         _______ _______ _______ _____ _____    ______ ____
ROOT
ATOM      1  C   UNL     1       4.788   4.877  19.177  0.00  0.00    +0.000 C 
ATOM      2  C   UNL     1       4.497   3.397  19.367  0.00  0.00    +0.000 C 
ATOM      3  O   UNL     1       5.213   2.622  19.982  0.00  0.00    +0.000 OA
ATOM      4  C   UNL     1       3.272   2.975  18.669  0.00  0.00    +0.000 C 
ATOM      5  C   UNL     1       2.820   1.568  18.580  0.00  0.00    +0.000 C 
ATOM      6  C   UNL     1       2.694   4.097  18.223  0.00  0.00    +0.000 C 
ATOM      7  C   UNL     1       1.382   4.156  17.506  0.00  0.00    +0.000 C 
ATOM      8  C   UNL     1       3.442   5.364  18.582  0.00  0.00    +0.000 C 
ATOM      9  C   UNL     1       3.454   6.387  17.452  0.00  0.00    +0.000 C 
ATOM     10  C   UNL     1       3.002   7.688  18.071  0.00  0.00    +0.000 C 
ATOM     11  C   UNL     1       2.489   7.297  19.415  0.00  0.00    +0.000 C 
ATOM     12  O   UNL     1       1.953   8.056  20.206  0.00  0.00    +0.000 OA
ATOM     13  O   UNL     1       2.689   5.976  19.646  0.00  0.00    +0.000 OA
ENDROOT
BRANCH   1  14
ATOM     14  C   UNL     1       6.074   4.969  18.338  0.00  0.00    +0.000 C 
BRANCH  14  15
ATOM     15  C   UNL     1       7.012   6.149  18.618  0.00  0.00    +0.000 C 
BRANCH  15  17
ATOM     16  C   UNL     1       7.923   8.323  17.793  0.00  0.00    +0.000 C 
ATOM     17  C   UNL     1       7.416   6.951  17.384  0.00  0.00    +0.000 C 
ENDBRANCH  15  17
ENDBRANCH  14  15
ENDBRANCH   1  14
TORSDOF 3
ENDMDL
MODEL 5
REMARK VINA RESULT:      -6.7      1.988      4.288
REMARK  Name = 
REMARK  6 active torsions:
REMARK  status: ('A' for Active; 'I' for Inactive)
REMARK    1  A    between atoms: C_1  and  C_2
REMARK    2  A    between atoms: C_2  and  C_3
REMARK    3  A    between atoms: C_3  and  C_4
REMARK    4  A    between atoms: C_4  and  C_5
REMARK    5  A    between atoms: C_8  and  C_9
REMARK    6  A    between atoms: C_10  and  C_11
REMARK                            x       y       z     vdW  Elec       q    Type
REMARK                         _______ _______ _______ _____ _____    ______ ____
ROOT
ATOM      1  C   UNL     1       4.632   5.182  19.366  0.00  0.00    +0.000 C 
ATOM      2  C   UNL     1       4.487   3.669  19.354  0.00  0.00    +0.000 C 
ATOM      3  O   UNL     1       5.261   2.893  19.895  0.00  0.00    +0.000 OA
ATOM      4  C   UNL     1       3.332   3.224  18.559  0.00  0.00    +0.000 C 
ATOM      5  C   UNL     1       3.027   1.803  18.274  0.00  0.00    +0.000 C 
ATOM      6  C   UNL     1       2.656   4.333  18.235  0.00  0.00    +0.000 C 
ATOM      7  C   UNL     1       1.366   4.359  17.478  0.00  0.00    +0.000 C 
ATOM      8  C   UNL     1       3.261   5.609  18.783  0.00  0.00    +0.000 C 
ATOM      9  C   UNL     1       3.202   6.767  17.792  0.00  0.00    +0.000 C 
ATOM     10  C   UNL     1       2.603   7.927  18.552  0.00  0.00    +0.000 C 
ATOM     11  C   UNL     1       2.094   7.316  19.814  0.00  0.00    +0.000 C 
ATOM     12  O   UNL     1       1.462   7.910  20.672  0.00  0.00    +0.000 OA
ATOM     13  O   UNL     1       2.421   6.002  19.884  0.00  0.00    +0.000 OA
ENDROOT
BRANCH   1  14
ATOM     14  C   UNL     1       5.925   5.506  18.598  0.00  0.00    +0.000 C 
BRANCH  14  15
ATOM     15  C   UNL     1       6.246   4.648  17.368  0.00  0.00    +0.000 C 
BRANCH  15  17
ATOM     16  C   UNL     1       5.426   4.321  15.031  0.00  0.00    +0.000 C 
ATOM     17  C   UNL     1       5.977   5.328  16.028  0.00  0.00    +0.000 C 
ENDBRANCH  15  17
ENDBRANCH  14  15
ENDBRANCH   1  14
TORSDOF 3
ENDMDL
MODEL 6
REMARK VINA RESULT:      -6.7      2.069      5.585
REMARK  Name = 
REMARK  6 active torsions:
REMARK  status: ('A' for Active; 'I' for Inactive)
REMARK    1  A    between atoms: C_1  and  C_2
REMARK    2  A    between atoms: C_2  and  C_3
REMARK    3  A    between atoms: C_3  and  C_4
REMARK    4  A    between atoms: C_4  and  C_5
REMARK    5  A    between atoms: C_8  and  C_9
REMARK    6  A    between atoms: C_10  and  C_11
REMARK                            x       y       z     vdW  Elec       q    Type
REMARK                         _______ _______ _______ _____ _____    ______ ____
ROOT
ATOM      1  C   UNL     1       4.891   3.702  17.336  0.00  0.00    +0.000 C 
ATOM      2  C   UNL     1       3.527   3.155  17.723  0.00  0.00    +0.000 C 
ATOM      3  O   UNL     1       3.121   2.037  17.442  0.00  0.00    +0.000 OA
ATOM      4  C   UNL     1       2.707   4.150  18.432  0.00  0.00    +0.000 C 
ATOM      5  C   UNL     1       1.293   3.930  18.814  0.00  0.00    +0.000 C 
ATOM      6  C   UNL     1       3.513   5.192  18.670  0.00  0.00    +0.000 C 
ATOM      7  C   UNL     1       3.122   6.420  19.431  0.00  0.00    +0.000 C 
ATOM      8  C   UNL     1       4.932   5.003  18.176  0.00  0.00    +0.000 C 
ATOM      9  C   UNL     1       5.520   6.268  17.561  0.00  0.00    +0.000 C 
ATOM     10  C   UNL     1       6.859   6.465  18.230  0.00  0.00    +0.000 C 
ATOM     11  C   UNL     1       6.848   5.501  19.367  0.00  0.00    +0.000 C 
ATOM     12  O   UNL     1       7.725   5.406  20.210  0.00  0.00    +0.000 OA
ATOM     13  O   UNL     1       5.725   4.742  19.349  0.00  0.00    +0.000 OA
ENDROOT
BRANCH   1  14
ATOM     14  C   UNL     1       4.914   3.781  15.799  0.00  0.00    +0.000 C 
BRANCH  14  15
ATOM     15  C   UNL     1       6.281   3.691  15.112  0.00  0.00    +0.000 C 
BRANCH  15  17
ATOM     16  C   UNL     1       6.026   3.469  12.637  0.00  0.00    +0.000 C 
ATOM     17  C   UNL     1       6.371   4.418  13.773  0.00  0.00    +0.000 C 
ENDBRANCH  15  17
ENDBRANCH  14  15
ENDBRANCH   1  14
TORSDOF 3
ENDMDL
MODEL 7
REMARK VINA RESULT:      -6.6      2.328      4.628
REMARK  Name = 
REMARK  6 active torsions:
REMARK  status: ('A' for Active; 'I' for Inactive)
REMARK    1  A    between atoms: C_1  and  C_2
REMARK    2  A    between atoms: C_2  and  C_3
REMARK    3  A    between atoms: C_3  and  C_4
REMARK    4  A    between atoms: C_4  and  C_5
REMARK    5  A    between atoms: C_8  and  C_9
REMARK    6  A    between atoms: C_10  and  C_11
REMARK                            x       y       z     vdW  Elec       q    Type
REMARK                         _______ _______ _______ _____ _____    ______ ____
ROOT
ATOM      1  C   UNL     1       3.213   3.721  17.280  0.00  0.00    +0.000 C 
ATOM      2  C   UNL     1       3.529   2.592  18.249  0.00  0.00    +0.000 C 
ATOM      3  O   UNL     1       2.953   1.515  18.271  0.00  0.00    +0.000 OA
ATOM      4  C   UNL     1       4.578   2.961  19.212  0.00  0.00    +0.000 C 
ATOM      5  C   UNL     1       4.994   2.101  20.344  0.00  0.00    +0.000 C 
ATOM      6  C   UNL     1       5.056   4.143  18.806  0.00  0.00    +0.000 C 
ATOM      7  C   UNL     1       6.189   4.876  19.453  0.00  0.00    +0.000 C 
ATOM      8  C   UNL     1       4.407   4.673  17.544  0.00  0.00    +0.000 C 
ATOM      9  C   UNL     1       4.164   6.178  17.588  0.00  0.00    +0.000 C 
ATOM     10  C   UNL     1       4.743   6.724  16.305  0.00  0.00    +0.000 C 
ATOM     11  C   UNL     1       5.525   5.587  15.740  0.00  0.00    +0.000 C 
ATOM     12  O   UNL     1       6.218   5.646  14.738  0.00  0.00    +0.000 OA
ATOM     13  O   UNL     1       5.370   4.470  16.493  0.00  0.00    +0.000 OA
ENDROOT
BRANCH   1  14
ATOM     14  C   UNL     1       1.780   4.184  17.596  0.00  0.00    +0.000 C 
BRANCH  14  15
ATOM     15  C   UNL     1       1.468   4.558  19.049  0.00  0.00    +0.000 C 
BRANCH  15  17
ATOM     16  C   UNL     1       1.341   3.199  21.141  0.00  0.00    +0.000 C 
ATOM     17  C   UNL     1       0.662   3.515  19.819  0.00  0.00    +0.000 C 
ENDBRANCH  15  17
ENDBRANCH  14  15
ENDBRANCH   1  14
TORSDOF 3
ENDMDL
MODEL 8
REMARK VINA RESULT:      -6.6      1.908      4.519
REMARK  Name = 
REMARK  6 active torsions:
REMARK  status: ('A' for Active; 'I' for Inactive)
REMARK    1  A    between atoms: C_1  and  C_2
REMARK    2  A    between atoms: C_2  and  C_3
REMARK    3  A    between atoms: C_3  and  C_4
REMARK    4  A    between atoms: C_4  and  C_5
REMARK    5  A    between atoms: C_8  and  C_9
REMARK    6  A    between atoms: C_10  and  C_11
REMARK                            x       y       z     vdW  Elec       q    Type
REMARK                         _______ _______ _______ _____ _____    ______ ____
ROOT
ATOM      1  C   UNL     1       3.379   6.173  17.639  0.00  0.00    +0.000 C 
ATOM      2  C   UNL     1       2.597   7.294  18.304  0.00  0.00    +0.000 C 
ATOM      3  O   UNL     1       2.340   8.367  17.779  0.00  0.00    +0.000 OA
ATOM      4  C   UNL     1       2.226   6.970  19.690  0.00  0.00    +0.000 C 
ATOM      5  C   UNL     1       1.571   7.926  20.612  0.00  0.00    +0.000 C 
ATOM      6  C   UNL     1       2.554   5.685  19.871  0.00  0.00    +0.000 C 
ATOM      7  C   UNL     1       2.297   4.904  21.121  0.00  0.00    +0.000 C 
ATOM      8  C   UNL     1       3.148   5.019  18.647  0.00  0.00    +0.000 C 
ATOM      9  C   UNL     1       4.302   4.080  18.982  0.00  0.00    +0.000 C 
ATOM     10  C   UNL     1       3.987   2.778  18.285  0.00  0.00    +0.000 C 
ATOM     11  C   UNL     1       2.572   2.932  17.840  0.00  0.00    +0.000 C 
ATOM     12  O   UNL     1       1.911   2.059  17.303  0.00  0.00    +0.000 OA
ATOM     13  O   UNL     1       2.109   4.175  18.115  0.00  0.00    +0.000 OA
ENDROOT
BRANCH   1  14
ATOM     14  C   UNL     1       4.802   6.710  17.402  0.00  0.00    +0.000 C 
BRANCH  14  15
ATOM     15  C   UNL     1       5.399   6.522  16.003  0.00  0.00    +0.000 C 
BRANCH  15  17
ATOM     16  C   UNL     1       6.770   4.440  16.159  0.00  0.00    +0.000 C 
ATOM     17  C   UNL     1       5.527   5.070  15.552  0.00  0.00    +0.000 C 
ENDBRANCH  15  17
ENDBRANCH  14  15
ENDBRANCH   1  14
TORSDOF 3
ENDMDL
MODEL 9
REMARK VINA RESULT:      -6.5      1.925      5.030
REMARK  Name = 
REMARK  6 active torsions:
REMARK  status: ('A' for Active; 'I' for Inactive)
REMARK    1  A    between atoms: C_1  and  C_2
REMARK    2  A    between atoms: C_2  and  C_3
REMARK    3  A    between atoms: C_3  and  C_4
REMARK    4  A    between atoms: C_4  and  C_5
REMARK    5  A    between atoms: C_8  and  C_9
REMARK    6  A    between atoms: C_10  and  C_11
REMARK                            x       y       z     vdW  Elec       q    Type
REMARK                         _______ _______ _______ _____ _____    ______ ____
ROOT
ATOM      1  C   UNL     1       3.867   4.304  17.978  0.00  0.00    +0.000 C 
ATOM      2  C   UNL     1       3.124   5.484  18.584  0.00  0.00    +0.000 C 
ATOM      3  O   UNL     1       2.371   5.411  19.544  0.00  0.00    +0.000 OA
ATOM      4  C   UNL     1       3.362   6.733  17.845  0.00  0.00    +0.000 C 
ATOM      5  C   UNL     1       2.667   8.008  18.138  0.00  0.00    +0.000 C 
ATOM      6  C   UNL     1       4.322   6.459  16.953  0.00  0.00    +0.000 C 
ATOM      7  C   UNL     1       4.933   7.457  16.021  0.00  0.00    +0.000 C 
ATOM      8  C   UNL     1       4.834   5.035  17.012  0.00  0.00    +0.000 C 
ATOM      9  C   UNL     1       5.097   4.442  15.632  0.00  0.00    +0.000 C 
ATOM     10  C   UNL     1       6.493   3.869  15.692  0.00  0.00    +0.000 C 
ATOM     11  C   UNL     1       7.055   4.401  16.967  0.00  0.00    +0.000 C 
ATOM     12  O   UNL     1       8.202   4.235  17.347  0.00  0.00    +0.000 OA
ATOM     13  O   UNL     1       6.121   5.106  17.652  0.00  0.00    +0.000 OA
ENDROOT
BRANCH   1  14
ATOM     14  C   UNL     1       2.797   3.352  17.416  0.00  0.00    +0.000 C 
BRANCH  14  15
ATOM     15  C   UNL     1       2.698   1.957  18.044  0.00  0.00    +0.000 C 
BRANCH  15  17
ATOM     16  C   UNL     1       0.515   2.576  19.087  0.00  0.00    +0.000 C 
ATOM     17  C   UNL     1       1.850   1.886  19.311  0.00  0.00    +0.000 C 
ENDBRANCH  15  17
ENDBRANCH  14  15
ENDBRANCH   1  14
TORSDOF 3
ENDMDL
