MODEL 1
REMARK VINA RESULT:      -8.0      0.000      0.000
REMARK  Name = 
REMARK  6 active torsions:
REMARK  status: ('A' for Active; 'I' for Inactive)
REMARK    1  A    between atoms: C_1  and  C_2
REMARK    2  A    between atoms: C_8  and  C_9
REMARK    3  A    between atoms: C_12  and  N_13
REMARK    4  A    between atoms: C_14  and  O_16
REMARK    5  A    between atoms: O_16  and  C_17
REMARK    6  A    between atoms: C_17  and  C_18
REMARK                            x       y       z     vdW  Elec       q    Type
REMARK                         _______ _______ _______ _____ _____    ______ ____
ROOT
ATOM      1  C   UNL     1       4.565   3.713  18.755  0.00  0.00    +0.000 A 
ATOM      2  C   UNL     1       5.737   4.404  19.043  0.00  0.00    +0.000 A 
ATOM      3  C   UNL     1       6.665   4.679  18.035  0.00  0.00    +0.000 A 
ATOM      4  C   UNL     1       6.444   4.285  16.715  0.00  0.00    +0.000 A 
ATOM      5  C   UNL     1       5.276   3.574  16.422  0.00  0.00    +0.000 A 
ATOM      6  C   UNL     1       4.341   3.291  17.436  0.00  0.00    +0.000 A 
ENDROOT
BRANCH   1  14
ATOM      7  C   UNL     1       2.362   5.751  19.759  0.00  0.00    +0.000 C 
ATOM      8  C   UNL     1       2.173   4.230  19.683  0.00  0.00    +0.000 C 
ATOM      9  C   UNL     1       1.121   3.784  20.692  0.00  0.00    +0.000 C 
ATOM     10  C   UNL     1       1.559   2.784  21.716  0.00  0.00    +0.000 C 
ATOM     11  O   UNL     1       0.772   2.338  22.550  0.00  0.00    +0.000 OA
ATOM     12  N   UNL     1       2.862   2.393  21.703  0.00  0.00    +0.000 N 
ATOM     13  N   UNL     1       3.800   2.693  20.781  0.00  0.00    +0.000 NA
ATOM     14  C   UNL     1       3.516   3.509  19.813  0.00  0.00    +0.000 C 
ATOM     15  H   UNL     1       3.125   1.696  22.394  0.00  0.00    +0.000 HD
ENDBRANCH   1  14
BRANCH   4  16
ATOM     16  N   UNL     1       7.324   4.631  15.661  0.00  0.00    +0.000 N 
ATOM     17  C   UNL     1       7.004   5.398  14.566  0.00  0.00    +0.000 C 
ATOM     18  O   UNL     1       5.979   6.043  14.391  0.00  0.00    +0.000 OA
ATOM     19  H   UNL     1       8.235   4.195  15.624  0.00  0.00    +0.000 HD
BRANCH  17  20
ATOM     20  O   UNL     1       7.974   5.281  13.620  0.00  0.00    +0.000 OA
BRANCH  20  21
ATOM     21  C   UNL     1       7.460   5.203  12.281  0.00  0.00    +0.000 C 
BRANCH  21  22
ATOM     22  C   UNL     1       6.910   3.843  11.929  0.00  0.00    +0.000 A 
ATOM     23  C   UNL     1       5.530   3.601  11.996  0.00  0.00    +0.000 A 
ATOM     24  C   UNL     1       5.008   2.364  11.614  0.00  0.00    +0.000 A 
ATOM     25  C   UNL     1       5.858   1.354  11.168  0.00  0.00    +0.000 A 
ATOM     26  C   UNL     1       7.231   1.579  11.102  0.00  0.00    +0.000 A 
ATOM     27  C   UNL     1       7.755   2.817  11.482  0.00  0.00    +0.000 A 
ENDBRANCH  21  22
ENDBRANCH  20  21
ENDBRANCH  17  20
ENDBRANCH   4  16
TORSDOF 5
ENDMDL
MODEL 2
REMARK VINA RESULT:      -7.7      5.165      8.013
REMARK  Name = 
REMARK  6 active torsions:
REMARK  status: ('A' for Active; 'I' for Inactive)
REMARK    1  A    between atoms: C_1  and  C_2
REMARK    2  A    between atoms: C_8  and  C_9
REMARK    3  A    between atoms: C_12  and  N_13
REMARK    4  A    between atoms: C_14  and  O_16
REMARK    5  A    between atoms: O_16  and  C_17
REMARK    6  A    between atoms: C_17  and  C_18
REMARK                            x       y       z     vdW  Elec       q    Type
REMARK                         _______ _______ _______ _____ _____    ______ ____
ROOT
ATOM      1  C   UNL     1       1.338   9.284  18.931  0.00  0.00    +0.000 A 
ATOM      2  C   UNL     1       1.332   8.392  19.999  0.00  0.00    +0.000 A 
ATOM      3  C   UNL     1       2.133   7.247  19.972  0.00  0.00    +0.000 A 
ATOM      4  C   UNL     1       2.968   6.969  18.889  0.00  0.00    +0.000 A 
ATOM      5  C   UNL     1       2.965   7.852  17.804  0.00  0.00    +0.000 A 
ATOM      6  C   UNL     1       2.156   9.004  17.826  0.00  0.00    +0.000 A 
ENDROOT
BRANCH   1  14
ATOM      7  C   UNL     1      -1.421   9.989  17.553  0.00  0.00    +0.000 C 
ATOM      8  C   UNL     1      -0.966  10.523  18.919  0.00  0.00    +0.000 C 
ATOM      9  C   UNL     1      -1.652  11.852  19.214  0.00  0.00    +0.000 C 
ATOM     10  C   UNL     1      -0.755  13.026  19.454  0.00  0.00    +0.000 C 
ATOM     11  O   UNL     1      -1.215  14.133  19.734  0.00  0.00    +0.000 OA
ATOM     12  N   UNL     1       0.586  12.834  19.339  0.00  0.00    +0.000 N 
ATOM     13  N   UNL     1       1.236  11.664  19.167  0.00  0.00    +0.000 NA
ATOM     14  C   UNL     1       0.560  10.569  19.003  0.00  0.00    +0.000 C 
ATOM     15  H   UNL     1       1.170  13.643  19.530  0.00  0.00    +0.000 HD
ENDBRANCH   1  14
BRANCH   4  16
ATOM     16  N   UNL     1       3.856   5.865  18.877  0.00  0.00    +0.000 N 
ATOM     17  C   UNL     1       4.391   5.276  17.756  0.00  0.00    +0.000 C 
ATOM     18  O   UNL     1       4.332   5.689  16.606  0.00  0.00    +0.000 OA
ATOM     19  H   UNL     1       4.037   5.377  19.743  0.00  0.00    +0.000 HD
BRANCH  17  20
ATOM     20  O   UNL     1       4.947   4.079  18.085  0.00  0.00    +0.000 OA
BRANCH  20  21
ATOM     21  C   UNL     1       4.036   2.974  17.966  0.00  0.00    +0.000 C 
BRANCH  21  22
ATOM     22  C   UNL     1       3.031   2.903  19.088  0.00  0.00    +0.000 A 
ATOM     23  C   UNL     1       3.458   2.688  20.406  0.00  0.00    +0.000 A 
ATOM     24  C   UNL     1       2.540   2.682  21.458  0.00  0.00    +0.000 A 
ATOM     25  C   UNL     1       1.185   2.883  21.204  0.00  0.00    +0.000 A 
ATOM     26  C   UNL     1       0.746   3.092  19.898  0.00  0.00    +0.000 A 
ATOM     27  C   UNL     1       1.663   3.100  18.845  0.00  0.00    +0.000 A 
ENDBRANCH  21  22
ENDBRANCH  20  21
ENDBRANCH  17  20
ENDBRANCH   4  16
TORSDOF 5
ENDMDL
MODEL 3
REMARK VINA RESULT:      -7.5      7.372     10.087
REMARK  Name = 
REMARK  6 active torsions:
REMARK  status: ('A' for Active; 'I' for Inactive)
REMARK    1  A    between atoms: C_1  and  C_2
REMARK    2  A    between atoms: C_8  and  C_9
REMARK    3  A    between atoms: C_12  and  N_13
REMARK    4  A    between atoms: C_14  and  O_16
REMARK    5  A    between atoms: O_16  and  C_17
REMARK    6  A    between atoms: C_17  and  C_18
REMARK                            x       y       z     vdW  Elec       q    Type
REMARK                         _______ _______ _______ _____ _____    ______ ____
ROOT
ATOM      1  C   UNL     1      -0.775  11.646  22.222  0.00  0.00    +0.000 A 
ATOM      2  C   UNL     1      -0.797  10.319  22.642  0.00  0.00    +0.000 A 
ATOM      3  C   UNL     1      -0.067   9.346  21.955  0.00  0.00    +0.000 A 
ATOM      4  C   UNL     1       0.712   9.670  20.843  0.00  0.00    +0.000 A 
ATOM      5  C   UNL     1       0.723  10.998  20.405  0.00  0.00    +0.000 A 
ATOM      6  C   UNL     1      -0.015  11.981  21.092  0.00  0.00    +0.000 A 
ENDROOT
BRANCH   1  14
ATOM      7  C   UNL     1      -3.765  12.650  21.970  0.00  0.00    +0.000 C 
ATOM      8  C   UNL     1      -2.974  12.587  23.284  0.00  0.00    +0.000 C 
ATOM      9  C   UNL     1      -3.526  13.606  24.275  0.00  0.00    +0.000 C 
ATOM     10  C   UNL     1      -2.562  14.633  24.781  0.00  0.00    +0.000 C 
ATOM     11  O   UNL     1      -2.905  15.476  25.610  0.00  0.00    +0.000 OA
ATOM     12  N   UNL     1      -1.296  14.615  24.284  0.00  0.00    +0.000 N 
ATOM     13  N   UNL     1      -0.744  13.684  23.478  0.00  0.00    +0.000 NA
ATOM     14  C   UNL     1      -1.473  12.713  23.020  0.00  0.00    +0.000 C 
ATOM     15  H   UNL     1      -0.658  15.309  24.663  0.00  0.00    +0.000 HD
ENDBRANCH   1  14
BRANCH   4  16
ATOM     16  N   UNL     1       1.531   8.720  20.186  0.00  0.00    +0.000 N 
ATOM     17  C   UNL     1       1.766   8.660  18.832  0.00  0.00    +0.000 C 
ATOM     18  O   UNL     1       1.453   9.492  17.992  0.00  0.00    +0.000 OA
ATOM     19  H   UNL     1       1.894   7.940  20.716  0.00  0.00    +0.000 HD
BRANCH  17  20
ATOM     20  O   UNL     1       2.340   7.469  18.516  0.00  0.00    +0.000 OA
BRANCH  20  21
ATOM     21  C   UNL     1       2.644   6.659  19.664  0.00  0.00    +0.000 C 
BRANCH  21  22
ATOM     22  C   UNL     1       2.081   5.262  19.576  0.00  0.00    +0.000 A 
ATOM     23  C   UNL     1       1.651   4.600  20.735  0.00  0.00    +0.000 A 
ATOM     24  C   UNL     1       1.073   3.332  20.655  0.00  0.00    +0.000 A 
ATOM     25  C   UNL     1       0.927   2.707  19.418  0.00  0.00    +0.000 A 
ATOM     26  C   UNL     1       1.357   3.351  18.259  0.00  0.00    +0.000 A 
ATOM     27  C   UNL     1       1.933   4.621  18.337  0.00  0.00    +0.000 A 
ENDBRANCH  21  22
ENDBRANCH  20  21
ENDBRANCH  17  20
ENDBRANCH   4  16
TORSDOF 5
ENDMDL
MODEL 4
REMARK VINA RESULT:      -7.5      5.499      7.350
REMARK  Name = 
REMARK  6 active torsions:
REMARK  status: ('A' for Active; 'I' for Inactive)
REMARK    1  A    between atoms: C_1  and  C_2
REMARK    2  A    between atoms: C_8  and  C_9
REMARK    3  A    between atoms: C_12  and  N_13
REMARK    4  A    between atoms: C_14  and  O_16
REMARK    5  A    between atoms: O_16  and  C_17
REMARK    6  A    between atoms: C_17  and  C_18
REMARK                            x       y       z     vdW  Elec       q    Type
REMARK                         _______ _______ _______ _____ _____    ______ ____
ROOT
ATOM      1  C   UNL     1       1.150   9.671  19.182  0.00  0.00    +0.000 A 
ATOM      2  C   UNL     1       1.807   9.371  17.993  0.00  0.00    +0.000 A 
ATOM      3  C   UNL     1       2.509   8.170  17.854  0.00  0.00    +0.000 A 
ATOM      4  C   UNL     1       2.564   7.236  18.889  0.00  0.00    +0.000 A 
ATOM      5  C   UNL     1       1.921   7.540  20.093  0.00  0.00    +0.000 A 
ATOM      6  C   UNL     1       1.217   8.750  20.238  0.00  0.00    +0.000 A 
ENDROOT
BRANCH   1  14
ATOM      7  C   UNL     1      -1.691  10.241  17.910  0.00  0.00    +0.000 C 
ATOM      8  C   UNL     1      -1.218  10.782  19.266  0.00  0.00    +0.000 C 
ATOM      9  C   UNL     1      -1.964  12.069  19.603  0.00  0.00    +0.000 C 
ATOM     10  C   UNL     1      -1.124  13.287  19.828  0.00  0.00    +0.000 C 
ATOM     11  O   UNL     1      -1.633  14.364  20.140  0.00  0.00    +0.000 OA
ATOM     12  N   UNL     1       0.221  13.170  19.664  0.00  0.00    +0.000 N 
ATOM     13  N   UNL     1       0.927  12.040  19.453  0.00  0.00    +0.000 NA
ATOM     14  C   UNL     1       0.306  10.911  19.298  0.00  0.00    +0.000 C 
ATOM     15  H   UNL     1       0.767  14.007  19.846  0.00  0.00    +0.000 HD
ENDBRANCH   1  14
BRANCH   4  16
ATOM     16  N   UNL     1       3.191   5.974  18.742  0.00  0.00    +0.000 N 
ATOM     17  C   UNL     1       2.608   4.843  18.222  0.00  0.00    +0.000 C 
ATOM     18  O   UNL     1       1.528   4.764  17.654  0.00  0.00    +0.000 OA
ATOM     19  H   UNL     1       4.104   5.834  19.151  0.00  0.00    +0.000 HD
BRANCH  17  20
ATOM     20  O   UNL     1       3.377   3.757  18.504  0.00  0.00    +0.000 OA
BRANCH  20  21
ATOM     21  C   UNL     1       4.755   4.082  18.752  0.00  0.00    +0.000 C 
BRANCH  21  22
ATOM     22  C   UNL     1       5.543   4.351  17.495  0.00  0.00    +0.000 A 
ATOM     23  C   UNL     1       5.257   3.645  16.318  0.00  0.00    +0.000 A 
ATOM     24  C   UNL     1       5.941   3.931  15.135  0.00  0.00    +0.000 A 
ATOM     25  C   UNL     1       6.923   4.919  15.117  0.00  0.00    +0.000 A 
ATOM     26  C   UNL     1       7.222   5.624  16.281  0.00  0.00    +0.000 A 
ATOM     27  C   UNL     1       6.538   5.340  17.465  0.00  0.00    +0.000 A 
ENDBRANCH  21  22
ENDBRANCH  20  21
ENDBRANCH  17  20
ENDBRANCH   4  16
TORSDOF 5
ENDMDL
MODEL 5
REMARK VINA RESULT:      -7.4      5.652      9.888
REMARK  Name = 
REMARK  6 active torsions:
REMARK  status: ('A' for Active; 'I' for Inactive)
REMARK    1  A    between atoms: C_1  and  C_2
REMARK    2  A    between atoms: C_8  and  C_9
REMARK    3  A    between atoms: C_12  and  N_13
REMARK    4  A    between atoms: C_14  and  O_16
REMARK    5  A    between atoms: O_16  and  C_17
REMARK    6  A    between atoms: C_17  and  C_18
REMARK                            x       y       z     vdW  Elec       q    Type
REMARK                         _______ _______ _______ _____ _____    ______ ____
ROOT
ATOM      1  C   UNL     1       2.525   6.105  19.114  0.00  0.00    +0.000 A 
ATOM      2  C   UNL     1       2.022   6.659  20.287  0.00  0.00    +0.000 A 
ATOM      3  C   UNL     1       1.635   8.000  20.328  0.00  0.00    +0.000 A 
ATOM      4  C   UNL     1       1.727   8.820  19.203  0.00  0.00    +0.000 A 
ATOM      5  C   UNL     1       2.249   8.274  18.026  0.00  0.00    +0.000 A 
ATOM      6  C   UNL     1       2.644   6.924  17.981  0.00  0.00    +0.000 A 
ENDROOT
BRANCH   1  14
ATOM      7  C   UNL     1       0.861   3.670  20.260  0.00  0.00    +0.000 C 
ATOM      8  C   UNL     1       1.695   3.627  18.973  0.00  0.00    +0.000 C 
ATOM      9  C   UNL     1       2.134   2.196  18.682  0.00  0.00    +0.000 C 
ATOM     10  C   UNL     1       3.608   1.956  18.588  0.00  0.00    +0.000 C 
ATOM     11  O   UNL     1       4.057   0.841  18.322  0.00  0.00    +0.000 OA
ATOM     12  N   UNL     1       4.438   3.008  18.819  0.00  0.00    +0.000 N 
ATOM     13  N   UNL     1       4.095   4.301  18.992  0.00  0.00    +0.000 NA
ATOM     14  C   UNL     1       2.843   4.637  19.035  0.00  0.00    +0.000 C 
ATOM     15  H   UNL     1       5.432   2.820  18.725  0.00  0.00    +0.000 HD
ENDBRANCH   1  14
BRANCH   4  16
ATOM     16  N   UNL     1       1.256  10.156  19.194  0.00  0.00    +0.000 N 
ATOM     17  C   UNL     1       0.009  10.566  18.788  0.00  0.00    +0.000 C 
ATOM     18  O   UNL     1      -0.952   9.856  18.526  0.00  0.00    +0.000 OA
ATOM     19  H   UNL     1       1.909  10.903  19.387  0.00  0.00    +0.000 HD
BRANCH  17  20
ATOM     20  O   UNL     1      -0.002  11.916  18.625  0.00  0.00    +0.000 OA
BRANCH  20  21
ATOM     21  C   UNL     1       0.230  12.641  19.844  0.00  0.00    +0.000 C 
BRANCH  21  22
ATOM     22  C   UNL     1      -0.861  12.454  20.869  0.00  0.00    +0.000 A 
ATOM     23  C   UNL     1      -0.573  11.859  22.105  0.00  0.00    +0.000 A 
ATOM     24  C   UNL     1      -1.564  11.738  23.082  0.00  0.00    +0.000 A 
ATOM     25  C   UNL     1      -2.853  12.202  22.831  0.00  0.00    +0.000 A 
ATOM     26  C   UNL     1      -3.154  12.789  21.604  0.00  0.00    +0.000 A 
ATOM     27  C   UNL     1      -2.164  12.913  20.626  0.00  0.00    +0.000 A 
ENDBRANCH  21  22
ENDBRANCH  20  21
ENDBRANCH  17  20
ENDBRANCH   4  16
TORSDOF 5
ENDMDL
MODEL 6
REMARK VINA RESULT:      -7.4      7.305      9.971
REMARK  Name = 
REMARK  6 active torsions:
REMARK  status: ('A' for Active; 'I' for Inactive)
REMARK    1  A    between atoms: C_1  and  C_2
REMARK    2  A    between atoms: C_8  and  C_9
REMARK    3  A    between atoms: C_12  and  N_13
REMARK    4  A    between atoms: C_14  and  O_16
REMARK    5  A    between atoms: O_16  and  C_17
REMARK    6  A    between atoms: C_17  and  C_18
REMARK                            x       y       z     vdW  Elec       q    Type
REMARK                         _______ _______ _______ _____ _____    ______ ____
ROOT
ATOM      1  C   UNL     1      -0.588  11.692  22.128  0.00  0.00    +0.000 A 
ATOM      2  C   UNL     1      -0.191  11.967  20.823  0.00  0.00    +0.000 A 
ATOM      3  C   UNL     1       0.468  10.997  20.063  0.00  0.00    +0.000 A 
ATOM      4  C   UNL     1       0.737   9.728  20.576  0.00  0.00    +0.000 A 
ATOM      5  C   UNL     1       0.357   9.451  21.894  0.00  0.00    +0.000 A 
ATOM      6  C   UNL     1      -0.303  10.427  22.665  0.00  0.00    +0.000 A 
ENDROOT
BRANCH   1  14
ATOM      7  C   UNL     1      -3.599  12.564  21.702  0.00  0.00    +0.000 C 
ATOM      8  C   UNL     1      -2.898  12.488  23.065  0.00  0.00    +0.000 C 
ATOM      9  C   UNL     1      -3.565  13.442  24.049  0.00  0.00    +0.000 C 
ATOM     10  C   UNL     1      -2.690  14.493  24.656  0.00  0.00    +0.000 C 
ATOM     11  O   UNL     1      -3.130  15.287  25.488  0.00  0.00    +0.000 OA
ATOM     12  N   UNL     1      -1.394  14.553  24.249  0.00  0.00    +0.000 N 
ATOM     13  N   UNL     1      -0.743  13.680  23.452  0.00  0.00    +0.000 NA
ATOM     14  C   UNL     1      -1.390  12.694  22.912  0.00  0.00    +0.000 C 
ATOM     15  H   UNL     1      -0.819  15.261  24.696  0.00  0.00    +0.000 HD
ENDBRANCH   1  14
BRANCH   4  16
ATOM     16  N   UNL     1       1.320   8.699  19.797  0.00  0.00    +0.000 N 
ATOM     17  C   UNL     1       1.876   8.854  18.549  0.00  0.00    +0.000 C 
ATOM     18  O   UNL     1       2.111   9.906  17.971  0.00  0.00    +0.000 OA
ATOM     19  H   UNL     1       1.231   7.742  20.108  0.00  0.00    +0.000 HD
BRANCH  17  20
ATOM     20  O   UNL     1       2.063   7.636  17.973  0.00  0.00    +0.000 OA
BRANCH  20  21
ATOM     21  C   UNL     1       2.842   6.737  18.780  0.00  0.00    +0.000 C 
BRANCH  21  22
ATOM     22  C   UNL     1       2.143   5.432  19.068  0.00  0.00    +0.000 A 
ATOM     23  C   UNL     1       1.885   4.525  18.029  0.00  0.00    +0.000 A 
ATOM     24  C   UNL     1       1.294   3.289  18.297  0.00  0.00    +0.000 A 
ATOM     25  C   UNL     1       0.945   2.949  19.602  0.00  0.00    +0.000 A 
ATOM     26  C   UNL     1       1.189   3.843  20.642  0.00  0.00    +0.000 A 
ATOM     27  C   UNL     1       1.783   5.080  20.377  0.00  0.00    +0.000 A 
ENDBRANCH  21  22
ENDBRANCH  20  21
ENDBRANCH  17  20
ENDBRANCH   4  16
TORSDOF 5
ENDMDL
MODEL 7
REMARK VINA RESULT:      -7.4      7.475      9.885
REMARK  Name = 
REMARK  6 active torsions:
REMARK  status: ('A' for Active; 'I' for Inactive)
REMARK    1  A    between atoms: C_1  and  C_2
REMARK    2  A    between atoms: C_8  and  C_9
REMARK    3  A    between atoms: C_12  and  N_13
REMARK    4  A    between atoms: C_14  and  O_16
REMARK    5  A    between atoms: O_16  and  C_17
REMARK    6  A    between atoms: C_17  and  C_18
REMARK                            x       y       z     vdW  Elec       q    Type
REMARK                         _______ _______ _______ _____ _____    ______ ____
ROOT
ATOM      1  C   UNL     1      -0.841  11.570  22.641  0.00  0.00    +0.000 A 
ATOM      2  C   UNL     1      -0.962  10.304  23.203  0.00  0.00    +0.000 A 
ATOM      3  C   UNL     1      -0.194   9.239  22.725  0.00  0.00    +0.000 A 
ATOM      4  C   UNL     1       0.722   9.410  21.686  0.00  0.00    +0.000 A 
ATOM      5  C   UNL     1       0.836  10.677  21.104  0.00  0.00    +0.000 A 
ATOM      6  C   UNL     1       0.060  11.751  21.580  0.00  0.00    +0.000 A 
ENDROOT
BRANCH   1  14
ATOM      7  C   UNL     1      -3.738  12.612  21.912  0.00  0.00    +0.000 C 
ATOM      8  C   UNL     1      -3.112  12.683  23.311  0.00  0.00    +0.000 C 
ATOM      9  C   UNL     1      -3.737  13.825  24.105  0.00  0.00    +0.000 C 
ATOM     10  C   UNL     1      -2.802  14.880  24.606  0.00  0.00    +0.000 C 
ATOM     11  O   UNL     1      -3.208  15.822  25.286  0.00  0.00    +0.000 OA
ATOM     12  N   UNL     1      -1.487  14.772  24.273  0.00  0.00    +0.000 N 
ATOM     13  N   UNL     1      -0.880  13.741  23.652  0.00  0.00    +0.000 NA
ATOM     14  C   UNL     1      -1.586  12.740  23.221  0.00  0.00    +0.000 C 
ATOM     15  H   UNL     1      -0.873  15.490  24.647  0.00  0.00    +0.000 HD
ENDBRANCH   1  14
BRANCH   4  16
ATOM     16  N   UNL     1       1.577   8.370  21.246  0.00  0.00    +0.000 N 
ATOM     17  C   UNL     1       1.833   8.042  19.936  0.00  0.00    +0.000 C 
ATOM     18  O   UNL     1       1.511   8.674  18.940  0.00  0.00    +0.000 OA
ATOM     19  H   UNL     1       1.951   7.726  21.929  0.00  0.00    +0.000 HD
BRANCH  17  20
ATOM     20  O   UNL     1       2.444   6.828  19.877  0.00  0.00    +0.000 OA
BRANCH  20  21
ATOM     21  C   UNL     1       2.677   6.371  18.534  0.00  0.00    +0.000 C 
BRANCH  21  22
ATOM     22  C   UNL     1       2.892   4.881  18.437  0.00  0.00    +0.000 A 
ATOM     23  C   UNL     1       4.022   4.292  19.020  0.00  0.00    +0.000 A 
ATOM     24  C   UNL     1       4.198   2.907  18.988  0.00  0.00    +0.000 A 
ATOM     25  C   UNL     1       3.250   2.098  18.364  0.00  0.00    +0.000 A 
ATOM     26  C   UNL     1       2.126   2.671  17.775  0.00  0.00    +0.000 A 
ATOM     27  C   UNL     1       1.948   4.056  17.808  0.00  0.00    +0.000 A 
ENDBRANCH  21  22
ENDBRANCH  20  21
ENDBRANCH  17  20
ENDBRANCH   4  16
TORSDOF 5
ENDMDL
MODEL 8
REMARK VINA RESULT:      -7.3      5.573      9.077
REMARK  Name = 
REMARK  6 active torsions:
REMARK  status: ('A' for Active; 'I' for Inactive)
REMARK    1  A    between atoms: C_1  and  C_2
REMARK    2  A    between atoms: C_8  and  C_9
REMARK    3  A    between atoms: C_12  and  N_13
REMARK    4  A    between atoms: C_14  and  O_16
REMARK    5  A    between atoms: O_16  and  C_17
REMARK    6  A    between atoms: C_17  and  C_18
REMARK                            x       y       z     vdW  Elec       q    Type
REMARK                         _______ _______ _______ _____ _____    ______ ____
ROOT
ATOM      1  C   UNL     1       2.460   6.008  19.178  0.00  0.00    +0.000 A 
ATOM      2  C   UNL     1       1.981   6.573  20.356  0.00  0.00    +0.000 A 
ATOM      3  C   UNL     1       1.565   7.906  20.384  0.00  0.00    +0.000 A 
ATOM      4  C   UNL     1       1.603   8.706  19.242  0.00  0.00    +0.000 A 
ATOM      5  C   UNL     1       2.102   8.150  18.059  0.00  0.00    +0.000 A 
ATOM      6  C   UNL     1       2.527   6.807  18.027  0.00  0.00    +0.000 A 
ENDROOT
BRANCH   1  14
ATOM      7  C   UNL     1       0.829   3.549  20.321  0.00  0.00    +0.000 C 
ATOM      8  C   UNL     1       1.683   3.512  19.046  0.00  0.00    +0.000 C 
ATOM      9  C   UNL     1       2.154   2.088  18.774  0.00  0.00    +0.000 C 
ATOM     10  C   UNL     1       3.635   1.877  18.704  0.00  0.00    +0.000 C 
ATOM     11  O   UNL     1       4.110   0.770  18.454  0.00  0.00    +0.000 OA
ATOM     12  N   UNL     1       4.440   2.948  18.938  0.00  0.00    +0.000 N 
ATOM     13  N   UNL     1       4.068   4.236  19.095  0.00  0.00    +0.000 NA
ATOM     14  C   UNL     1       2.809   4.546  19.117  0.00  0.00    +0.000 C 
ATOM     15  H   UNL     1       5.439   2.780  18.860  0.00  0.00    +0.000 HD
ENDBRANCH   1  14
BRANCH   4  16
ATOM     16  N   UNL     1       1.103  10.031  19.223  0.00  0.00    +0.000 N 
ATOM     17  C   UNL     1       0.278  10.592  20.168  0.00  0.00    +0.000 C 
ATOM     18  O   UNL     1      -0.031  10.118  21.253  0.00  0.00    +0.000 OA
ATOM     19  H   UNL     1       1.254  10.596  18.399  0.00  0.00    +0.000 HD
BRANCH  17  20
ATOM     20  O   UNL     1      -0.245  11.754  19.693  0.00  0.00    +0.000 OA
BRANCH  20  21
ATOM     21  C   UNL     1      -1.676  11.825  19.807  0.00  0.00    +0.000 C 
BRANCH  21  22
ATOM     22  C   UNL     1      -2.397  11.441  18.540  0.00  0.00    +0.000 A 
ATOM     23  C   UNL     1      -1.753  10.659  17.571  0.00  0.00    +0.000 A 
ATOM     24  C   UNL     1      -2.435  10.247  16.424  0.00  0.00    +0.000 A 
ATOM     25  C   UNL     1      -3.763  10.620  16.229  0.00  0.00    +0.000 A 
ATOM     26  C   UNL     1      -4.413  11.402  17.181  0.00  0.00    +0.000 A 
ATOM     27  C   UNL     1      -3.733  11.813  18.330  0.00  0.00    +0.000 A 
ENDBRANCH  21  22
ENDBRANCH  20  21
ENDBRANCH  17  20
ENDBRANCH   4  16
TORSDOF 5
ENDMDL
MODEL 9
REMARK VINA RESULT:      -7.3      6.181      9.267
REMARK  Name = 
REMARK  6 active torsions:
REMARK  status: ('A' for Active; 'I' for Inactive)
REMARK    1  A    between atoms: C_1  and  C_2
REMARK    2  A    between atoms: C_8  and  C_9
REMARK    3  A    between atoms: C_12  and  N_13
REMARK    4  A    between atoms: C_14  and  O_16
REMARK    5  A    between atoms: O_16  and  C_17
REMARK    6  A    between atoms: C_17  and  C_18
REMARK                            x       y       z     vdW  Elec       q    Type
REMARK                         _______ _______ _______ _____ _____    ______ ____
ROOT
ATOM      1  C   UNL     1       2.468   6.250  19.078  0.00  0.00    +0.000 A 
ATOM      2  C   UNL     1       1.987   6.828  20.248  0.00  0.00    +0.000 A 
ATOM      3  C   UNL     1       1.611   8.174  20.272  0.00  0.00    +0.000 A 
ATOM      4  C   UNL     1       1.691   8.973  19.132  0.00  0.00    +0.000 A 
ATOM      5  C   UNL     1       2.192   8.403  17.956  0.00  0.00    +0.000 A 
ATOM      6  C   UNL     1       2.576   7.049  17.929  0.00  0.00    +0.000 A 
ENDROOT
BRANCH   1  14
ATOM      7  C   UNL     1       0.766   3.843  20.227  0.00  0.00    +0.000 C 
ATOM      8  C   UNL     1       1.618   3.779  18.952  0.00  0.00    +0.000 C 
ATOM      9  C   UNL     1       2.047   2.341  18.683  0.00  0.00    +0.000 C 
ATOM     10  C   UNL     1       3.521   2.086  18.613  0.00  0.00    +0.000 C 
ATOM     11  O   UNL     1       3.963   0.965  18.365  0.00  0.00    +0.000 OA
ATOM     12  N   UNL     1       4.357   3.134  18.844  0.00  0.00    +0.000 N 
ATOM     13  N   UNL     1       4.024   4.432  18.998  0.00  0.00    +0.000 NA
ATOM     14  C   UNL     1       2.773   4.779  19.020  0.00  0.00    +0.000 C 
ATOM     15  H   UNL     1       5.350   2.936  18.766  0.00  0.00    +0.000 HD
ENDBRANCH   1  14
BRANCH   4  16
ATOM     16  N   UNL     1       1.231  10.312  19.107  0.00  0.00    +0.000 N 
ATOM     17  C   UNL     1      -0.000  10.731  18.662  0.00  0.00    +0.000 C 
ATOM     18  O   UNL     1      -0.958  10.027  18.371  0.00  0.00    +0.000 OA
ATOM     19  H   UNL     1       1.883  11.055  19.319  0.00  0.00    +0.000 HD
BRANCH  17  20
ATOM     20  O   UNL     1       0.003  12.081  18.497  0.00  0.00    +0.000 OA
BRANCH  20  21
ATOM     21  C   UNL     1       0.829  12.770  19.450  0.00  0.00    +0.000 C 
BRANCH  21  22
ATOM     22  C   UNL     1       1.526  13.978  18.875  0.00  0.00    +0.000 A 
ATOM     23  C   UNL     1       0.936  15.246  18.971  0.00  0.00    +0.000 A 
ATOM     24  C   UNL     1       1.603  16.377  18.496  0.00  0.00    +0.000 A 
ATOM     25  C   UNL     1       2.862  16.252  17.913  0.00  0.00    +0.000 A 
ATOM     26  C   UNL     1       3.457  14.997  17.805  0.00  0.00    +0.000 A 
ATOM     27  C   UNL     1       2.792  13.865  18.282  0.00  0.00    +0.000 A 
ENDBRANCH  21  22
ENDBRANCH  20  21
ENDBRANCH  17  20
ENDBRANCH   4  16
TORSDOF 5
ENDMDL
