MODEL 1
REMARK VINA RESULT:      -7.8      0.000      0.000
REMARK  Name = 
REMARK  3 active torsions:
REMARK  status: ('A' for Active; 'I' for Inactive)
REMARK    1  A    between atoms: C_1  and  C_2
REMARK    2  A    between atoms: N_9  and  C_10
REMARK    3  A    between atoms: C_10  and  C_11
REMARK                            x       y       z     vdW  Elec       q    Type
REMARK                         _______ _______ _______ _____ _____    ______ ____
ROOT
ATOM      1  C   UNL     1      -1.403  11.973  22.925  0.00  0.00    +0.000 C 
ATOM      2  C   UNL     1      -0.637  10.883  22.250  0.00  0.00    +0.000 A 
ATOM      3  C   UNL     1      -0.293   9.642  22.756  0.00  0.00    +0.000 A 
ATOM      4  C   UNL     1       0.444   8.907  21.788  0.00  0.00    +0.000 A 
ATOM      5  N   UNL     1       1.049   7.668  21.682  0.00  0.00    +0.000 N 
ATOM      6  C   UNL     1       1.609   7.586  20.435  0.00  0.00    +0.000 A 
ATOM      7  C   UNL     1       2.357   6.509  19.841  0.00  0.00    +0.000 A 
ATOM      8  O   UNL     1       2.590   5.458  20.431  0.00  0.00    +0.000 OA
ATOM      9  N   UNL     1       2.775   6.798  18.521  0.00  0.00    +0.000 N 
ATOM     10  N   UNL     1       2.499   8.000  17.832  0.00  0.00    +0.000 NA
ATOM     11  C   UNL     1       1.820   8.940  18.423  0.00  0.00    +0.000 A 
ATOM     12  C   UNL     1       1.361   8.745  19.755  0.00  0.00    +0.000 A 
ATOM     13  C   UNL     1       0.626   9.586  20.613  0.00  0.00    +0.000 A 
ATOM     14  S   UNL     1      -0.089  11.155  20.640  0.00  0.00    +0.000 S 
ATOM     15  H   UNL     1       1.063   6.966  22.413  0.00  0.00    +0.000 HD
ENDROOT
BRANCH   9  16
ATOM     16  C   UNL     1       3.543   5.808  17.775  0.00  0.00    +0.000 C 
BRANCH  16  17
ATOM     17  C   UNL     1       5.031   5.949  17.966  0.00  0.00    +0.000 A 
ATOM     18  C   UNL     1       5.662   5.435  19.107  0.00  0.00    +0.000 A 
ATOM     19  C   UNL     1       7.049   5.532  19.255  0.00  0.00    +0.000 A 
ATOM     20  C   UNL     1       7.818   6.153  18.272  0.00  0.00    +0.000 A 
ATOM     21  C   UNL     1       7.198   6.691  17.146  0.00  0.00    +0.000 A 
ATOM     22  C   UNL     1       5.816   6.589  17.002  0.00  0.00    +0.000 A 
ATOM     23  F   UNL     1       5.248   7.098  15.900  0.00  0.00    +0.000 F 
ENDBRANCH  16  17
ENDBRANCH   9  16
TORSDOF 2
ENDMDL
MODEL 2
REMARK VINA RESULT:      -7.7      2.741      4.095
REMARK  Name = 
REMARK  3 active torsions:
REMARK  status: ('A' for Active; 'I' for Inactive)
REMARK    1  A    between atoms: C_1  and  C_2
REMARK    2  A    between atoms: N_9  and  C_10
REMARK    3  A    between atoms: C_10  and  C_11
REMARK                            x       y       z     vdW  Elec       q    Type
REMARK                         _______ _______ _______ _____ _____    ______ ____
ROOT
ATOM      1  C   UNL     1      -1.913  14.182  20.455  0.00  0.00    +0.000 C 
ATOM      2  C   UNL     1      -1.094  12.995  20.067  0.00  0.00    +0.000 A 
ATOM      3  C   UNL     1      -0.469  12.746  18.858  0.00  0.00    +0.000 A 
ATOM      4  C   UNL     1       0.205  11.496  18.903  0.00  0.00    +0.000 A 
ATOM      5  N   UNL     1       0.973  10.712  18.061  0.00  0.00    +0.000 N 
ATOM      6  C   UNL     1       1.321   9.582  18.751  0.00  0.00    +0.000 A 
ATOM      7  C   UNL     1       2.104   8.454  18.317  0.00  0.00    +0.000 A 
ATOM      8  O   UNL     1       2.590   8.377  17.193  0.00  0.00    +0.000 OA
ATOM      9  N   UNL     1       2.250   7.471  19.324  0.00  0.00    +0.000 N 
ATOM     10  N   UNL     1       1.704   7.561  20.624  0.00  0.00    +0.000 NA
ATOM     11  C   UNL     1       1.002   8.603  20.957  0.00  0.00    +0.000 A 
ATOM     12  C   UNL     1       0.794   9.644  20.010  0.00  0.00    +0.000 A 
ATOM     13  C   UNL     1       0.081  10.855  20.107  0.00  0.00    +0.000 A 
ATOM     14  S   UNL     1      -0.868  11.749  21.235  0.00  0.00    +0.000 S 
ATOM     15  H   UNL     1       1.217  10.954  17.108  0.00  0.00    +0.000 HD
ENDROOT
BRANCH   9  16
ATOM     16  C   UNL     1       3.019   6.264  19.047  0.00  0.00    +0.000 C 
BRANCH  16  17
ATOM     17  C   UNL     1       2.367   5.014  19.577  0.00  0.00    +0.000 A 
ATOM     18  C   UNL     1       2.586   4.592  20.897  0.00  0.00    +0.000 A 
ATOM     19  C   UNL     1       1.942   3.455  21.394  0.00  0.00    +0.000 A 
ATOM     20  C   UNL     1       1.082   2.722  20.576  0.00  0.00    +0.000 A 
ATOM     21  C   UNL     1       0.878   3.117  19.256  0.00  0.00    +0.000 A 
ATOM     22  C   UNL     1       1.520   4.252  18.767  0.00  0.00    +0.000 A 
ATOM     23  F   UNL     1       1.290   4.621  17.499  0.00  0.00    +0.000 F 
ENDBRANCH  16  17
ENDBRANCH   9  16
TORSDOF 2
ENDMDL
MODEL 3
REMARK VINA RESULT:      -7.7      2.371      3.336
REMARK  Name = 
REMARK  3 active torsions:
REMARK  status: ('A' for Active; 'I' for Inactive)
REMARK    1  A    between atoms: C_1  and  C_2
REMARK    2  A    between atoms: N_9  and  C_10
REMARK    3  A    between atoms: C_10  and  C_11
REMARK                            x       y       z     vdW  Elec       q    Type
REMARK                         _______ _______ _______ _____ _____    ______ ____
ROOT
ATOM      1  C   UNL     1      -1.945  12.229  23.378  0.00  0.00    +0.000 C 
ATOM      2  C   UNL     1      -1.129  11.453  22.397  0.00  0.00    +0.000 A 
ATOM      3  C   UNL     1      -0.779  11.808  21.106  0.00  0.00    +0.000 A 
ATOM      4  C   UNL     1       0.002  10.781  20.511  0.00  0.00    +0.000 A 
ATOM      5  N   UNL     1       0.626  10.535  19.301  0.00  0.00    +0.000 N 
ATOM      6  C   UNL     1       1.229   9.309  19.387  0.00  0.00    +0.000 A 
ATOM      7  C   UNL     1       1.993   8.597  18.397  0.00  0.00    +0.000 A 
ATOM      8  O   UNL     1       2.212   9.050  17.277  0.00  0.00    +0.000 OA
ATOM      9  N   UNL     1       2.460   7.346  18.862  0.00  0.00    +0.000 N 
ATOM     10  N   UNL     1       2.223   6.827  20.154  0.00  0.00    +0.000 NA
ATOM     11  C   UNL     1       1.521   7.514  21.006  0.00  0.00    +0.000 A 
ATOM     12  C   UNL     1       1.003   8.784  20.629  0.00  0.00    +0.000 A 
ATOM     13  C   UNL     1       0.221   9.714  21.342  0.00  0.00    +0.000 A 
ATOM     14  S   UNL     1      -0.522   9.916  22.884  0.00  0.00    +0.000 S 
ATOM     15  H   UNL     1       0.619  11.166  18.508  0.00  0.00    +0.000 HD
ENDROOT
BRANCH   9  16
ATOM     16  C   UNL     1       3.255   6.499  17.981  0.00  0.00    +0.000 C 
BRANCH  16  17
ATOM     17  C   UNL     1       3.060   5.029  18.242  0.00  0.00    +0.000 A 
ATOM     18  C   UNL     1       1.927   4.356  17.761  0.00  0.00    +0.000 A 
ATOM     19  C   UNL     1       1.777   2.982  17.971  0.00  0.00    +0.000 A 
ATOM     20  C   UNL     1       2.748   2.268  18.672  0.00  0.00    +0.000 A 
ATOM     21  C   UNL     1       3.865   2.932  19.176  0.00  0.00    +0.000 A 
ATOM     22  C   UNL     1       4.011   4.300  18.962  0.00  0.00    +0.000 A 
ATOM     23  F   UNL     1       5.105   4.910  19.441  0.00  0.00    +0.000 F 
ENDBRANCH  16  17
ENDBRANCH   9  16
TORSDOF 2
ENDMDL
MODEL 4
REMARK VINA RESULT:      -7.6      1.409      1.850
REMARK  Name = 
REMARK  3 active torsions:
REMARK  status: ('A' for Active; 'I' for Inactive)
REMARK    1  A    between atoms: C_1  and  C_2
REMARK    2  A    between atoms: N_9  and  C_10
REMARK    3  A    between atoms: C_10  and  C_11
REMARK                            x       y       z     vdW  Elec       q    Type
REMARK                         _______ _______ _______ _____ _____    ______ ____
ROOT
ATOM      1  C   UNL     1      -1.636  11.572  23.234  0.00  0.00    +0.000 C 
ATOM      2  C   UNL     1      -0.817  10.795  22.256  0.00  0.00    +0.000 A 
ATOM      3  C   UNL     1      -0.374  11.191  21.006  0.00  0.00    +0.000 A 
ATOM      4  C   UNL     1       0.372  10.146  20.397  0.00  0.00    +0.000 A 
ATOM      5  N   UNL     1       1.045   9.923  19.210  0.00  0.00    +0.000 N 
ATOM      6  C   UNL     1       1.562   8.656  19.260  0.00  0.00    +0.000 A 
ATOM      7  C   UNL     1       2.335   7.947  18.273  0.00  0.00    +0.000 A 
ATOM      8  O   UNL     1       2.644   8.441  17.193  0.00  0.00    +0.000 OA
ATOM      9  N   UNL     1       2.693   6.645  18.692  0.00  0.00    +0.000 N 
ATOM     10  N   UNL     1       2.352   6.076  19.940  0.00  0.00    +0.000 NA
ATOM     11  C   UNL     1       1.649   6.764  20.790  0.00  0.00    +0.000 A 
ATOM     12  C   UNL     1       1.235   8.084  20.457  0.00  0.00    +0.000 A 
ATOM     13  C   UNL     1       0.475   9.026  21.178  0.00  0.00    +0.000 A 
ATOM     14  S   UNL     1      -0.339   9.197  22.688  0.00  0.00    +0.000 S 
ATOM     15  H   UNL     1       1.123  10.592  18.454  0.00  0.00    +0.000 HD
ENDROOT
BRANCH   9  16
ATOM     16  C   UNL     1       3.480   5.794  17.808  0.00  0.00    +0.000 C 
BRANCH  16  17
ATOM     17  C   UNL     1       4.965   5.931  18.024  0.00  0.00    +0.000 A 
ATOM     18  C   UNL     1       5.574   5.420  19.180  0.00  0.00    +0.000 A 
ATOM     19  C   UNL     1       6.958   5.514  19.351  0.00  0.00    +0.000 A 
ATOM     20  C   UNL     1       7.746   6.128  18.378  0.00  0.00    +0.000 A 
ATOM     21  C   UNL     1       7.148   6.662  17.239  0.00  0.00    +0.000 A 
ATOM     22  C   UNL     1       5.768   6.564  17.072  0.00  0.00    +0.000 A 
ATOM     23  F   UNL     1       5.222   7.068  15.957  0.00  0.00    +0.000 F 
ENDBRANCH  16  17
ENDBRANCH   9  16
TORSDOF 2
ENDMDL
MODEL 5
REMARK VINA RESULT:      -7.3      1.847      2.172
REMARK  Name = 
REMARK  3 active torsions:
REMARK  status: ('A' for Active; 'I' for Inactive)
REMARK    1  A    between atoms: C_1  and  C_2
REMARK    2  A    between atoms: N_9  and  C_10
REMARK    3  A    between atoms: C_10  and  C_11
REMARK                            x       y       z     vdW  Elec       q    Type
REMARK                         _______ _______ _______ _____ _____    ______ ____
ROOT
ATOM      1  C   UNL     1       0.044  12.889  20.493  0.00  0.00    +0.000 C 
ATOM      2  C   UNL     1       0.534  11.485  20.349  0.00  0.00    +0.000 A 
ATOM      3  C   UNL     1       0.503  10.470  21.289  0.00  0.00    +0.000 A 
ATOM      4  C   UNL     1       1.076   9.286  20.749  0.00  0.00    +0.000 A 
ATOM      5  N   UNL     1       1.336   7.991  21.159  0.00  0.00    +0.000 N 
ATOM      6  C   UNL     1       1.931   7.337  20.114  0.00  0.00    +0.000 A 
ATOM      7  C   UNL     1       2.401   5.979  20.038  0.00  0.00    +0.000 A 
ATOM      8  O   UNL     1       2.308   5.191  20.975  0.00  0.00    +0.000 OA
ATOM      9  N   UNL     1       2.962   5.665  18.779  0.00  0.00    +0.000 N 
ATOM     10  N   UNL     1       3.059   6.563  17.692  0.00  0.00    +0.000 NA
ATOM     11  C   UNL     1       2.620   7.780  17.821  0.00  0.00    +0.000 A 
ATOM     12  C   UNL     1       2.042   8.193  19.055  0.00  0.00    +0.000 A 
ATOM     13  C   UNL     1       1.506   9.432  19.457  0.00  0.00    +0.000 A 
ATOM     14  S   UNL     1       1.233  11.020  18.846  0.00  0.00    +0.000 S 
ATOM     15  H   UNL     1       1.116   7.620  22.076  0.00  0.00    +0.000 HD
ENDROOT
BRANCH   9  16
ATOM     16  C   UNL     1       3.484   4.326  18.535  0.00  0.00    +0.000 C 
BRANCH  16  17
ATOM     17  C   UNL     1       4.758   4.326  17.730  0.00  0.00    +0.000 A 
ATOM     18  C   UNL     1       4.752   3.972  16.373  0.00  0.00    +0.000 A 
ATOM     19  C   UNL     1       5.930   4.017  15.623  0.00  0.00    +0.000 A 
ATOM     20  C   UNL     1       7.129   4.404  16.222  0.00  0.00    +0.000 A 
ATOM     21  C   UNL     1       7.151   4.733  17.576  0.00  0.00    +0.000 A 
ATOM     22  C   UNL     1       5.973   4.689  18.318  0.00  0.00    +0.000 A 
ATOM     23  F   UNL     1       6.019   5.029  19.613  0.00  0.00    +0.000 F 
ENDBRANCH  16  17
ENDBRANCH   9  16
TORSDOF 2
ENDMDL
MODEL 6
REMARK VINA RESULT:      -7.3      2.532      3.879
REMARK  Name = 
REMARK  3 active torsions:
REMARK  status: ('A' for Active; 'I' for Inactive)
REMARK    1  A    between atoms: C_1  and  C_2
REMARK    2  A    between atoms: N_9  and  C_10
REMARK    3  A    between atoms: C_10  and  C_11
REMARK                            x       y       z     vdW  Elec       q    Type
REMARK                         _______ _______ _______ _____ _____    ______ ____
ROOT
ATOM      1  C   UNL     1      -2.046  13.729  20.306  0.00  0.00    +0.000 C 
ATOM      2  C   UNL     1      -1.164  12.582  19.933  0.00  0.00    +0.000 A 
ATOM      3  C   UNL     1      -0.561  12.330  18.714  0.00  0.00    +0.000 A 
ATOM      4  C   UNL     1       0.193  11.127  18.780  0.00  0.00    +0.000 A 
ATOM      5  N   UNL     1       0.983  10.362  17.942  0.00  0.00    +0.000 N 
ATOM      6  C   UNL     1       1.423   9.282  18.659  0.00  0.00    +0.000 A 
ATOM      7  C   UNL     1       2.264   8.191  18.239  0.00  0.00    +0.000 A 
ATOM      8  O   UNL     1       2.720   8.103  17.103  0.00  0.00    +0.000 OA
ATOM      9  N   UNL     1       2.502   7.256  19.274  0.00  0.00    +0.000 N 
ATOM     10  N   UNL     1       1.991   7.359  20.587  0.00  0.00    +0.000 NA
ATOM     11  C   UNL     1       1.234   8.367  20.907  0.00  0.00    +0.000 A 
ATOM     12  C   UNL     1       0.932   9.357  19.931  0.00  0.00    +0.000 A 
ATOM     13  C   UNL     1       0.146  10.524  20.009  0.00  0.00    +0.000 A 
ATOM     14  S   UNL     1      -0.824  11.397  21.136  0.00  0.00    +0.000 S 
ATOM     15  H   UNL     1       1.183  10.584  16.973  0.00  0.00    +0.000 HD
ENDROOT
BRANCH   9  16
ATOM     16  C   UNL     1       3.338   6.090  19.014  0.00  0.00    +0.000 C 
BRANCH  16  17
ATOM     17  C   UNL     1       2.556   4.804  18.956  0.00  0.00    +0.000 A 
ATOM     18  C   UNL     1       1.579   4.512  19.919  0.00  0.00    +0.000 A 
ATOM     19  C   UNL     1       0.828   3.336  19.833  0.00  0.00    +0.000 A 
ATOM     20  C   UNL     1       1.051   2.436  18.791  0.00  0.00    +0.000 A 
ATOM     21  C   UNL     1       2.036   2.704  17.843  0.00  0.00    +0.000 A 
ATOM     22  C   UNL     1       2.780   3.879  17.933  0.00  0.00    +0.000 A 
ATOM     23  F   UNL     1       3.708   4.121  16.997  0.00  0.00    +0.000 F 
ENDBRANCH  16  17
ENDBRANCH   9  16
TORSDOF 2
ENDMDL
MODEL 7
REMARK VINA RESULT:      -7.3      3.789      7.258
REMARK  Name = 
REMARK  3 active torsions:
REMARK  status: ('A' for Active; 'I' for Inactive)
REMARK    1  A    between atoms: C_1  and  C_2
REMARK    2  A    between atoms: N_9  and  C_10
REMARK    3  A    between atoms: C_10  and  C_11
REMARK                            x       y       z     vdW  Elec       q    Type
REMARK                         _______ _______ _______ _____ _____    ______ ____
ROOT
ATOM      1  C   UNL     1       4.154   2.197  19.298  0.00  0.00    +0.000 C 
ATOM      2  C   UNL     1       3.580   3.572  19.398  0.00  0.00    +0.000 A 
ATOM      3  C   UNL     1       2.917   4.146  20.468  0.00  0.00    +0.000 A 
ATOM      4  C   UNL     1       2.528   5.474  20.149  0.00  0.00    +0.000 A 
ATOM      5  N   UNL     1       1.863   6.524  20.756  0.00  0.00    +0.000 N 
ATOM      6  C   UNL     1       1.823   7.561  19.862  0.00  0.00    +0.000 A 
ATOM      7  C   UNL     1       1.236   8.868  20.008  0.00  0.00    +0.000 A 
ATOM      8  O   UNL     1       0.666   9.228  21.033  0.00  0.00    +0.000 OA
ATOM      9  N   UNL     1       1.400   9.672  18.856  0.00  0.00    +0.000 N 
ATOM     10  N   UNL     1       2.068   9.267  17.678  0.00  0.00    +0.000 NA
ATOM     11  C   UNL     1       2.575   8.072  17.604  0.00  0.00    +0.000 A 
ATOM     12  C   UNL     1       2.456   7.186  18.711  0.00  0.00    +0.000 A 
ATOM     13  C   UNL     1       2.899   5.861  18.888  0.00  0.00    +0.000 A 
ATOM     14  S   UNL     1       3.736   4.617  18.037  0.00  0.00    +0.000 S 
ATOM     15  H   UNL     1       1.481   6.502  21.694  0.00  0.00    +0.000 HD
ENDROOT
BRANCH   9  16
ATOM     16  C   UNL     1       0.865  11.028  18.841  0.00  0.00    +0.000 C 
BRANCH  16  17
ATOM     17  C   UNL     1      -0.617  11.074  18.580  0.00  0.00    +0.000 A 
ATOM     18  C   UNL     1      -1.220  10.174  17.689  0.00  0.00    +0.000 A 
ATOM     19  C   UNL     1      -2.603  10.196  17.486  0.00  0.00    +0.000 A 
ATOM     20  C   UNL     1      -3.397  11.123  18.161  0.00  0.00    +0.000 A 
ATOM     21  C   UNL     1      -2.805  12.038  19.029  0.00  0.00    +0.000 A 
ATOM     22  C   UNL     1      -1.427  12.010  19.229  0.00  0.00    +0.000 A 
ATOM     23  F   UNL     1      -0.887  12.889  20.085  0.00  0.00    +0.000 F 
ENDBRANCH  16  17
ENDBRANCH   9  16
TORSDOF 2
ENDMDL
MODEL 8
REMARK VINA RESULT:      -7.2      1.985      2.476
REMARK  Name = 
REMARK  3 active torsions:
REMARK  status: ('A' for Active; 'I' for Inactive)
REMARK    1  A    between atoms: C_1  and  C_2
REMARK    2  A    between atoms: N_9  and  C_10
REMARK    3  A    between atoms: C_10  and  C_11
REMARK                            x       y       z     vdW  Elec       q    Type
REMARK                         _______ _______ _______ _____ _____    ______ ____
ROOT
ATOM      1  C   UNL     1      -0.792  11.720  20.251  0.00  0.00    +0.000 C 
ATOM      2  C   UNL     1       0.033  10.485  20.095  0.00  0.00    +0.000 A 
ATOM      3  C   UNL     1       0.140   9.414  20.965  0.00  0.00    +0.000 A 
ATOM      4  C   UNL     1       1.037   8.445  20.440  0.00  0.00    +0.000 A 
ATOM      5  N   UNL     1       1.551   7.215  20.808  0.00  0.00    +0.000 N 
ATOM      6  C   UNL     1       2.401   6.807  19.815  0.00  0.00    +0.000 A 
ATOM      7  C   UNL     1       3.189   5.606  19.725  0.00  0.00    +0.000 A 
ATOM      8  O   UNL     1       3.181   4.741  20.597  0.00  0.00    +0.000 OA
ATOM      9  N   UNL     1       3.949   5.538  18.535  0.00  0.00    +0.000 N 
ATOM     10  N   UNL     1       3.951   6.523  17.522  0.00  0.00    +0.000 NA
ATOM     11  C   UNL     1       3.221   7.591  17.660  0.00  0.00    +0.000 A 
ATOM     12  C   UNL     1       2.425   7.753  18.828  0.00  0.00    +0.000 A 
ATOM     13  C   UNL     1       1.565   8.795  19.225  0.00  0.00    +0.000 A 
ATOM     14  S   UNL     1       0.991  10.324  18.673  0.00  0.00    +0.000 S 
ATOM     15  H   UNL     1       1.324   6.726  21.666  0.00  0.00    +0.000 HD
ENDROOT
BRANCH   9  16
ATOM     16  C   UNL     1       4.801   4.381  18.288  0.00  0.00    +0.000 C 
BRANCH  16  17
ATOM     17  C   UNL     1       5.522   4.451  16.967  0.00  0.00    +0.000 A 
ATOM     18  C   UNL     1       4.866   4.122  15.771  0.00  0.00    +0.000 A 
ATOM     19  C   UNL     1       5.529   4.231  14.546  0.00  0.00    +0.000 A 
ATOM     20  C   UNL     1       6.857   4.658  14.501  0.00  0.00    +0.000 A 
ATOM     21  C   UNL     1       7.525   4.962  15.685  0.00  0.00    +0.000 A 
ATOM     22  C   UNL     1       6.858   4.854  16.904  0.00  0.00    +0.000 A 
ATOM     23  F   UNL     1       7.519   5.172  18.025  0.00  0.00    +0.000 F 
ENDBRANCH  16  17
ENDBRANCH   9  16
TORSDOF 2
ENDMDL
MODEL 9
REMARK VINA RESULT:      -7.2      1.363      1.398
REMARK  Name = 
REMARK  3 active torsions:
REMARK  status: ('A' for Active; 'I' for Inactive)
REMARK    1  A    between atoms: C_1  and  C_2
REMARK    2  A    between atoms: N_9  and  C_10
REMARK    3  A    between atoms: C_10  and  C_11
REMARK                            x       y       z     vdW  Elec       q    Type
REMARK                         _______ _______ _______ _____ _____    ______ ____
ROOT
ATOM      1  C   UNL     1      -0.326  12.170  22.077  0.00  0.00    +0.000 C 
ATOM      2  C   UNL     1       0.220  10.866  21.598  0.00  0.00    +0.000 A 
ATOM      3  C   UNL     1       0.274   9.661  22.277  0.00  0.00    +0.000 A 
ATOM      4  C   UNL     1       0.878   8.666  21.462  0.00  0.00    +0.000 A 
ATOM      5  N   UNL     1       1.212   7.327  21.553  0.00  0.00    +0.000 N 
ATOM      6  C   UNL     1       1.794   6.964  20.368  0.00  0.00    +0.000 A 
ATOM      7  C   UNL     1       2.322   5.686  19.966  0.00  0.00    +0.000 A 
ATOM      8  O   UNL     1       2.303   4.701  20.697  0.00  0.00    +0.000 OA
ATOM      9  N   UNL     1       2.846   5.701  18.652  0.00  0.00    +0.000 N 
ATOM     10  N   UNL     1       2.857   6.829  17.801  0.00  0.00    +0.000 NA
ATOM     11  C   UNL     1       2.369   7.958  18.222  0.00  0.00    +0.000 A 
ATOM     12  C   UNL     1       1.824   8.045  19.533  0.00  0.00    +0.000 A 
ATOM     13  C   UNL     1       1.248   9.127  20.227  0.00  0.00    +0.000 A 
ATOM     14  S   UNL     1       0.879  10.797  20.008  0.00  0.00    +0.000 S 
ATOM     15  H   UNL     1       1.047   6.744  22.365  0.00  0.00    +0.000 HD
ENDROOT
BRANCH   9  16
ATOM     16  C   UNL     1       3.418   4.484  18.090  0.00  0.00    +0.000 C 
BRANCH  16  17
ATOM     17  C   UNL     1       4.892   4.602  17.804  0.00  0.00    +0.000 A 
ATOM     18  C   UNL     1       5.792   4.983  18.810  0.00  0.00    +0.000 A 
ATOM     19  C   UNL     1       7.163   5.048  18.547  0.00  0.00    +0.000 A 
ATOM     20  C   UNL     1       7.649   4.744  17.276  0.00  0.00    +0.000 A 
ATOM     21  C   UNL     1       6.761   4.389  16.262  0.00  0.00    +0.000 A 
ATOM     22  C   UNL     1       5.396   4.324  16.531  0.00  0.00    +0.000 A 
ATOM     23  F   UNL     1       4.566   3.961  15.543  0.00  0.00    +0.000 F 
ENDBRANCH  16  17
ENDBRANCH   9  16
TORSDOF 2
ENDMDL
