MODEL 1
REMARK VINA RESULT:      -6.4      0.000      0.000
REMARK  Name = 
REMARK  7 active torsions:
REMARK  status: ('A' for Active; 'I' for Inactive)
REMARK    1  A    between atoms: C_1  and  C_2
REMARK    2  A    between atoms: C_6  and  C_7
REMARK    3  A    between atoms: C_7  and  C_8
REMARK    4  A    between atoms: C_8  and  C_9
REMARK    5  A    between atoms: N_14  and  C_15
REMARK    6  A    between atoms: C_15  and  C_16
REMARK    7  A    between atoms: C_16  and  N_17
REMARK                            x       y       z     vdW  Elec       q    Type
REMARK                         _______ _______ _______ _____ _____    ______ ____
ROOT
ATOM      1  C   UNL     1       1.635   7.937  20.386  0.00  0.00    +0.000 C 
ATOM      2  O   UNL     1       1.305   8.077  21.559  0.00  0.00    +0.000 OA
ATOM      3  N   UNL     1       2.071   6.722  19.869  0.00  0.00    +0.000 N 
ATOM      4  C   UNL     1       2.117   5.543  20.735  0.00  0.00    +0.000 C 
ATOM      5  C   UNL     1       1.584   4.300  19.988  0.00  0.00    +0.000 C 
ATOM      6  N   UNL     1       2.236   4.024  18.683  0.00  0.00    +0.000 NA
ATOM      7  C   UNL     1       2.146   5.253  17.858  0.00  0.00    +0.000 C 
ATOM      8  C   UNL     1       2.677   6.528  18.543  0.00  0.00    +0.000 C 
ENDROOT
BRANCH   1   9
ATOM      9  C   UNL     1       1.493   9.069  19.388  0.00  0.00    +0.000 C 
BRANCH   9  10
ATOM     10  C   UNL     1       0.206   9.870  19.541  0.00  0.00    +0.000 C 
BRANCH  10  16
ATOM     11  C   UNL     1      -0.633  10.965  22.480  0.00  0.00    +0.000 C 
ATOM     12  C   UNL     1       0.141  11.679  21.431  0.00  0.00    +0.000 A 
ATOM     13  N   UNL     1       0.530  12.986  21.685  0.00  0.00    +0.000 NA
ATOM     14  C   UNL     1       1.194  13.461  20.656  0.00  0.00    +0.000 A 
ATOM     15  S   UNL     1       1.397  12.395  19.335  0.00  0.00    +0.000 S 
ATOM     16  C   UNL     1       0.513  11.192  20.188  0.00  0.00    +0.000 A 
ENDBRANCH  10  16
ENDBRANCH   9  10
ENDBRANCH   1   9
BRANCH   6  17
ATOM     17  C   UNL     1       3.645   3.595  18.813  0.00  0.00    +0.000 C 
BRANCH  17  18
ATOM     18  C   UNL     1       4.356   3.381  17.473  0.00  0.00    +0.000 C 
BRANCH  18  19
ATOM     19  N   UNL     1       5.638   4.059  17.437  0.00  0.00    +0.000 N 
ATOM     20  C   UNL     1       6.397   4.357  16.356  0.00  0.00    +0.000 A 
ATOM     21  N   UNL     1       7.508   4.938  16.749  0.00  0.00    +0.000 NA
ATOM     22  C   UNL     1       7.383   4.950  18.112  0.00  0.00    +0.000 A 
ATOM     23  N   UNL     1       6.251   4.417  18.579  0.00  0.00    +0.000 NA
ENDBRANCH  18  19
ENDBRANCH  17  18
ENDBRANCH   6  17
TORSDOF 6
ENDMDL
MODEL 2
REMARK VINA RESULT:      -6.3      3.516      8.744
REMARK  Name = 
REMARK  7 active torsions:
REMARK  status: ('A' for Active; 'I' for Inactive)
REMARK    1  A    between atoms: C_1  and  C_2
REMARK    2  A    between atoms: C_6  and  C_7
REMARK    3  A    between atoms: C_7  and  C_8
REMARK    4  A    between atoms: C_8  and  C_9
REMARK    5  A    between atoms: N_14  and  C_15
REMARK    6  A    between atoms: C_15  and  C_16
REMARK    7  A    between atoms: C_16  and  N_17
REMARK                            x       y       z     vdW  Elec       q    Type
REMARK                         _______ _______ _______ _____ _____    ______ ____
ROOT
ATOM      1  C   UNL     1       2.571   7.095  19.119  0.00  0.00    +0.000 C 
ATOM      2  O   UNL     1       2.639   6.295  20.046  0.00  0.00    +0.000 OA
ATOM      3  N   UNL     1       1.776   8.234  19.167  0.00  0.00    +0.000 N 
ATOM      4  C   UNL     1       1.003   8.525  20.375  0.00  0.00    +0.000 C 
ATOM      5  C   UNL     1       1.085  10.028  20.723  0.00  0.00    +0.000 C 
ATOM      6  N   UNL     1       0.711  10.950  19.620  0.00  0.00    +0.000 NA
ATOM      7  C   UNL     1       1.534  10.603  18.436  0.00  0.00    +0.000 C 
ATOM      8  C   UNL     1       1.482   9.118  18.029  0.00  0.00    +0.000 C 
ENDROOT
BRANCH   1   9
ATOM      9  C   UNL     1       3.437   6.944  17.884  0.00  0.00    +0.000 C 
BRANCH   9  10
ATOM     10  C   UNL     1       3.748   5.497  17.520  0.00  0.00    +0.000 C 
BRANCH  10  16
ATOM     11  C   UNL     1       5.677   5.036  14.949  0.00  0.00    +0.000 C 
ATOM     12  C   UNL     1       6.069   5.082  16.382  0.00  0.00    +0.000 A 
ATOM     13  N   UNL     1       7.401   4.861  16.702  0.00  0.00    +0.000 NA
ATOM     14  C   UNL     1       7.564   4.931  18.002  0.00  0.00    +0.000 A 
ATOM     15  S   UNL     1       6.160   5.261  18.921  0.00  0.00    +0.000 S 
ATOM     16  C   UNL     1       5.238   5.302  17.470  0.00  0.00    +0.000 A 
ENDBRANCH  10  16
ENDBRANCH   9  10
ENDBRANCH   1   9
BRANCH   6  17
ATOM     17  C   UNL     1      -0.727  10.898  19.279  0.00  0.00    +0.000 C 
BRANCH  17  18
ATOM     18  C   UNL     1      -1.145  11.897  18.195  0.00  0.00    +0.000 C 
BRANCH  18  19
ATOM     19  N   UNL     1      -2.448  11.573  17.647  0.00  0.00    +0.000 N 
ATOM     20  C   UNL     1      -3.639  11.529  18.290  0.00  0.00    +0.000 A 
ATOM     21  N   UNL     1      -4.576  11.152  17.449  0.00  0.00    +0.000 NA
ATOM     22  C   UNL     1      -3.883  10.953  16.285  0.00  0.00    +0.000 A 
ATOM     23  N   UNL     1      -2.572  11.196  16.362  0.00  0.00    +0.000 NA
ENDBRANCH  18  19
ENDBRANCH  17  18
ENDBRANCH   6  17
TORSDOF 6
ENDMDL
MODEL 3
REMARK VINA RESULT:      -6.3      1.725      2.043
REMARK  Name = 
REMARK  7 active torsions:
REMARK  status: ('A' for Active; 'I' for Inactive)
REMARK    1  A    between atoms: C_1  and  C_2
REMARK    2  A    between atoms: C_6  and  C_7
REMARK    3  A    between atoms: C_7  and  C_8
REMARK    4  A    between atoms: C_8  and  C_9
REMARK    5  A    between atoms: N_14  and  C_15
REMARK    6  A    between atoms: C_15  and  C_16
REMARK    7  A    between atoms: C_16  and  N_17
REMARK                            x       y       z     vdW  Elec       q    Type
REMARK                         _______ _______ _______ _____ _____    ______ ____
ROOT
ATOM      1  C   UNL     1       1.525   8.358  19.996  0.00  0.00    +0.000 C 
ATOM      2  O   UNL     1       0.906   8.604  21.025  0.00  0.00    +0.000 OA
ATOM      3  N   UNL     1       2.080   7.109  19.735  0.00  0.00    +0.000 N 
ATOM      4  C   UNL     1       1.904   6.024  20.701  0.00  0.00    +0.000 C 
ATOM      5  C   UNL     1       1.581   4.699  19.975  0.00  0.00    +0.000 C 
ATOM      6  N   UNL     1       2.546   4.313  18.914  0.00  0.00    +0.000 NA
ATOM      7  C   UNL     1       2.669   5.451  17.972  0.00  0.00    +0.000 C 
ATOM      8  C   UNL     1       3.005   6.801  18.635  0.00  0.00    +0.000 C 
ENDROOT
BRANCH   1   9
ATOM      9  C   UNL     1       1.642   9.380  18.883  0.00  0.00    +0.000 C 
BRANCH   9  10
ATOM     10  C   UNL     1       0.418   9.453  17.979  0.00  0.00    +0.000 C 
BRANCH  10  16
ATOM     11  C   UNL     1      -2.781   9.795  17.545  0.00  0.00    +0.000 C 
ATOM     12  C   UNL     1      -1.858  10.713  18.262  0.00  0.00    +0.000 A 
ATOM     13  N   UNL     1      -2.381  11.888  18.782  0.00  0.00    +0.000 NA
ATOM     14  C   UNL     1      -1.431  12.575  19.372  0.00  0.00    +0.000 A 
ATOM     15  S   UNL     1       0.130  11.877  19.347  0.00  0.00    +0.000 S 
ATOM     16  C   UNL     1      -0.497  10.544  18.460  0.00  0.00    +0.000 A 
ENDBRANCH  10  16
ENDBRANCH   9  10
ENDBRANCH   1   9
BRANCH   6  17
ATOM     17  C   UNL     1       3.875   3.937  19.443  0.00  0.00    +0.000 C 
BRANCH  17  18
ATOM     18  C   UNL     1       4.929   3.692  18.357  0.00  0.00    +0.000 C 
BRANCH  18  19
ATOM     19  N   UNL     1       6.005   4.662  18.434  0.00  0.00    +0.000 N 
ATOM     20  C   UNL     1       6.611   5.320  17.417  0.00  0.00    +0.000 A 
ATOM     21  N   UNL     1       7.568   6.081  17.899  0.00  0.00    +0.000 NA
ATOM     22  C   UNL     1       7.517   5.826  19.243  0.00  0.00    +0.000 A 
ATOM     23  N   UNL     1       6.573   4.957  19.616  0.00  0.00    +0.000 NA
ENDBRANCH  18  19
ENDBRANCH  17  18
ENDBRANCH   6  17
TORSDOF 6
ENDMDL
MODEL 4
REMARK VINA RESULT:      -6.2      1.532      1.960
REMARK  Name = 
REMARK  7 active torsions:
REMARK  status: ('A' for Active; 'I' for Inactive)
REMARK    1  A    between atoms: C_1  and  C_2
REMARK    2  A    between atoms: C_6  and  C_7
REMARK    3  A    between atoms: C_7  and  C_8
REMARK    4  A    between atoms: C_8  and  C_9
REMARK    5  A    between atoms: N_14  and  C_15
REMARK    6  A    between atoms: C_15  and  C_16
REMARK    7  A    between atoms: C_16  and  N_17
REMARK                            x       y       z     vdW  Elec       q    Type
REMARK                         _______ _______ _______ _____ _____    ______ ____
ROOT
ATOM      1  C   UNL     1       2.103   7.623  19.462  0.00  0.00    +0.000 C 
ATOM      2  O   UNL     1       1.472   7.550  20.510  0.00  0.00    +0.000 OA
ATOM      3  N   UNL     1       2.999   6.641  19.054  0.00  0.00    +0.000 N 
ATOM      4  C   UNL     1       3.190   5.450  19.883  0.00  0.00    +0.000 C 
ATOM      5  C   UNL     1       3.259   4.182  19.002  0.00  0.00    +0.000 C 
ATOM      6  N   UNL     1       4.259   4.231  17.906  0.00  0.00    +0.000 NA
ATOM      7  C   UNL     1       4.002   5.454  17.107  0.00  0.00    +0.000 C 
ATOM      8  C   UNL     1       3.937   6.757  17.928  0.00  0.00    +0.000 C 
ENDROOT
BRANCH   1   9
ATOM      9  C   UNL     1       1.869   8.754  18.479  0.00  0.00    +0.000 C 
BRANCH   9  10
ATOM     10  C   UNL     1       0.628   9.586  18.779  0.00  0.00    +0.000 C 
BRANCH  10  16
ATOM     11  C   UNL     1       0.104  10.385  21.882  0.00  0.00    +0.000 C 
ATOM     12  C   UNL     1       0.789  11.193  20.839  0.00  0.00    +0.000 A 
ATOM     13  N   UNL     1       1.231  12.462  21.183  0.00  0.00    +0.000 NA
ATOM     14  C   UNL     1       1.802  13.031  20.146  0.00  0.00    +0.000 A 
ATOM     15  S   UNL     1       1.852  12.103  18.711  0.00  0.00    +0.000 S 
ATOM     16  C   UNL     1       1.027  10.830  19.522  0.00  0.00    +0.000 A 
ENDBRANCH  10  16
ENDBRANCH   9  10
ENDBRANCH   1   9
BRANCH   6  17
ATOM     17  C   UNL     1       5.657   4.218  18.391  0.00  0.00    +0.000 C 
BRANCH  17  18
ATOM     18  C   UNL     1       6.687   4.603  17.324  0.00  0.00    +0.000 C 
BRANCH  18  19
ATOM     19  N   UNL     1       7.320   5.872  17.629  0.00  0.00    +0.000 N 
ATOM     20  C   UNL     1       7.870   6.272  18.800  0.00  0.00    +0.000 A 
ATOM     21  N   UNL     1       8.302   7.507  18.681  0.00  0.00    +0.000 NA
ATOM     22  C   UNL     1       7.963   7.828  17.394  0.00  0.00    +0.000 A 
ATOM     23  N   UNL     1       7.354   6.854  16.712  0.00  0.00    +0.000 NA
ENDBRANCH  18  19
ENDBRANCH  17  18
ENDBRANCH   6  17
TORSDOF 6
ENDMDL
MODEL 5
REMARK VINA RESULT:      -6.2      1.269      1.548
REMARK  Name = 
REMARK  7 active torsions:
REMARK  status: ('A' for Active; 'I' for Inactive)
REMARK    1  A    between atoms: C_1  and  C_2
REMARK    2  A    between atoms: C_6  and  C_7
REMARK    3  A    between atoms: C_7  and  C_8
REMARK    4  A    between atoms: C_8  and  C_9
REMARK    5  A    between atoms: N_14  and  C_15
REMARK    6  A    between atoms: C_15  and  C_16
REMARK    7  A    between atoms: C_16  and  N_17
REMARK                            x       y       z     vdW  Elec       q    Type
REMARK                         _______ _______ _______ _____ _____    ______ ____
ROOT
ATOM      1  C   UNL     1       1.607   8.147  20.342  0.00  0.00    +0.000 C 
ATOM      2  O   UNL     1       1.317   8.340  21.518  0.00  0.00    +0.000 OA
ATOM      3  N   UNL     1       2.061   6.919  19.873  0.00  0.00    +0.000 N 
ATOM      4  C   UNL     1       2.175   5.790  20.797  0.00  0.00    +0.000 C 
ATOM      5  C   UNL     1       1.654   4.494  20.138  0.00  0.00    +0.000 C 
ATOM      6  N   UNL     1       2.264   4.167  18.824  0.00  0.00    +0.000 NA
ATOM      7  C   UNL     1       2.106   5.347  17.940  0.00  0.00    +0.000 C 
ATOM      8  C   UNL     1       2.622   6.671  18.536  0.00  0.00    +0.000 C 
ENDROOT
BRANCH   1   9
ATOM      9  C   UNL     1       1.393   9.219  19.292  0.00  0.00    +0.000 C 
BRANCH   9  10
ATOM     10  C   UNL     1      -0.039   9.736  19.220  0.00  0.00    +0.000 C 
BRANCH  10  16
ATOM     11  C   UNL     1      -2.189  11.634  17.699  0.00  0.00    +0.000 C 
ATOM     12  C   UNL     1      -0.922  12.045  18.360  0.00  0.00    +0.000 A 
ATOM     13  N   UNL     1      -0.560  13.383  18.301  0.00  0.00    +0.000 NA
ATOM     14  C   UNL     1       0.580  13.562  18.926  0.00  0.00    +0.000 A 
ATOM     15  S   UNL     1       1.288  12.168  19.617  0.00  0.00    +0.000 S 
ATOM     16  C   UNL     1      -0.024  11.226  19.026  0.00  0.00    +0.000 A 
ENDBRANCH  10  16
ENDBRANCH   9  10
ENDBRANCH   1   9
BRANCH   6  17
ATOM     17  C   UNL     1       3.690   3.786  18.922  0.00  0.00    +0.000 C 
BRANCH  17  18
ATOM     18  C   UNL     1       4.344   3.478  17.571  0.00  0.00    +0.000 C 
BRANCH  18  19
ATOM     19  N   UNL     1       5.656   4.087  17.465  0.00  0.00    +0.000 N 
ATOM     20  C   UNL     1       6.391   4.301  16.348  0.00  0.00    +0.000 A 
ATOM     21  N   UNL     1       7.543   4.840  16.679  0.00  0.00    +0.000 NA
ATOM     22  C   UNL     1       7.467   4.913  18.044  0.00  0.00    +0.000 A 
ATOM     23  N   UNL     1       6.327   4.458  18.570  0.00  0.00    +0.000 NA
ENDBRANCH  18  19
ENDBRANCH  17  18
ENDBRANCH   6  17
TORSDOF 6
ENDMDL
MODEL 6
REMARK VINA RESULT:      -6.2      3.304      9.083
REMARK  Name = 
REMARK  7 active torsions:
REMARK  status: ('A' for Active; 'I' for Inactive)
REMARK    1  A    between atoms: C_1  and  C_2
REMARK    2  A    between atoms: C_6  and  C_7
REMARK    3  A    between atoms: C_7  and  C_8
REMARK    4  A    between atoms: C_8  and  C_9
REMARK    5  A    between atoms: N_14  and  C_15
REMARK    6  A    between atoms: C_15  and  C_16
REMARK    7  A    between atoms: C_16  and  N_17
REMARK                            x       y       z     vdW  Elec       q    Type
REMARK                         _______ _______ _______ _____ _____    ______ ____
ROOT
ATOM      1  C   UNL     1       2.217   8.213  18.432  0.00  0.00    +0.000 C 
ATOM      2  O   UNL     1       2.391   8.516  17.257  0.00  0.00    +0.000 OA
ATOM      3  N   UNL     1       1.459   8.989  19.303  0.00  0.00    +0.000 N 
ATOM      4  C   UNL     1       0.811  10.204  18.809  0.00  0.00    +0.000 C 
ATOM      5  C   UNL     1      -0.624  10.320  19.370  0.00  0.00    +0.000 C 
ATOM      6  N   UNL     1      -0.731  10.226  20.848  0.00  0.00    +0.000 NA
ATOM      7  C   UNL     1      -0.062   8.973  21.275  0.00  0.00    +0.000 C 
ATOM      8  C   UNL     1       1.381   8.805  20.760  0.00  0.00    +0.000 C 
ENDROOT
BRANCH   1   9
ATOM      9  C   UNL     1       2.739   6.906  18.995  0.00  0.00    +0.000 C 
BRANCH   9  10
ATOM     10  C   UNL     1       2.378   5.684  18.158  0.00  0.00    +0.000 C 
BRANCH  10  16
ATOM     11  C   UNL     1       0.935   3.700  20.284  0.00  0.00    +0.000 C 
ATOM     12  C   UNL     1       2.318   3.605  19.747  0.00  0.00    +0.000 A 
ATOM     13  N   UNL     1       3.134   2.588  20.220  0.00  0.00    +0.000 NA
ATOM     14  C   UNL     1       4.312   2.659  19.646  0.00  0.00    +0.000 A 
ATOM     15  S   UNL     1       4.525   3.926  18.518  0.00  0.00    +0.000 S 
ATOM     16  C   UNL     1       2.915   4.447  18.820  0.00  0.00    +0.000 A 
ENDBRANCH  10  16
ENDBRANCH   9  10
ENDBRANCH   1   9
BRANCH   6  17
ATOM     17  C   UNL     1      -0.144  11.387  21.550  0.00  0.00    +0.000 C 
BRANCH  17  18
ATOM     18  C   UNL     1      -0.970  12.671  21.425  0.00  0.00    +0.000 C 
BRANCH  18  19
ATOM     19  N   UNL     1      -2.245  12.551  22.105  0.00  0.00    +0.000 N 
ATOM     20  C   UNL     1      -3.487  12.690  21.584  0.00  0.00    +0.000 A 
ATOM     21  N   UNL     1      -4.380  12.547  22.537  0.00  0.00    +0.000 NA
ATOM     22  C   UNL     1      -3.610  12.340  23.650  0.00  0.00    +0.000 A 
ATOM     23  N   UNL     1      -2.292  12.338  23.432  0.00  0.00    +0.000 NA
ENDBRANCH  18  19
ENDBRANCH  17  18
ENDBRANCH   6  17
TORSDOF 6
ENDMDL
MODEL 7
REMARK VINA RESULT:      -6.2      4.431      6.895
REMARK  Name = 
REMARK  7 active torsions:
REMARK  status: ('A' for Active; 'I' for Inactive)
REMARK    1  A    between atoms: C_1  and  C_2
REMARK    2  A    between atoms: C_6  and  C_7
REMARK    3  A    between atoms: C_7  and  C_8
REMARK    4  A    between atoms: C_8  and  C_9
REMARK    5  A    between atoms: N_14  and  C_15
REMARK    6  A    between atoms: C_15  and  C_16
REMARK    7  A    between atoms: C_16  and  N_17
REMARK                            x       y       z     vdW  Elec       q    Type
REMARK                         _______ _______ _______ _____ _____    ______ ____
ROOT
ATOM      1  C   UNL     1       4.712   4.165  18.341  0.00  0.00    +0.000 C 
ATOM      2  O   UNL     1       4.925   3.416  19.289  0.00  0.00    +0.000 OA
ATOM      3  N   UNL     1       5.537   5.242  18.035  0.00  0.00    +0.000 N 
ATOM      4  C   UNL     1       6.729   5.491  18.846  0.00  0.00    +0.000 C 
ATOM      5  C   UNL     1       7.929   5.862  17.947  0.00  0.00    +0.000 C 
ATOM      6  N   UNL     1       7.686   6.983  17.004  0.00  0.00    +0.000 NA
ATOM      7  C   UNL     1       6.473   6.660  16.214  0.00  0.00    +0.000 C 
ATOM      8  C   UNL     1       5.234   6.296  17.056  0.00  0.00    +0.000 C 
ENDROOT
BRANCH   1   9
ATOM      9  C   UNL     1       3.578   3.903  17.370  0.00  0.00    +0.000 C 
BRANCH   9  10
ATOM     10  C   UNL     1       2.248   4.518  17.791  0.00  0.00    +0.000 C 
BRANCH  10  16
ATOM     11  C   UNL     1       1.874   6.101  20.601  0.00  0.00    +0.000 C 
ATOM     12  C   UNL     1       1.714   4.644  20.351  0.00  0.00    +0.000 A 
ATOM     13  N   UNL     1       1.414   3.826  21.430  0.00  0.00    +0.000 NA
ATOM     14  C   UNL     1       1.316   2.579  21.029  0.00  0.00    +0.000 A 
ATOM     15  S   UNL     1       1.572   2.302  19.362  0.00  0.00    +0.000 S 
ATOM     16  C   UNL     1       1.855   3.983  19.140  0.00  0.00    +0.000 A 
ENDBRANCH  10  16
ENDBRANCH   9  10
ENDBRANCH   1   9
BRANCH   6  17
ATOM     17  C   UNL     1       7.526   8.289  17.679  0.00  0.00    +0.000 C 
BRANCH  17  18
ATOM     18  C   UNL     1       8.639   8.610  18.682  0.00  0.00    +0.000 C 
BRANCH  18  19
ATOM     19  N   UNL     1       8.860  10.040  18.792  0.00  0.00    +0.000 N 
ATOM     20  C   UNL     1       8.728  10.983  17.829  0.00  0.00    +0.000 A 
ATOM     21  N   UNL     1       9.060  12.156  18.319  0.00  0.00    +0.000 NA
ATOM     22  C   UNL     1       9.416  11.862  19.608  0.00  0.00    +0.000 A 
ATOM     23  N   UNL     1       9.312  10.573  19.941  0.00  0.00    +0.000 NA
ENDBRANCH  18  19
ENDBRANCH  17  18
ENDBRANCH   6  17
TORSDOF 6
ENDMDL
MODEL 8
REMARK VINA RESULT:      -6.1      2.998      7.565
REMARK  Name = 
REMARK  7 active torsions:
REMARK  status: ('A' for Active; 'I' for Inactive)
REMARK    1  A    between atoms: C_1  and  C_2
REMARK    2  A    between atoms: C_6  and  C_7
REMARK    3  A    between atoms: C_7  and  C_8
REMARK    4  A    between atoms: C_8  and  C_9
REMARK    5  A    between atoms: N_14  and  C_15
REMARK    6  A    between atoms: C_15  and  C_16
REMARK    7  A    between atoms: C_16  and  N_17
REMARK                            x       y       z     vdW  Elec       q    Type
REMARK                         _______ _______ _______ _____ _____    ______ ____
ROOT
ATOM      1  C   UNL     1       2.554   3.433  17.483  0.00  0.00    +0.000 C 
ATOM      2  O   UNL     1       2.039   2.321  17.431  0.00  0.00    +0.000 OA
ATOM      3  N   UNL     1       2.247   4.357  18.476  0.00  0.00    +0.000 N 
ATOM      4  C   UNL     1       1.294   3.998  19.527  0.00  0.00    +0.000 C 
ATOM      5  C   UNL     1       1.795   4.488  20.904  0.00  0.00    +0.000 C 
ATOM      6  N   UNL     1       2.139   5.931  20.971  0.00  0.00    +0.000 NA
ATOM      7  C   UNL     1       3.109   6.220  19.886  0.00  0.00    +0.000 C 
ATOM      8  C   UNL     1       2.659   5.769  18.483  0.00  0.00    +0.000 C 
ENDROOT
BRANCH   1   9
ATOM      9  C   UNL     1       3.648   3.839  16.515  0.00  0.00    +0.000 C 
BRANCH   9  10
ATOM     10  C   UNL     1       5.048   3.435  16.960  0.00  0.00    +0.000 C 
BRANCH  10  16
ATOM     11  C   UNL     1       6.475   4.769  14.366  0.00  0.00    +0.000 C 
ATOM     12  C   UNL     1       6.595   5.191  15.787  0.00  0.00    +0.000 A 
ATOM     13  N   UNL     1       7.443   6.248  16.084  0.00  0.00    +0.000 NA
ATOM     14  C   UNL     1       7.430   6.478  17.376  0.00  0.00    +0.000 A 
ATOM     15  S   UNL     1       6.420   5.465  18.313  0.00  0.00    +0.000 S 
ATOM     16  C   UNL     1       5.961   4.626  16.883  0.00  0.00    +0.000 A 
ENDBRANCH  10  16
ENDBRANCH   9  10
ENDBRANCH   1   9
BRANCH   6  17
ATOM     17  C   UNL     1       0.961   6.818  20.856  0.00  0.00    +0.000 C 
BRANCH  17  18
ATOM     18  C   UNL     1       1.245   8.279  21.220  0.00  0.00    +0.000 C 
BRANCH  18  19
ATOM     19  N   UNL     1       0.733   9.187  20.212  0.00  0.00    +0.000 N 
ATOM     20  C   UNL     1      -0.391   9.941  20.260  0.00  0.00    +0.000 A 
ATOM     21  N   UNL     1      -0.525  10.597  19.129  0.00  0.00    +0.000 NA
ATOM     22  C   UNL     1       0.556  10.179  18.401  0.00  0.00    +0.000 A 
ATOM     23  N   UNL     1       1.354   9.309  19.026  0.00  0.00    +0.000 NA
ENDBRANCH  18  19
ENDBRANCH  17  18
ENDBRANCH   6  17
TORSDOF 6
ENDMDL
MODEL 9
REMARK VINA RESULT:      -6.1      1.800      2.818
REMARK  Name = 
REMARK  7 active torsions:
REMARK  status: ('A' for Active; 'I' for Inactive)
REMARK    1  A    between atoms: C_1  and  C_2
REMARK    2  A    between atoms: C_6  and  C_7
REMARK    3  A    between atoms: C_7  and  C_8
REMARK    4  A    between atoms: C_8  and  C_9
REMARK    5  A    between atoms: N_14  and  C_15
REMARK    6  A    between atoms: C_15  and  C_16
REMARK    7  A    between atoms: C_16  and  N_17
REMARK                            x       y       z     vdW  Elec       q    Type
REMARK                         _______ _______ _______ _____ _____    ______ ____
ROOT
ATOM      1  C   UNL     1       2.014   5.600  20.406  0.00  0.00    +0.000 C 
ATOM      2  O   UNL     1       1.243   4.808  20.937  0.00  0.00    +0.000 OA
ATOM      3  N   UNL     1       2.870   5.236  19.372  0.00  0.00    +0.000 N 
ATOM      4  C   UNL     1       2.846   3.864  18.865  0.00  0.00    +0.000 C 
ATOM      5  C   UNL     1       2.925   3.854  17.322  0.00  0.00    +0.000 C 
ATOM      6  N   UNL     1       4.065   4.613  16.746  0.00  0.00    +0.000 NA
ATOM      7  C   UNL     1       4.022   5.989  17.296  0.00  0.00    +0.000 C 
ATOM      8  C   UNL     1       3.958   6.066  18.834  0.00  0.00    +0.000 C 
ENDROOT
BRANCH   1   9
ATOM      9  C   UNL     1       2.011   7.070  20.776  0.00  0.00    +0.000 C 
BRANCH   9  10
ATOM     10  C   UNL     1       0.630   7.713  20.744  0.00  0.00    +0.000 C 
BRANCH  10  16
ATOM     11  C   UNL     1       1.528   8.973  17.890  0.00  0.00    +0.000 C 
ATOM     12  C   UNL     1       1.162   9.705  19.131  0.00  0.00    +0.000 A 
ATOM     13  N   UNL     1       1.247  11.090  19.121  0.00  0.00    +0.000 NA
ATOM     14  C   UNL     1       0.897  11.565  20.294  0.00  0.00    +0.000 A 
ATOM     15  S   UNL     1       0.449  10.410  21.472  0.00  0.00    +0.000 S 
ATOM     16  C   UNL     1       0.758   9.155  20.338  0.00  0.00    +0.000 A 
ENDBRANCH  10  16
ENDBRANCH   9  10
ENDBRANCH   1   9
BRANCH   6  17
ATOM     17  C   UNL     1       5.378   3.990  17.021  0.00  0.00    +0.000 C 
BRANCH  17  18
ATOM     18  C   UNL     1       6.547   4.659  16.291  0.00  0.00    +0.000 C 
BRANCH  18  19
ATOM     19  N   UNL     1       7.158   5.694  17.103  0.00  0.00    +0.000 N 
ATOM     20  C   UNL     1       7.621   5.598  18.371  0.00  0.00    +0.000 A 
ATOM     21  N   UNL     1       8.063   6.771  18.766  0.00  0.00    +0.000 NA
ATOM     22  C   UNL     1       7.820   7.571  17.682  0.00  0.00    +0.000 A 
ATOM     23  N   UNL     1       7.262   6.952  16.638  0.00  0.00    +0.000 NA
ENDBRANCH  18  19
ENDBRANCH  17  18
ENDBRANCH   6  17
TORSDOF 6
ENDMDL
