MODEL 1
REMARK VINA RESULT:      -7.3      0.000      0.000
REMARK  Name = 
REMARK  11 active torsions:
REMARK  status: ('A' for Active; 'I' for Inactive)
REMARK    1  A    between atoms: C_1  and  O_2
REMARK    2  A    between atoms: O_2  and  C_3
REMARK    3  A    between atoms: C_8  and  O_9
REMARK    4  A    between atoms: O_9  and  C_10
REMARK    5  A    between atoms: C_10  and  C_11
REMARK    6  A    between atoms: C_11  and  O_12
REMARK    7  A    between atoms: C_11  and  C_13
REMARK    8  A    between atoms: C_13  and  O_14
REMARK    9  A    between atoms: C_19  and  C_20
REMARK   10  A    between atoms: C_23  and  C_24
REMARK   11  A    between atoms: N_29  and  C_30
REMARK                            x       y       z     vdW  Elec       q    Type
REMARK                         _______ _______ _______ _____ _____    ______ ____
ROOT
ATOM      1  C   UNL     1       5.787   6.203  17.107  0.00  0.00    +0.000 A 
ATOM      2  C   UNL     1       4.743   6.154  18.032  0.00  0.00    +0.000 A 
ATOM      3  C   UNL     1       4.272   4.957  18.595  0.00  0.00    +0.000 A 
ATOM      4  C   UNL     1       4.940   3.758  18.293  0.00  0.00    +0.000 A 
ATOM      5  C   UNL     1       6.022   3.808  17.421  0.00  0.00    +0.000 A 
ATOM      6  C   UNL     1       6.470   5.005  16.831  0.00  0.00    +0.000 A 
ATOM      7  N   UNL     1       4.610   2.583  18.848  0.00  0.00    +0.000 NA
ATOM      8  C   UNL     1       3.606   2.500  19.738  0.00  0.00    +0.000 A 
ATOM      9  C   UNL     1       2.881   3.641  20.047  0.00  0.00    +0.000 A 
ATOM     10  C   UNL     1       3.154   4.888  19.494  0.00  0.00    +0.000 A 
ATOM     11  C   UNL     1       2.157   5.770  20.073  0.00  0.00    +0.000 A 
ATOM     12  N   UNL     1       1.381   5.095  20.943  0.00  0.00    +0.000 NA
ATOM     13  N   UNL     1       1.822   3.833  20.891  0.00  0.00    +0.000 N 
ATOM     14  C   UNL     1       1.174   2.814  21.682  0.00  0.00    +0.000 C 
ENDROOT
BRANCH  11  15
ATOM     15  C   UNL     1       1.896   7.205  19.863  0.00  0.00    +0.000 A 
ATOM     16  C   UNL     1       1.458   8.034  20.900  0.00  0.00    +0.000 A 
ATOM     17  C   UNL     1       1.092   9.360  20.679  0.00  0.00    +0.000 A 
ATOM     18  C   UNL     1       1.278   9.935  19.415  0.00  0.00    +0.000 A 
ATOM     19  C   UNL     1       1.822   9.157  18.390  0.00  0.00    +0.000 A 
ATOM     20  C   UNL     1       2.115   7.805  18.610  0.00  0.00    +0.000 A 
BRANCH  18  21
ATOM     21  C   UNL     1       0.942  11.312  19.196  0.00  0.00    +0.000 C 
ATOM     22  N   UNL     1       0.653  12.414  19.021  0.00  0.00    +0.000 NA
ENDBRANCH  18  21
ENDBRANCH  11  15
BRANCH   1  24
ATOM     23  C   UNL     1       7.123   8.219  17.165  0.00  0.00    +0.000 C 
ATOM     24  O   UNL     1       6.156   7.380  16.517  0.00  0.00    +0.000 OA
ENDBRANCH   1  24
BRANCH   6  25
ATOM     25  O   UNL     1       7.574   4.833  16.017  0.00  0.00    +0.000 OA
BRANCH  25  26
ATOM     26  C   UNL     1       7.334   5.038  14.628  0.00  0.00    +0.000 C 
BRANCH  26  27
ATOM     27  C   UNL     1       6.443   3.959  13.996  0.00  0.00    +0.000 C 
BRANCH  27  28
ATOM     28  O   UNL     1       5.074   4.387  14.104  0.00  0.00    +0.000 OA
ATOM     29  H   UNL     1       4.722   4.044  14.945  0.00  0.00    +0.000 HD
ENDBRANCH  27  28
BRANCH  27  30
ATOM     30  C   UNL     1       6.795   3.701  12.524  0.00  0.00    +0.000 C 
BRANCH  30  31
ATOM     31  O   UNL     1       6.225   2.484  12.042  0.00  0.00    +0.000 OA
ATOM     32  H   UNL     1       6.951   1.889  11.787  0.00  0.00    +0.000 HD
ENDBRANCH  30  31
ENDBRANCH  27  30
ENDBRANCH  26  27
ENDBRANCH  25  26
ENDBRANCH   6  25
TORSDOF 9
ENDMDL
MODEL 2
REMARK VINA RESULT:      -6.7      3.325      7.232
REMARK  Name = 
REMARK  11 active torsions:
REMARK  status: ('A' for Active; 'I' for Inactive)
REMARK    1  A    between atoms: C_1  and  O_2
REMARK    2  A    between atoms: O_2  and  C_3
REMARK    3  A    between atoms: C_8  and  O_9
REMARK    4  A    between atoms: O_9  and  C_10
REMARK    5  A    between atoms: C_10  and  C_11
REMARK    6  A    between atoms: C_11  and  O_12
REMARK    7  A    between atoms: C_11  and  C_13
REMARK    8  A    between atoms: C_13  and  O_14
REMARK    9  A    between atoms: C_19  and  C_20
REMARK   10  A    between atoms: C_23  and  C_24
REMARK   11  A    between atoms: N_29  and  C_30
REMARK                            x       y       z     vdW  Elec       q    Type
REMARK                         _______ _______ _______ _____ _____    ______ ____
ROOT
ATOM      1  C   UNL     1       2.372   8.557  18.226  0.00  0.00    +0.000 A 
ATOM      2  C   UNL     1       2.926   7.276  18.208  0.00  0.00    +0.000 A 
ATOM      3  C   UNL     1       2.739   6.344  19.241  0.00  0.00    +0.000 A 
ATOM      4  C   UNL     1       1.875   6.672  20.300  0.00  0.00    +0.000 A 
ATOM      5  C   UNL     1       1.269   7.924  20.292  0.00  0.00    +0.000 A 
ATOM      6  C   UNL     1       1.487   8.870  19.273  0.00  0.00    +0.000 A 
ATOM      7  N   UNL     1       1.573   5.814  21.285  0.00  0.00    +0.000 NA
ATOM      8  C   UNL     1       2.094   4.574  21.300  0.00  0.00    +0.000 A 
ATOM      9  C   UNL     1       2.986   4.203  20.305  0.00  0.00    +0.000 A 
ATOM     10  C   UNL     1       3.360   5.050  19.266  0.00  0.00    +0.000 A 
ATOM     11  C   UNL     1       4.304   4.272  18.484  0.00  0.00    +0.000 A 
ATOM     12  N   UNL     1       4.440   3.037  19.005  0.00  0.00    +0.000 NA
ATOM     13  N   UNL     1       3.661   3.034  20.093  0.00  0.00    +0.000 N 
ATOM     14  C   UNL     1       3.602   1.857  20.929  0.00  0.00    +0.000 C 
ENDROOT
BRANCH  11  15
ATOM     15  C   UNL     1       5.078   4.617  17.280  0.00  0.00    +0.000 A 
ATOM     16  C   UNL     1       4.717   4.152  16.012  0.00  0.00    +0.000 A 
ATOM     17  C   UNL     1       5.513   4.372  14.890  0.00  0.00    +0.000 A 
ATOM     18  C   UNL     1       6.649   5.186  14.989  0.00  0.00    +0.000 A 
ATOM     19  C   UNL     1       6.969   5.758  16.224  0.00  0.00    +0.000 A 
ATOM     20  C   UNL     1       6.198   5.464  17.357  0.00  0.00    +0.000 A 
BRANCH  18  21
ATOM     21  C   UNL     1       7.446   5.450  13.827  0.00  0.00    +0.000 C 
ATOM     22  N   UNL     1       8.091   5.681  12.899  0.00  0.00    +0.000 NA
ENDBRANCH  18  21
ENDBRANCH  11  15
BRANCH   1  24
ATOM     23  C   UNL     1       2.668  10.863  17.558  0.00  0.00    +0.000 C 
ATOM     24  O   UNL     1       2.653   9.465  17.242  0.00  0.00    +0.000 OA
ENDBRANCH   1  24
BRANCH   6  25
ATOM     25  O   UNL     1       0.768  10.037  19.447  0.00  0.00    +0.000 OA
BRANCH  25  26
ATOM     26  C   UNL     1      -0.648   9.881  19.422  0.00  0.00    +0.000 C 
BRANCH  26  27
ATOM     27  C   UNL     1      -1.306  10.483  18.173  0.00  0.00    +0.000 C 
BRANCH  27  28
ATOM     28  O   UNL     1      -2.522   9.761  17.913  0.00  0.00    +0.000 OA
ATOM     29  H   UNL     1      -2.356   8.821  18.110  0.00  0.00    +0.000 HD
ENDBRANCH  27  28
BRANCH  27  30
ATOM     30  C   UNL     1      -1.611  11.979  18.338  0.00  0.00    +0.000 C 
BRANCH  30  31
ATOM     31  O   UNL     1      -1.135  12.748  17.234  0.00  0.00    +0.000 OA
ATOM     32  H   UNL     1      -1.902  13.157  16.796  0.00  0.00    +0.000 HD
ENDBRANCH  30  31
ENDBRANCH  27  30
ENDBRANCH  26  27
ENDBRANCH  25  26
ENDBRANCH   6  25
TORSDOF 9
ENDMDL
MODEL 3
REMARK VINA RESULT:      -6.6      3.225      7.427
REMARK  Name = 
REMARK  11 active torsions:
REMARK  status: ('A' for Active; 'I' for Inactive)
REMARK    1  A    between atoms: C_1  and  O_2
REMARK    2  A    between atoms: O_2  and  C_3
REMARK    3  A    between atoms: C_8  and  O_9
REMARK    4  A    between atoms: O_9  and  C_10
REMARK    5  A    between atoms: C_10  and  C_11
REMARK    6  A    between atoms: C_11  and  O_12
REMARK    7  A    between atoms: C_11  and  C_13
REMARK    8  A    between atoms: C_13  and  O_14
REMARK    9  A    between atoms: C_19  and  C_20
REMARK   10  A    between atoms: C_23  and  C_24
REMARK   11  A    between atoms: N_29  and  C_30
REMARK                            x       y       z     vdW  Elec       q    Type
REMARK                         _______ _______ _______ _____ _____    ______ ____
ROOT
ATOM      1  C   UNL     1       2.377   8.068  18.390  0.00  0.00    +0.000 A 
ATOM      2  C   UNL     1       3.025   6.833  18.341  0.00  0.00    +0.000 A 
ATOM      3  C   UNL     1       2.942   5.881  19.369  0.00  0.00    +0.000 A 
ATOM      4  C   UNL     1       2.091   6.134  20.459  0.00  0.00    +0.000 A 
ATOM      5  C   UNL     1       1.392   7.337  20.483  0.00  0.00    +0.000 A 
ATOM      6  C   UNL     1       1.505   8.305  19.468  0.00  0.00    +0.000 A 
ATOM      7  N   UNL     1       1.887   5.248  21.444  0.00  0.00    +0.000 NA
ATOM      8  C   UNL     1       2.500   4.051  21.429  0.00  0.00    +0.000 A 
ATOM      9  C   UNL     1       3.385   3.757  20.402  0.00  0.00    +0.000 A 
ATOM     10  C   UNL     1       3.660   4.637  19.361  0.00  0.00    +0.000 A 
ATOM     11  C   UNL     1       4.634   3.940  18.542  0.00  0.00    +0.000 A 
ATOM     12  N   UNL     1       4.879   2.715  19.044  0.00  0.00    +0.000 NA
ATOM     13  N   UNL     1       4.139   2.644  20.157  0.00  0.00    +0.000 N 
ATOM     14  C   UNL     1       4.196   1.459  20.982  0.00  0.00    +0.000 C 
ENDROOT
BRANCH  11  15
ATOM     15  C   UNL     1       5.340   4.352  17.317  0.00  0.00    +0.000 A 
ATOM     16  C   UNL     1       4.811   4.115  16.045  0.00  0.00    +0.000 A 
ATOM     17  C   UNL     1       5.530   4.391  14.883  0.00  0.00    +0.000 A 
ATOM     18  C   UNL     1       6.769   5.040  14.966  0.00  0.00    +0.000 A 
ATOM     19  C   UNL     1       7.268   5.390  16.223  0.00  0.00    +0.000 A 
ATOM     20  C   UNL     1       6.567   5.038  17.384  0.00  0.00    +0.000 A 
BRANCH  18  21
ATOM     21  C   UNL     1       7.491   5.363  13.770  0.00  0.00    +0.000 C 
ATOM     22  N   UNL     1       8.056   5.618  12.798  0.00  0.00    +0.000 NA
ENDBRANCH  18  21
ENDBRANCH  11  15
BRANCH   1  24
ATOM     23  C   UNL     1       2.436  10.395  17.729  0.00  0.00    +0.000 C 
ATOM     24  O   UNL     1       2.556   9.002  17.407  0.00  0.00    +0.000 OA
ENDBRANCH   1  24
BRANCH   6  25
ATOM     25  O   UNL     1       0.706   9.412  19.677  0.00  0.00    +0.000 OA
BRANCH  25  26
ATOM     26  C   UNL     1      -0.064   9.382  20.875  0.00  0.00    +0.000 C 
BRANCH  26  27
ATOM     27  C   UNL     1      -0.253  10.765  21.515  0.00  0.00    +0.000 C 
BRANCH  27  28
ATOM     28  O   UNL     1       0.002  10.647  22.925  0.00  0.00    +0.000 OA
ATOM     29  H   UNL     1       0.136   9.703  23.124  0.00  0.00    +0.000 HD
ENDBRANCH  27  28
BRANCH  27  30
ATOM     30  C   UNL     1       0.676  11.822  20.901  0.00  0.00    +0.000 C 
BRANCH  30  31
ATOM     31  O   UNL     1       0.170  12.328  19.665  0.00  0.00    +0.000 OA
ATOM     32  H   UNL     1       0.901  12.769  19.197  0.00  0.00    +0.000 HD
ENDBRANCH  30  31
ENDBRANCH  27  30
ENDBRANCH  26  27
ENDBRANCH  25  26
ENDBRANCH   6  25
TORSDOF 9
ENDMDL
MODEL 4
REMARK VINA RESULT:      -6.6      3.423      7.593
REMARK  Name = 
REMARK  11 active torsions:
REMARK  status: ('A' for Active; 'I' for Inactive)
REMARK    1  A    between atoms: C_1  and  O_2
REMARK    2  A    between atoms: O_2  and  C_3
REMARK    3  A    between atoms: C_8  and  O_9
REMARK    4  A    between atoms: O_9  and  C_10
REMARK    5  A    between atoms: C_10  and  C_11
REMARK    6  A    between atoms: C_11  and  O_12
REMARK    7  A    between atoms: C_11  and  C_13
REMARK    8  A    between atoms: C_13  and  O_14
REMARK    9  A    between atoms: C_19  and  C_20
REMARK   10  A    between atoms: C_23  and  C_24
REMARK   11  A    between atoms: N_29  and  C_30
REMARK                            x       y       z     vdW  Elec       q    Type
REMARK                         _______ _______ _______ _____ _____    ______ ____
ROOT
ATOM      1  C   UNL     1       2.337   8.303  18.306  0.00  0.00    +0.000 A 
ATOM      2  C   UNL     1       2.944   7.048  18.268  0.00  0.00    +0.000 A 
ATOM      3  C   UNL     1       2.809   6.099  19.294  0.00  0.00    +0.000 A 
ATOM      4  C   UNL     1       1.945   6.380  20.367  0.00  0.00    +0.000 A 
ATOM      5  C   UNL     1       1.286   7.605  20.378  0.00  0.00    +0.000 A 
ATOM      6  C   UNL     1       1.451   8.569  19.366  0.00  0.00    +0.000 A 
ATOM      7  N   UNL     1       1.692   5.501  21.347  0.00  0.00    +0.000 NA
ATOM      8  C   UNL     1       2.265   4.285  21.344  0.00  0.00    +0.000 A 
ATOM      9  C   UNL     1       3.160   3.961  20.334  0.00  0.00    +0.000 A 
ATOM     10  C   UNL     1       3.485   4.832  19.299  0.00  0.00    +0.000 A 
ATOM     11  C   UNL     1       4.452   4.102  18.499  0.00  0.00    +0.000 A 
ATOM     12  N   UNL     1       4.646   2.869  19.006  0.00  0.00    +0.000 NA
ATOM     13  N   UNL     1       3.882   2.823  20.103  0.00  0.00    +0.000 N 
ATOM     14  C   UNL     1       3.882   1.637  20.928  0.00  0.00    +0.000 C 
ENDROOT
BRANCH  11  15
ATOM     15  C   UNL     1       5.195   4.491  17.289  0.00  0.00    +0.000 A 
ATOM     16  C   UNL     1       4.786   4.094  16.012  0.00  0.00    +0.000 A 
ATOM     17  C   UNL     1       5.553   4.354  14.878  0.00  0.00    +0.000 A 
ATOM     18  C   UNL     1       6.707   5.142  14.980  0.00  0.00    +0.000 A 
ATOM     19  C   UNL     1       7.075   5.647  16.230  0.00  0.00    +0.000 A 
ATOM     20  C   UNL     1       6.334   5.313  17.371  0.00  0.00    +0.000 A 
BRANCH  18  21
ATOM     21  C   UNL     1       7.473   5.447  13.807  0.00  0.00    +0.000 C 
ATOM     22  N   UNL     1       8.082   5.710  12.864  0.00  0.00    +0.000 NA
ENDBRANCH  18  21
ENDBRANCH  11  15
BRANCH   1  24
ATOM     23  C   UNL     1       2.563  10.625  17.664  0.00  0.00    +0.000 C 
ATOM     24  O   UNL     1       2.567   9.231  17.326  0.00  0.00    +0.000 OA
ENDBRANCH   1  24
BRANCH   6  25
ATOM     25  O   UNL     1       0.686   9.703  19.560  0.00  0.00    +0.000 OA
BRANCH  25  26
ATOM     26  C   UNL     1      -0.071   9.718  20.766  0.00  0.00    +0.000 C 
BRANCH  26  27
ATOM     27  C   UNL     1      -0.417  11.133  21.252  0.00  0.00    +0.000 C 
BRANCH  27  28
ATOM     28  O   UNL     1      -1.506  11.629  20.453  0.00  0.00    +0.000 OA
ATOM     29  H   UNL     1      -2.334  11.433  20.928  0.00  0.00    +0.000 HD
ENDBRANCH  27  28
BRANCH  27  30
ATOM     30  C   UNL     1      -0.803  11.160  22.738  0.00  0.00    +0.000 C 
BRANCH  30  31
ATOM     31  O   UNL     1      -0.095  10.178  23.494  0.00  0.00    +0.000 OA
ATOM     32  H   UNL     1       0.856  10.374  23.430  0.00  0.00    +0.000 HD
ENDBRANCH  30  31
ENDBRANCH  27  30
ENDBRANCH  26  27
ENDBRANCH  25  26
ENDBRANCH   6  25
TORSDOF 9
ENDMDL
MODEL 5
REMARK VINA RESULT:      -6.5      4.844      8.608
REMARK  Name = 
REMARK  11 active torsions:
REMARK  status: ('A' for Active; 'I' for Inactive)
REMARK    1  A    between atoms: C_1  and  O_2
REMARK    2  A    between atoms: O_2  and  C_3
REMARK    3  A    between atoms: C_8  and  O_9
REMARK    4  A    between atoms: O_9  and  C_10
REMARK    5  A    between atoms: C_10  and  C_11
REMARK    6  A    between atoms: C_11  and  O_12
REMARK    7  A    between atoms: C_11  and  C_13
REMARK    8  A    between atoms: C_13  and  O_14
REMARK    9  A    between atoms: C_19  and  C_20
REMARK   10  A    between atoms: C_23  and  C_24
REMARK   11  A    between atoms: N_29  and  C_30
REMARK                            x       y       z     vdW  Elec       q    Type
REMARK                         _______ _______ _______ _____ _____    ______ ____
ROOT
ATOM      1  C   UNL     1       0.500  10.410  20.314  0.00  0.00    +0.000 A 
ATOM      2  C   UNL     1      -0.758  11.013  20.271  0.00  0.00    +0.000 A 
ATOM      3  C   UNL     1      -1.585  10.984  19.137  0.00  0.00    +0.000 A 
ATOM      4  C   UNL     1      -1.177  10.232  18.021  0.00  0.00    +0.000 A 
ATOM      5  C   UNL     1       0.048   9.575  18.082  0.00  0.00    +0.000 A 
ATOM      6  C   UNL     1       0.891   9.636  19.207  0.00  0.00    +0.000 A 
ATOM      7  N   UNL     1      -1.939  10.080  16.928  0.00  0.00    +0.000 NA
ATOM      8  C   UNL     1      -3.153  10.653  16.852  0.00  0.00    +0.000 A 
ATOM      9  C   UNL     1      -3.596  11.441  17.904  0.00  0.00    +0.000 A 
ATOM     10  C   UNL     1      -2.850  11.659  19.057  0.00  0.00    +0.000 A 
ATOM     11  C   UNL     1      -3.674  12.542  19.863  0.00  0.00    +0.000 A 
ATOM     12  N   UNL     1      -4.843  12.788  19.244  0.00  0.00    +0.000 NA
ATOM     13  N   UNL     1      -4.759  12.139  18.077  0.00  0.00    +0.000 N 
ATOM     14  C   UNL     1      -5.845  12.224  17.128  0.00  0.00    +0.000 C 
ENDROOT
BRANCH  11  15
ATOM     15  C   UNL     1      -3.429  13.159  21.178  0.00  0.00    +0.000 A 
ATOM     16  C   UNL     1      -2.685  14.335  21.314  0.00  0.00    +0.000 A 
ATOM     17  C   UNL     1      -2.347  14.854  22.562  0.00  0.00    +0.000 A 
ATOM     18  C   UNL     1      -2.862  14.267  23.725  0.00  0.00    +0.000 A 
ATOM     19  C   UNL     1      -3.702  13.156  23.610  0.00  0.00    +0.000 A 
ATOM     20  C   UNL     1      -3.971  12.603  22.351  0.00  0.00    +0.000 A 
BRANCH  18  21
ATOM     21  C   UNL     1      -2.550  14.824  25.009  0.00  0.00    +0.000 C 
ATOM     22  N   UNL     1      -2.282  15.279  26.034  0.00  0.00    +0.000 NA
ENDBRANCH  18  21
ENDBRANCH  11  15
BRANCH   1  24
ATOM     23  C   UNL     1       1.304   9.514  22.413  0.00  0.00    +0.000 C 
ATOM     24  O   UNL     1       1.310  10.539  21.409  0.00  0.00    +0.000 OA
ENDBRANCH   1  24
BRANCH   6  25
ATOM     25  O   UNL     1       2.046   8.892  19.066  0.00  0.00    +0.000 OA
BRANCH  25  26
ATOM     26  C   UNL     1       2.080   8.044  17.921  0.00  0.00    +0.000 C 
BRANCH  26  27
ATOM     27  C   UNL     1       2.571   6.623  18.229  0.00  0.00    +0.000 C 
BRANCH  27  28
ATOM     28  O   UNL     1       3.718   6.355  17.404  0.00  0.00    +0.000 OA
ATOM     29  H   UNL     1       4.232   5.647  17.834  0.00  0.00    +0.000 HD
ENDBRANCH  27  28
BRANCH  27  30
ATOM     30  C   UNL     1       2.936   6.440  19.709  0.00  0.00    +0.000 C 
BRANCH  30  31
ATOM     31  O   UNL     1       1.787   6.488  20.555  0.00  0.00    +0.000 OA
ATOM     32  H   UNL     1       1.091   5.940  20.151  0.00  0.00    +0.000 HD
ENDBRANCH  30  31
ENDBRANCH  27  30
ENDBRANCH  26  27
ENDBRANCH  25  26
ENDBRANCH   6  25
TORSDOF 9
ENDMDL
MODEL 6
REMARK VINA RESULT:      -6.5      7.362     11.520
REMARK  Name = 
REMARK  11 active torsions:
REMARK  status: ('A' for Active; 'I' for Inactive)
REMARK    1  A    between atoms: C_1  and  O_2
REMARK    2  A    between atoms: O_2  and  C_3
REMARK    3  A    between atoms: C_8  and  O_9
REMARK    4  A    between atoms: O_9  and  C_10
REMARK    5  A    between atoms: C_10  and  C_11
REMARK    6  A    between atoms: C_11  and  O_12
REMARK    7  A    between atoms: C_11  and  C_13
REMARK    8  A    between atoms: C_13  and  O_14
REMARK    9  A    between atoms: C_19  and  C_20
REMARK   10  A    between atoms: C_23  and  C_24
REMARK   11  A    between atoms: N_29  and  C_30
REMARK                            x       y       z     vdW  Elec       q    Type
REMARK                         _______ _______ _______ _____ _____    ______ ____
ROOT
ATOM      1  C   UNL     1      -2.184  12.422  20.074  0.00  0.00    +0.000 A 
ATOM      2  C   UNL     1      -3.443  12.928  20.401  0.00  0.00    +0.000 A 
ATOM      3  C   UNL     1      -4.004  12.819  21.683  0.00  0.00    +0.000 A 
ATOM      4  C   UNL     1      -3.229  12.264  22.717  0.00  0.00    +0.000 A 
ATOM      5  C   UNL     1      -1.949  11.815  22.411  0.00  0.00    +0.000 A 
ATOM      6  C   UNL     1      -1.402  11.893  21.117  0.00  0.00    +0.000 A 
ATOM      7  N   UNL     1      -3.653  12.196  23.987  0.00  0.00    +0.000 NA
ATOM      8  C   UNL     1      -4.862  12.669  24.334  0.00  0.00    +0.000 A 
ATOM      9  C   UNL     1      -5.691  13.193  23.353  0.00  0.00    +0.000 A 
ATOM     10  C   UNL     1      -5.325  13.274  22.014  0.00  0.00    +0.000 A 
ATOM     11  C   UNL     1      -6.480  13.858  21.355  0.00  0.00    +0.000 A 
ATOM     12  N   UNL     1      -7.440  14.142  22.256  0.00  0.00    +0.000 NA
ATOM     13  N   UNL     1      -6.951  13.718  23.427  0.00  0.00    +0.000 N 
ATOM     14  C   UNL     1      -7.754  13.832  24.622  0.00  0.00    +0.000 C 
ENDROOT
BRANCH  11  15
ATOM     15  C   UNL     1      -6.730  14.169  19.937  0.00  0.00    +0.000 A 
ATOM     16  C   UNL     1      -6.414  15.416  19.389  0.00  0.00    +0.000 A 
ATOM     17  C   UNL     1      -6.761  15.757  18.083  0.00  0.00    +0.000 A 
ATOM     18  C   UNL     1      -7.332  14.796  17.239  0.00  0.00    +0.000 A 
ATOM     19  C   UNL     1      -7.554  13.507  17.730  0.00  0.00    +0.000 A 
ATOM     20  C   UNL     1      -7.268  13.203  19.068  0.00  0.00    +0.000 A 
BRANCH  18  21
ATOM     21  C   UNL     1      -7.651  15.132  15.882  0.00  0.00    +0.000 C 
ATOM     22  N   UNL     1      -7.911  15.421  14.796  0.00  0.00    +0.000 NA
ENDBRANCH  18  21
ENDBRANCH  11  15
BRANCH   1  24
ATOM     23  C   UNL     1      -2.184  11.514  17.832  0.00  0.00    +0.000 C 
ATOM     24  O   UNL     1      -1.712  12.470  18.790  0.00  0.00    +0.000 OA
ENDBRANCH   1  24
BRANCH   6  25
ATOM     25  O   UNL     1      -0.108  11.414  21.039  0.00  0.00    +0.000 OA
BRANCH  25  26
ATOM     26  C   UNL     1       0.015  10.096  20.514  0.00  0.00    +0.000 C 
BRANCH  26  27
ATOM     27  C   UNL     1       0.444   9.059  21.562  0.00  0.00    +0.000 C 
BRANCH  27  28
ATOM     28  O   UNL     1      -0.726   8.345  21.995  0.00  0.00    +0.000 OA
ATOM     29  H   UNL     1      -1.447   8.553  21.373  0.00  0.00    +0.000 HD
ENDBRANCH  27  28
BRANCH  27  30
ATOM     30  C   UNL     1       1.485   8.072  21.012  0.00  0.00    +0.000 C 
BRANCH  30  31
ATOM     31  O   UNL     1       1.743   8.283  19.624  0.00  0.00    +0.000 OA
ATOM     32  H   UNL     1       0.952   8.689  19.227  0.00  0.00    +0.000 HD
ENDBRANCH  30  31
ENDBRANCH  27  30
ENDBRANCH  26  27
ENDBRANCH  25  26
ENDBRANCH   6  25
TORSDOF 9
ENDMDL
MODEL 7
REMARK VINA RESULT:      -6.5      0.894      1.259
REMARK  Name = 
REMARK  11 active torsions:
REMARK  status: ('A' for Active; 'I' for Inactive)
REMARK    1  A    between atoms: C_1  and  O_2
REMARK    2  A    between atoms: O_2  and  C_3
REMARK    3  A    between atoms: C_8  and  O_9
REMARK    4  A    between atoms: O_9  and  C_10
REMARK    5  A    between atoms: C_10  and  C_11
REMARK    6  A    between atoms: C_11  and  O_12
REMARK    7  A    between atoms: C_11  and  C_13
REMARK    8  A    between atoms: C_13  and  O_14
REMARK    9  A    between atoms: C_19  and  C_20
REMARK   10  A    between atoms: C_23  and  C_24
REMARK   11  A    between atoms: N_29  and  C_30
REMARK                            x       y       z     vdW  Elec       q    Type
REMARK                         _______ _______ _______ _____ _____    ______ ____
ROOT
ATOM      1  C   UNL     1       5.224   5.950  16.621  0.00  0.00    +0.000 A 
ATOM      2  C   UNL     1       4.320   5.903  17.683  0.00  0.00    +0.000 A 
ATOM      3  C   UNL     1       3.854   4.701  18.241  0.00  0.00    +0.000 A 
ATOM      4  C   UNL     1       4.392   3.487  17.780  0.00  0.00    +0.000 A 
ATOM      5  C   UNL     1       5.341   3.532  16.764  0.00  0.00    +0.000 A 
ATOM      6  C   UNL     1       5.780   4.736  16.182  0.00  0.00    +0.000 A 
ATOM      7  N   UNL     1       4.067   2.300  18.310  0.00  0.00    +0.000 NA
ATOM      8  C   UNL     1       3.195   2.218  19.330  0.00  0.00    +0.000 A 
ATOM      9  C   UNL     1       2.598   3.377  19.804  0.00  0.00    +0.000 A 
ATOM     10  C   UNL     1       2.872   4.639  19.287  0.00  0.00    +0.000 A 
ATOM     11  C   UNL     1       2.028   5.538  20.053  0.00  0.00    +0.000 A 
ATOM     12  N   UNL     1       1.339   4.854  20.987  0.00  0.00    +0.000 NA
ATOM     13  N   UNL     1       1.684   3.575  20.801  0.00  0.00    +0.000 N 
ATOM     14  C   UNL     1       1.088   2.546  21.621  0.00  0.00    +0.000 C 
ENDROOT
BRANCH  11  15
ATOM     15  C   UNL     1       1.835   6.996  19.962  0.00  0.00    +0.000 A 
ATOM     16  C   UNL     1       1.467   7.761  21.073  0.00  0.00    +0.000 A 
ATOM     17  C   UNL     1       1.163   9.117  20.966  0.00  0.00    +0.000 A 
ATOM     18  C   UNL     1       1.346   9.780  19.746  0.00  0.00    +0.000 A 
ATOM     19  C   UNL     1       1.823   9.060  18.647  0.00  0.00    +0.000 A 
ATOM     20  C   UNL     1       2.052   7.681  18.753  0.00  0.00    +0.000 A 
BRANCH  18  21
ATOM     21  C   UNL     1       1.076  11.184  19.645  0.00  0.00    +0.000 C 
ATOM     22  N   UNL     1       0.876  12.318  19.571  0.00  0.00    +0.000 NA
ENDBRANCH  18  21
ENDBRANCH  11  15
BRANCH   1  24
ATOM     23  C   UNL     1       6.498   8.004  16.738  0.00  0.00    +0.000 C 
ATOM     24  O   UNL     1       5.583   7.141  16.049  0.00  0.00    +0.000 OA
ENDBRANCH   1  24
BRANCH   6  25
ATOM     25  O   UNL     1       6.744   4.554  15.209  0.00  0.00    +0.000 OA
BRANCH  25  26
ATOM     26  C   UNL     1       6.278   3.951  14.006  0.00  0.00    +0.000 C 
BRANCH  26  27
ATOM     27  C   UNL     1       7.304   3.990  12.865  0.00  0.00    +0.000 C 
BRANCH  27  28
ATOM     28  O   UNL     1       6.707   3.394  11.701  0.00  0.00    +0.000 OA
ATOM     29  H   UNL     1       7.354   3.449  10.975  0.00  0.00    +0.000 HD
ENDBRANCH  27  28
BRANCH  27  30
ATOM     30  C   UNL     1       7.762   5.421  12.543  0.00  0.00    +0.000 C 
BRANCH  30  31
ATOM     31  O   UNL     1       8.726   5.899  13.481  0.00  0.00    +0.000 OA
ATOM     32  H   UNL     1       8.599   5.419  14.318  0.00  0.00    +0.000 HD
ENDBRANCH  30  31
ENDBRANCH  27  30
ENDBRANCH  26  27
ENDBRANCH  25  26
ENDBRANCH   6  25
TORSDOF 9
ENDMDL
MODEL 8
REMARK VINA RESULT:      -6.5      7.175      9.854
REMARK  Name = 
REMARK  11 active torsions:
REMARK  status: ('A' for Active; 'I' for Inactive)
REMARK    1  A    between atoms: C_1  and  O_2
REMARK    2  A    between atoms: O_2  and  C_3
REMARK    3  A    between atoms: C_8  and  O_9
REMARK    4  A    between atoms: O_9  and  C_10
REMARK    5  A    between atoms: C_10  and  C_11
REMARK    6  A    between atoms: C_11  and  O_12
REMARK    7  A    between atoms: C_11  and  C_13
REMARK    8  A    between atoms: C_13  and  O_14
REMARK    9  A    between atoms: C_19  and  C_20
REMARK   10  A    between atoms: C_23  and  C_24
REMARK   11  A    between atoms: N_29  and  C_30
REMARK                            x       y       z     vdW  Elec       q    Type
REMARK                         _______ _______ _______ _____ _____    ______ ____
ROOT
ATOM      1  C   UNL     1      -4.198  11.612  17.229  0.00  0.00    +0.000 A 
ATOM      2  C   UNL     1      -3.443  11.829  18.382  0.00  0.00    +0.000 A 
ATOM      3  C   UNL     1      -2.228  11.175  18.639  0.00  0.00    +0.000 A 
ATOM      4  C   UNL     1      -1.690  10.333  17.650  0.00  0.00    +0.000 A 
ATOM      5  C   UNL     1      -2.407  10.162  16.470  0.00  0.00    +0.000 A 
ATOM      6  C   UNL     1      -3.642  10.792  16.230  0.00  0.00    +0.000 A 
ATOM      7  N   UNL     1      -0.497   9.734  17.775  0.00  0.00    +0.000 NA
ATOM      8  C   UNL     1       0.252   9.918  18.876  0.00  0.00    +0.000 A 
ATOM      9  C   UNL     1      -0.241  10.704  19.907  0.00  0.00    +0.000 A 
ATOM     10  C   UNL     1      -1.478  11.338  19.853  0.00  0.00    +0.000 A 
ATOM     11  C   UNL     1      -1.593  12.023  21.128  0.00  0.00    +0.000 A 
ATOM     12  N   UNL     1      -0.478  11.839  21.861  0.00  0.00    +0.000 NA
ATOM     13  N   UNL     1       0.295  11.038  21.119  0.00  0.00    +0.000 N 
ATOM     14  C   UNL     1       1.573  10.599  21.631  0.00  0.00    +0.000 C 
ENDROOT
BRANCH  11  15
ATOM     15  C   UNL     1      -2.680  12.840  21.693  0.00  0.00    +0.000 A 
ATOM     16  C   UNL     1      -3.050  14.065  21.130  0.00  0.00    +0.000 A 
ATOM     17  C   UNL     1      -3.992  14.898  21.732  0.00  0.00    +0.000 A 
ATOM     18  C   UNL     1      -4.690  14.461  22.864  0.00  0.00    +0.000 A 
ATOM     19  C   UNL     1      -4.419  13.190  23.380  0.00  0.00    +0.000 A 
ATOM     20  C   UNL     1      -3.416  12.396  22.807  0.00  0.00    +0.000 A 
BRANCH  18  21
ATOM     21  C   UNL     1      -5.690  15.298  23.459  0.00  0.00    +0.000 C 
ATOM     22  N   UNL     1      -6.480  15.981  23.950  0.00  0.00    +0.000 NA
ENDBRANCH  18  21
ENDBRANCH  11  15
BRANCH   1  24
ATOM     23  C   UNL     1      -6.125  12.700  18.205  0.00  0.00    +0.000 C 
ATOM     24  O   UNL     1      -5.420  12.204  17.060  0.00  0.00    +0.000 OA
ENDBRANCH   1  24
BRANCH   6  25
ATOM     25  O   UNL     1      -4.170  10.505  14.986  0.00  0.00    +0.000 OA
BRANCH  25  26
ATOM     26  C   UNL     1      -3.387   9.621  14.189  0.00  0.00    +0.000 C 
BRANCH  26  27
ATOM     27  C   UNL     1      -3.280  10.056  12.721  0.00  0.00    +0.000 C 
BRANCH  27  28
ATOM     28  O   UNL     1      -2.125   9.420  12.146  0.00  0.00    +0.000 OA
ATOM     29  H   UNL     1      -1.349   9.971  12.356  0.00  0.00    +0.000 HD
ENDBRANCH  27  28
BRANCH  27  30
ATOM     30  C   UNL     1      -4.535   9.691  11.913  0.00  0.00    +0.000 C 
BRANCH  30  31
ATOM     31  O   UNL     1      -5.607   9.264  12.753  0.00  0.00    +0.000 OA
ATOM     32  H   UNL     1      -5.390   8.379  13.097  0.00  0.00    +0.000 HD
ENDBRANCH  30  31
ENDBRANCH  27  30
ENDBRANCH  26  27
ENDBRANCH  25  26
ENDBRANCH   6  25
TORSDOF 9
ENDMDL
MODEL 9
REMARK VINA RESULT:      -6.4      9.451     12.670
REMARK  Name = 
REMARK  11 active torsions:
REMARK  status: ('A' for Active; 'I' for Inactive)
REMARK    1  A    between atoms: C_1  and  O_2
REMARK    2  A    between atoms: O_2  and  C_3
REMARK    3  A    between atoms: C_8  and  O_9
REMARK    4  A    between atoms: O_9  and  C_10
REMARK    5  A    between atoms: C_10  and  C_11
REMARK    6  A    between atoms: C_11  and  O_12
REMARK    7  A    between atoms: C_11  and  C_13
REMARK    8  A    between atoms: C_13  and  O_14
REMARK    9  A    between atoms: C_19  and  C_20
REMARK   10  A    between atoms: C_23  and  C_24
REMARK   11  A    between atoms: N_29  and  C_30
REMARK                            x       y       z     vdW  Elec       q    Type
REMARK                         _______ _______ _______ _____ _____    ______ ____
ROOT
ATOM      1  C   UNL     1      -4.853  13.299  21.282  0.00  0.00    +0.000 A 
ATOM      2  C   UNL     1      -3.941  12.931  20.292  0.00  0.00    +0.000 A 
ATOM      3  C   UNL     1      -4.305  12.207  19.145  0.00  0.00    +0.000 A 
ATOM      4  C   UNL     1      -5.664  11.919  18.928  0.00  0.00    +0.000 A 
ATOM      5  C   UNL     1      -6.585  12.339  19.882  0.00  0.00    +0.000 A 
ATOM      6  C   UNL     1      -6.214  13.034  21.047  0.00  0.00    +0.000 A 
ATOM      7  N   UNL     1      -6.110  11.306  17.823  0.00  0.00    +0.000 NA
ATOM      8  C   UNL     1      -5.257  10.933  16.852  0.00  0.00    +0.000 A 
ATOM      9  C   UNL     1      -3.899  11.152  17.024  0.00  0.00    +0.000 A 
ATOM     10  C   UNL     1      -3.365  11.763  18.154  0.00  0.00    +0.000 A 
ATOM     11  C   UNL     1      -1.931  11.768  17.923  0.00  0.00    +0.000 A 
ATOM     12  N   UNL     1      -1.648  11.238  16.718  0.00  0.00    +0.000 NA
ATOM     13  N   UNL     1      -2.832  10.864  16.219  0.00  0.00    +0.000 N 
ATOM     14  C   UNL     1      -2.894  10.208  14.933  0.00  0.00    +0.000 C 
ENDROOT
BRANCH  11  15
ATOM     15  C   UNL     1      -0.819  12.247  18.761  0.00  0.00    +0.000 A 
ATOM     16  C   UNL     1      -0.311  13.544  18.643  0.00  0.00    +0.000 A 
ATOM     17  C   UNL     1       0.819  13.961  19.344  0.00  0.00    +0.000 A 
ATOM     18  C   UNL     1       1.405  13.112  20.292  0.00  0.00    +0.000 A 
ATOM     19  C   UNL     1       0.847  11.850  20.510  0.00  0.00    +0.000 A 
ATOM     20  C   UNL     1      -0.244  11.420  19.743  0.00  0.00    +0.000 A 
BRANCH  18  21
ATOM     21  C   UNL     1       2.542  13.555  21.045  0.00  0.00    +0.000 C 
ATOM     22  N   UNL     1       3.448  13.904  21.667  0.00  0.00    +0.000 NA
ENDBRANCH  18  21
ENDBRANCH  11  15
BRANCH   1  24
ATOM     23  C   UNL     1      -3.490  14.997  22.337  0.00  0.00    +0.000 C 
ATOM     24  O   UNL     1      -4.441  13.927  22.426  0.00  0.00    +0.000 OA
ENDBRANCH   1  24
BRANCH   6  25
ATOM     25  O   UNL     1      -7.289  13.378  21.845  0.00  0.00    +0.000 OA
BRANCH  25  26
ATOM     26  C   UNL     1      -7.605  12.437  22.866  0.00  0.00    +0.000 C 
BRANCH  26  27
ATOM     27  C   UNL     1      -7.386  12.979  24.286  0.00  0.00    +0.000 C 
BRANCH  27  28
ATOM     28  O   UNL     1      -6.029  12.700  24.669  0.00  0.00    +0.000 OA
ATOM     29  H   UNL     1      -6.024  12.508  25.625  0.00  0.00    +0.000 HD
ENDBRANCH  27  28
BRANCH  27  30
ATOM     30  C   UNL     1      -7.657  14.488  24.381  0.00  0.00    +0.000 C 
BRANCH  30  31
ATOM     31  O   UNL     1      -6.469  15.258  24.201  0.00  0.00    +0.000 OA
ATOM     32  H   UNL     1      -6.654  15.952  23.545  0.00  0.00    +0.000 HD
ENDBRANCH  30  31
ENDBRANCH  27  30
ENDBRANCH  26  27
ENDBRANCH  25  26
ENDBRANCH   6  25
TORSDOF 9
ENDMDL
