MODEL 1
REMARK VINA RESULT:      -8.8      0.000      0.000
REMARK  Name = 
REMARK  10 active torsions:
REMARK  status: ('A' for Active; 'I' for Inactive)
REMARK    1  A    between atoms: C_1  and  C_2
REMARK    2  A    between atoms: C_2  and  O_4
REMARK    3  A    between atoms: O_4  and  C_5
REMARK    4  A    between atoms: C_10  and  C_11
REMARK    5  A    between atoms: C_11  and  O_13
REMARK    6  A    between atoms: O_13  and  C_14
REMARK    7  A    between atoms: C_18  and  O_19
REMARK    8  A    between atoms: O_19  and  C_20
REMARK    9  A    between atoms: C_20  and  C_22
REMARK   10  A    between atoms: C_27  and  O_28
REMARK                            x       y       z     vdW  Elec       q    Type
REMARK                         _______ _______ _______ _____ _____    ______ ____
ROOT
ATOM      1  C   UNL     1       2.379   4.348  18.466  0.00  0.00    +0.000 C 
ATOM      2  C   UNL     1       1.489   4.031  19.676  0.00  0.00    +0.000 C 
ATOM      3  O   UNL     1       1.261   5.275  20.370  0.00  0.00    +0.000 OA
ATOM      4  C   UNL     1       2.439   6.076  20.176  0.00  0.00    +0.000 C 
ATOM      5  C   UNL     1       2.184   7.575  20.118  0.00  0.00    +0.000 C 
ATOM      6  C   UNL     1       2.154   7.896  18.628  0.00  0.00    +0.000 C 
ATOM      7  O   UNL     1       2.402   6.697  17.882  0.00  0.00    +0.000 OA
ATOM      8  C   UNL     1       2.954   5.729  18.788  0.00  0.00    +0.000 C 
ENDROOT
BRANCH   1   9
ATOM      9  O   UNL     1       3.401   3.371  18.112  0.00  0.00    +0.000 OA
BRANCH   9  10
ATOM     10  C   UNL     1       4.674   3.765  18.340  0.00  0.00    +0.000 C 
ATOM     11  O   UNL     1       5.163   3.806  19.464  0.00  0.00    +0.000 OA
BRANCH  10  17
ATOM     12  C   UNL     1       6.817   4.664  17.135  0.00  0.00    +0.000 A 
ATOM     13  C   UNL     1       7.381   5.040  15.900  0.00  0.00    +0.000 A 
ATOM     14  C   UNL     1       6.671   4.872  14.705  0.00  0.00    +0.000 A 
ATOM     15  C   UNL     1       5.397   4.330  14.722  0.00  0.00    +0.000 A 
ATOM     16  C   UNL     1       4.810   4.022  15.942  0.00  0.00    +0.000 A 
ATOM     17  C   UNL     1       5.490   4.196  17.169  0.00  0.00    +0.000 A 
BRANCH  12  18
ATOM     18  O   UNL     1       7.631   4.556  18.304  0.00  0.00    +0.000 OA
BRANCH  18  20
ATOM     19  C   UNL     1       7.993   6.894  18.555  0.00  0.00    +0.000 C 
ATOM     20  C   UNL     1       7.838   5.568  19.263  0.00  0.00    +0.000 C 
ATOM     21  O   UNL     1       7.885   5.429  20.477  0.00  0.00    +0.000 OA
ENDBRANCH  18  20
ENDBRANCH  12  18
ENDBRANCH  10  17
ENDBRANCH   9  10
ENDBRANCH   1   9
BRANCH   5  22
ATOM     22  O   UNL     1       0.955   7.983  20.739  0.00  0.00    +0.000 OA
BRANCH  22  23
ATOM     23  C   UNL     1       1.043   9.084  21.523  0.00  0.00    +0.000 C 
ATOM     24  O   UNL     1       1.794   9.213  22.481  0.00  0.00    +0.000 OA
BRANCH  23  25
ATOM     25  C   UNL     1       0.049  10.123  21.142  0.00  0.00    +0.000 A 
ATOM     26  C   UNL     1      -0.260  10.222  19.772  0.00  0.00    +0.000 A 
ATOM     27  C   UNL     1      -1.183  11.164  19.313  0.00  0.00    +0.000 A 
ATOM     28  C   UNL     1      -1.808  12.021  20.216  0.00  0.00    +0.000 A 
ATOM     29  C   UNL     1      -1.536  11.918  21.580  0.00  0.00    +0.000 A 
ATOM     30  C   UNL     1      -0.619  10.959  22.044  0.00  0.00    +0.000 A 
BRANCH  30  31
ATOM     31  O   UNL     1      -0.437  10.828  23.394  0.00  0.00    +0.000 OA
ATOM     32  H   UNL     1      -0.891  11.554  23.851  0.00  0.00    +0.000 HD
ENDBRANCH  30  31
ENDBRANCH  23  25
ENDBRANCH  22  23
ENDBRANCH   5  22
TORSDOF 9
ENDMDL
MODEL 2
REMARK VINA RESULT:      -8.4      0.699      1.238
REMARK  Name = 
REMARK  10 active torsions:
REMARK  status: ('A' for Active; 'I' for Inactive)
REMARK    1  A    between atoms: C_1  and  C_2
REMARK    2  A    between atoms: C_2  and  O_4
REMARK    3  A    between atoms: O_4  and  C_5
REMARK    4  A    between atoms: C_10  and  C_11
REMARK    5  A    between atoms: C_11  and  O_13
REMARK    6  A    between atoms: O_13  and  C_14
REMARK    7  A    between atoms: C_18  and  O_19
REMARK    8  A    between atoms: O_19  and  C_20
REMARK    9  A    between atoms: C_20  and  C_22
REMARK   10  A    between atoms: C_27  and  O_28
REMARK                            x       y       z     vdW  Elec       q    Type
REMARK                         _______ _______ _______ _____ _____    ______ ____
ROOT
ATOM      1  C   UNL     1       2.353   4.373  18.448  0.00  0.00    +0.000 C 
ATOM      2  C   UNL     1       1.409   4.121  19.632  0.00  0.00    +0.000 C 
ATOM      3  O   UNL     1       1.199   5.391  20.283  0.00  0.00    +0.000 OA
ATOM      4  C   UNL     1       2.411   6.146  20.112  0.00  0.00    +0.000 C 
ATOM      5  C   UNL     1       2.210   7.650  20.004  0.00  0.00    +0.000 C 
ATOM      6  C   UNL     1       2.247   7.930  18.506  0.00  0.00    +0.000 C 
ATOM      7  O   UNL     1       2.479   6.703  17.803  0.00  0.00    +0.000 OA
ATOM      8  C   UNL     1       2.964   5.743  18.755  0.00  0.00    +0.000 C 
ENDROOT
BRANCH   1   9
ATOM      9  O   UNL     1       3.353   3.352  18.159  0.00  0.00    +0.000 OA
BRANCH   9  10
ATOM     10  C   UNL     1       4.634   3.734  18.356  0.00  0.00    +0.000 C 
ATOM     11  O   UNL     1       5.144   3.794  19.469  0.00  0.00    +0.000 OA
BRANCH  10  17
ATOM     12  C   UNL     1       6.757   4.606  17.095  0.00  0.00    +0.000 A 
ATOM     13  C   UNL     1       7.305   4.940  15.840  0.00  0.00    +0.000 A 
ATOM     14  C   UNL     1       6.585   4.719  14.660  0.00  0.00    +0.000 A 
ATOM     15  C   UNL     1       5.316   4.167  14.711  0.00  0.00    +0.000 A 
ATOM     16  C   UNL     1       4.744   3.900  15.948  0.00  0.00    +0.000 A 
ATOM     17  C   UNL     1       5.435   4.127  17.160  0.00  0.00    +0.000 A 
BRANCH  12  18
ATOM     18  O   UNL     1       7.583   4.550  18.259  0.00  0.00    +0.000 OA
BRANCH  18  20
ATOM     19  C   UNL     1       7.888   6.901  18.457  0.00  0.00    +0.000 C 
ATOM     20  C   UNL     1       7.764   5.589  19.194  0.00  0.00    +0.000 C 
ATOM     21  O   UNL     1       7.812   5.478  20.412  0.00  0.00    +0.000 OA
ENDBRANCH  18  20
ENDBRANCH  12  18
ENDBRANCH  10  17
ENDBRANCH   9  10
ENDBRANCH   1   9
BRANCH   5  22
ATOM     22  O   UNL     1       0.975   8.118  20.567  0.00  0.00    +0.000 OA
BRANCH  22  23
ATOM     23  C   UNL     1       1.102   8.978  21.605  0.00  0.00    +0.000 C 
ATOM     24  O   UNL     1       1.936   8.894  22.496  0.00  0.00    +0.000 OA
BRANCH  23  25
ATOM     25  C   UNL     1       0.046  10.025  21.598  0.00  0.00    +0.000 A 
ATOM     26  C   UNL     1      -0.520  10.352  22.845  0.00  0.00    +0.000 A 
ATOM     27  C   UNL     1      -1.518  11.324  22.944  0.00  0.00    +0.000 A 
ATOM     28  C   UNL     1      -1.965  11.982  21.801  0.00  0.00    +0.000 A 
ATOM     29  C   UNL     1      -1.394  11.692  20.561  0.00  0.00    +0.000 A 
ATOM     30  C   UNL     1      -0.379  10.725  20.462  0.00  0.00    +0.000 A 
BRANCH  30  31
ATOM     31  O   UNL     1       0.216  10.523  19.246  0.00  0.00    +0.000 OA
ATOM     32  H   UNL     1       1.136  10.245  19.382  0.00  0.00    +0.000 HD
ENDBRANCH  30  31
ENDBRANCH  23  25
ENDBRANCH  22  23
ENDBRANCH   5  22
TORSDOF 9
ENDMDL
MODEL 3
REMARK VINA RESULT:      -8.1      2.834      9.448
REMARK  Name = 
REMARK  10 active torsions:
REMARK  status: ('A' for Active; 'I' for Inactive)
REMARK    1  A    between atoms: C_1  and  C_2
REMARK    2  A    between atoms: C_2  and  O_4
REMARK    3  A    between atoms: O_4  and  C_5
REMARK    4  A    between atoms: C_10  and  C_11
REMARK    5  A    between atoms: C_11  and  O_13
REMARK    6  A    between atoms: O_13  and  C_14
REMARK    7  A    between atoms: C_18  and  O_19
REMARK    8  A    between atoms: O_19  and  C_20
REMARK    9  A    between atoms: C_20  and  C_22
REMARK   10  A    between atoms: C_27  and  O_28
REMARK                            x       y       z     vdW  Elec       q    Type
REMARK                         _______ _______ _______ _____ _____    ______ ____
ROOT
ATOM      1  C   UNL     1       0.384  10.625  20.453  0.00  0.00    +0.000 C 
ATOM      2  C   UNL     1       0.753   9.588  21.525  0.00  0.00    +0.000 C 
ATOM      3  O   UNL     1       1.462   8.525  20.856  0.00  0.00    +0.000 OA
ATOM      4  C   UNL     1       0.920   8.441  19.528  0.00  0.00    +0.000 C 
ATOM      5  C   UNL     1       1.916   8.003  18.464  0.00  0.00    +0.000 C 
ATOM      6  C   UNL     1       2.369   9.304  17.811  0.00  0.00    +0.000 C 
ATOM      7  O   UNL     1       1.677  10.402  18.419  0.00  0.00    +0.000 OA
ATOM      8  C   UNL     1       0.555   9.864  19.137  0.00  0.00    +0.000 C 
ENDROOT
BRANCH   1   9
ATOM      9  O   UNL     1      -0.914  11.278  20.573  0.00  0.00    +0.000 OA
BRANCH   9  10
ATOM     10  C   UNL     1      -1.219  12.133  19.573  0.00  0.00    +0.000 C 
ATOM     11  O   UNL     1      -0.531  13.112  19.305  0.00  0.00    +0.000 OA
BRANCH  10  17
ATOM     12  C   UNL     1      -3.805  12.103  19.165  0.00  0.00    +0.000 A 
ATOM     13  C   UNL     1      -4.833  11.761  18.264  0.00  0.00    +0.000 A 
ATOM     14  C   UNL     1      -4.536  11.287  16.981  0.00  0.00    +0.000 A 
ATOM     15  C   UNL     1      -3.218  11.148  16.578  0.00  0.00    +0.000 A 
ATOM     16  C   UNL     1      -2.202  11.417  17.485  0.00  0.00    +0.000 A 
ATOM     17  C   UNL     1      -2.466  11.880  18.794  0.00  0.00    +0.000 A 
BRANCH  12  18
ATOM     18  O   UNL     1      -4.092  12.855  20.346  0.00  0.00    +0.000 OA
BRANCH  18  20
ATOM     19  C   UNL     1      -5.898  14.298  20.909  0.00  0.00    +0.000 C 
ATOM     20  C   UNL     1      -5.332  12.902  21.014  0.00  0.00    +0.000 C 
ATOM     21  O   UNL     1      -5.889  11.977  21.592  0.00  0.00    +0.000 OA
ENDBRANCH  18  20
ENDBRANCH  12  18
ENDBRANCH  10  17
ENDBRANCH   9  10
ENDBRANCH   1   9
BRANCH   5  22
ATOM     22  O   UNL     1       3.046   7.285  18.981  0.00  0.00    +0.000 OA
BRANCH  22  23
ATOM     23  C   UNL     1       3.310   6.106  18.370  0.00  0.00    +0.000 C 
ATOM     24  O   UNL     1       4.130   5.939  17.477  0.00  0.00    +0.000 OA
BRANCH  23  25
ATOM     25  C   UNL     1       2.422   5.015  18.852  0.00  0.00    +0.000 A 
ATOM     26  C   UNL     1       2.041   4.051  17.899  0.00  0.00    +0.000 A 
ATOM     27  C   UNL     1       1.211   2.985  18.253  0.00  0.00    +0.000 A 
ATOM     28  C   UNL     1       0.750   2.867  19.562  0.00  0.00    +0.000 A 
ATOM     29  C   UNL     1       1.142   3.796  20.527  0.00  0.00    +0.000 A 
ATOM     30  C   UNL     1       1.991   4.860  20.175  0.00  0.00    +0.000 A 
BRANCH  30  31
ATOM     31  O   UNL     1       2.422   5.706  21.160  0.00  0.00    +0.000 OA
ATOM     32  H   UNL     1       2.667   6.558  20.767  0.00  0.00    +0.000 HD
ENDBRANCH  30  31
ENDBRANCH  23  25
ENDBRANCH  22  23
ENDBRANCH   5  22
TORSDOF 9
ENDMDL
MODEL 4
REMARK VINA RESULT:      -8.1      2.421      4.391
REMARK  Name = 
REMARK  10 active torsions:
REMARK  status: ('A' for Active; 'I' for Inactive)
REMARK    1  A    between atoms: C_1  and  C_2
REMARK    2  A    between atoms: C_2  and  O_4
REMARK    3  A    between atoms: O_4  and  C_5
REMARK    4  A    between atoms: C_10  and  C_11
REMARK    5  A    between atoms: C_11  and  O_13
REMARK    6  A    between atoms: O_13  and  C_14
REMARK    7  A    between atoms: C_18  and  O_19
REMARK    8  A    between atoms: O_19  and  C_20
REMARK    9  A    between atoms: C_20  and  C_22
REMARK   10  A    between atoms: C_27  and  O_28
REMARK                            x       y       z     vdW  Elec       q    Type
REMARK                         _______ _______ _______ _____ _____    ______ ____
ROOT
ATOM      1  C   UNL     1       1.284   8.378  19.883  0.00  0.00    +0.000 C 
ATOM      2  C   UNL     1       0.824   7.907  21.271  0.00  0.00    +0.000 C 
ATOM      3  O   UNL     1       0.069   8.988  21.855  0.00  0.00    +0.000 OA
ATOM      4  C   UNL     1       0.639  10.207  21.350  0.00  0.00    +0.000 C 
ATOM      5  C   UNL     1      -0.355  11.347  21.179  0.00  0.00    +0.000 C 
ATOM      6  C   UNL     1      -0.711  11.319  19.697  0.00  0.00    +0.000 C 
ATOM      7  O   UNL     1       0.032  10.276  19.053  0.00  0.00    +0.000 OA
ATOM      8  C   UNL     1       1.100   9.896  19.935  0.00  0.00    +0.000 C 
ENDROOT
BRANCH   1   9
ATOM      9  O   UNL     1       2.616   7.977  19.447  0.00  0.00    +0.000 OA
BRANCH   9  10
ATOM     10  C   UNL     1       2.725   7.690  18.131  0.00  0.00    +0.000 C 
ATOM     11  O   UNL     1       2.450   8.498  17.251  0.00  0.00    +0.000 OA
BRANCH  10  17
ATOM     12  C   UNL     1       4.420   5.887  17.274  0.00  0.00    +0.000 A 
ATOM     13  C   UNL     1       4.603   4.527  16.955  0.00  0.00    +0.000 A 
ATOM     14  C   UNL     1       3.589   3.591  17.190  0.00  0.00    +0.000 A 
ATOM     15  C   UNL     1       2.384   3.993  17.742  0.00  0.00    +0.000 A 
ATOM     16  C   UNL     1       2.173   5.342  17.993  0.00  0.00    +0.000 A 
ATOM     17  C   UNL     1       3.168   6.316  17.752  0.00  0.00    +0.000 A 
BRANCH  12  18
ATOM     18  O   UNL     1       5.533   6.782  17.317  0.00  0.00    +0.000 OA
BRANCH  18  20
ATOM     19  C   UNL     1       7.463   6.149  18.556  0.00  0.00    +0.000 C 
ATOM     20  C   UNL     1       6.889   6.419  17.185  0.00  0.00    +0.000 C 
ATOM     21  O   UNL     1       7.525   6.326  16.145  0.00  0.00    +0.000 OA
ENDBRANCH  18  20
ENDBRANCH  12  18
ENDBRANCH  10  17
ENDBRANCH   9  10
ENDBRANCH   1   9
BRANCH   5  22
ATOM     22  O   UNL     1      -1.540  11.215  21.978  0.00  0.00    +0.000 OA
BRANCH  22  23
ATOM     23  C   UNL     1      -1.811  12.266  22.787  0.00  0.00    +0.000 C 
ATOM     24  O   UNL     1      -0.978  12.929  23.390  0.00  0.00    +0.000 OA
BRANCH  23  25
ATOM     25  C   UNL     1      -3.273  12.494  22.938  0.00  0.00    +0.000 A 
ATOM     26  C   UNL     1      -3.787  12.419  24.247  0.00  0.00    +0.000 A 
ATOM     27  C   UNL     1      -5.146  12.621  24.495  0.00  0.00    +0.000 A 
ATOM     28  C   UNL     1      -6.011  12.899  23.439  0.00  0.00    +0.000 A 
ATOM     29  C   UNL     1      -5.515  13.007  22.140  0.00  0.00    +0.000 A 
ATOM     30  C   UNL     1      -4.144  12.820  21.892  0.00  0.00    +0.000 A 
BRANCH  30  31
ATOM     31  O   UNL     1      -3.677  13.013  20.620  0.00  0.00    +0.000 OA
ATOM     32  H   UNL     1      -3.266  13.890  20.559  0.00  0.00    +0.000 HD
ENDBRANCH  30  31
ENDBRANCH  23  25
ENDBRANCH  22  23
ENDBRANCH   5  22
TORSDOF 9
ENDMDL
MODEL 5
REMARK VINA RESULT:      -8.1      2.936      9.486
REMARK  Name = 
REMARK  10 active torsions:
REMARK  status: ('A' for Active; 'I' for Inactive)
REMARK    1  A    between atoms: C_1  and  C_2
REMARK    2  A    between atoms: C_2  and  O_4
REMARK    3  A    between atoms: O_4  and  C_5
REMARK    4  A    between atoms: C_10  and  C_11
REMARK    5  A    between atoms: C_11  and  O_13
REMARK    6  A    between atoms: O_13  and  C_14
REMARK    7  A    between atoms: C_18  and  O_19
REMARK    8  A    between atoms: O_19  and  C_20
REMARK    9  A    between atoms: C_20  and  C_22
REMARK   10  A    between atoms: C_27  and  O_28
REMARK                            x       y       z     vdW  Elec       q    Type
REMARK                         _______ _______ _______ _____ _____    ______ ____
ROOT
ATOM      1  C   UNL     1       0.570  10.596  20.747  0.00  0.00    +0.000 C 
ATOM      2  C   UNL     1       1.046   9.569  21.785  0.00  0.00    +0.000 C 
ATOM      3  O   UNL     1       1.650   8.481  21.057  0.00  0.00    +0.000 OA
ATOM      4  C   UNL     1       0.950   8.386  19.805  0.00  0.00    +0.000 C 
ATOM      5  C   UNL     1       1.803   7.910  18.637  0.00  0.00    +0.000 C 
ATOM      6  C   UNL     1       2.199   9.191  17.911  0.00  0.00    +0.000 C 
ATOM      7  O   UNL     1       1.605  10.313  18.577  0.00  0.00    +0.000 OA
ATOM      8  C   UNL     1       0.567   9.810  19.433  0.00  0.00    +0.000 C 
ENDROOT
BRANCH   1   9
ATOM      9  O   UNL     1      -0.692  11.277  21.009  0.00  0.00    +0.000 OA
BRANCH   9  10
ATOM     10  C   UNL     1      -1.045  12.201  20.088  0.00  0.00    +0.000 C 
ATOM     11  O   UNL     1      -0.318  13.137  19.776  0.00  0.00    +0.000 OA
BRANCH  10  17
ATOM     12  C   UNL     1      -3.651  12.432  19.984  0.00  0.00    +0.000 A 
ATOM     13  C   UNL     1      -4.806  12.202  19.210  0.00  0.00    +0.000 A 
ATOM     14  C   UNL     1      -4.708  11.712  17.903  0.00  0.00    +0.000 A 
ATOM     15  C   UNL     1      -3.467  11.445  17.350  0.00  0.00    +0.000 A 
ATOM     16  C   UNL     1      -2.331  11.604  18.132  0.00  0.00    +0.000 A 
ATOM     17  C   UNL     1      -2.394  12.079  19.461  0.00  0.00    +0.000 A 
BRANCH  12  18
ATOM     18  O   UNL     1      -3.722  13.199  21.188  0.00  0.00    +0.000 OA
BRANCH  18  20
ATOM     19  C   UNL     1      -5.496  13.159  22.773  0.00  0.00    +0.000 C 
ATOM     20  C   UNL     1      -4.089  12.710  22.458  0.00  0.00    +0.000 C 
ATOM     21  O   UNL     1      -3.403  12.028  23.207  0.00  0.00    +0.000 OA
ENDBRANCH  18  20
ENDBRANCH  12  18
ENDBRANCH  10  17
ENDBRANCH   9  10
ENDBRANCH   1   9
BRANCH   5  22
ATOM     22  O   UNL     1       2.974   7.178  19.029  0.00  0.00    +0.000 OA
BRANCH  22  23
ATOM     23  C   UNL     1       3.118   5.964  18.446  0.00  0.00    +0.000 C 
ATOM     24  O   UNL     1       3.697   5.751  17.389  0.00  0.00    +0.000 OA
BRANCH  23  25
ATOM     25  C   UNL     1       2.412   4.893  19.199  0.00  0.00    +0.000 A 
ATOM     26  C   UNL     1       2.628   4.859  20.590  0.00  0.00    +0.000 A 
ATOM     27  C   UNL     1       2.010   3.894  21.386  0.00  0.00    +0.000 A 
ATOM     28  C   UNL     1       1.167   2.949  20.805  0.00  0.00    +0.000 A 
ATOM     29  C   UNL     1       0.917   2.986  19.433  0.00  0.00    +0.000 A 
ATOM     30  C   UNL     1       1.527   3.968  18.633  0.00  0.00    +0.000 A 
BRANCH  30  31
ATOM     31  O   UNL     1       1.198   4.028  17.306  0.00  0.00    +0.000 OA
ATOM     32  H   UNL     1       1.640   3.305  16.833  0.00  0.00    +0.000 HD
ENDBRANCH  30  31
ENDBRANCH  23  25
ENDBRANCH  22  23
ENDBRANCH   5  22
TORSDOF 9
ENDMDL
MODEL 6
REMARK VINA RESULT:      -8.0      2.467      4.523
REMARK  Name = 
REMARK  10 active torsions:
REMARK  status: ('A' for Active; 'I' for Inactive)
REMARK    1  A    between atoms: C_1  and  C_2
REMARK    2  A    between atoms: C_2  and  O_4
REMARK    3  A    between atoms: O_4  and  C_5
REMARK    4  A    between atoms: C_10  and  C_11
REMARK    5  A    between atoms: C_11  and  O_13
REMARK    6  A    between atoms: O_13  and  C_14
REMARK    7  A    between atoms: C_18  and  O_19
REMARK    8  A    between atoms: O_19  and  C_20
REMARK    9  A    between atoms: C_20  and  C_22
REMARK   10  A    between atoms: C_27  and  O_28
REMARK                            x       y       z     vdW  Elec       q    Type
REMARK                         _______ _______ _______ _____ _____    ______ ____
ROOT
ATOM      1  C   UNL     1       1.897   8.609  19.287  0.00  0.00    +0.000 C 
ATOM      2  C   UNL     1       1.394   9.135  17.935  0.00  0.00    +0.000 C 
ATOM      3  O   UNL     1       0.408  10.149  18.216  0.00  0.00    +0.000 OA
ATOM      4  C   UNL     1      -0.236   9.768  19.443  0.00  0.00    +0.000 C 
ATOM      5  C   UNL     1      -0.700  10.934  20.304  0.00  0.00    +0.000 C 
ATOM      6  C   UNL     1       0.400  11.095  21.348  0.00  0.00    +0.000 C 
ATOM      7  O   UNL     1       1.402  10.092  21.135  0.00  0.00    +0.000 OA
ATOM      8  C   UNL     1       0.835   9.086  20.280  0.00  0.00    +0.000 C 
ENDROOT
BRANCH   1   9
ATOM      9  O   UNL     1       2.175   7.182  19.389  0.00  0.00    +0.000 OA
BRANCH   9  10
ATOM     10  C   UNL     1       2.996   6.689  18.436  0.00  0.00    +0.000 C 
ATOM     11  O   UNL     1       3.787   7.391  17.815  0.00  0.00    +0.000 OA
BRANCH  10  17
ATOM     12  C   UNL     1       3.851   4.394  17.511  0.00  0.00    +0.000 A 
ATOM     13  C   UNL     1       3.527   3.042  17.284  0.00  0.00    +0.000 A 
ATOM     14  C   UNL     1       2.311   2.510  17.730  0.00  0.00    +0.000 A 
ATOM     15  C   UNL     1       1.406   3.312  18.404  0.00  0.00    +0.000 A 
ATOM     16  C   UNL     1       1.690   4.661  18.569  0.00  0.00    +0.000 A 
ATOM     17  C   UNL     1       2.900   5.235  18.115  0.00  0.00    +0.000 A 
BRANCH  12  18
ATOM     18  O   UNL     1       5.189   4.862  17.328  0.00  0.00    +0.000 OA
BRANCH  18  20
ATOM     19  C   UNL     1       7.555   4.649  17.469  0.00  0.00    +0.000 C 
ATOM     20  C   UNL     1       6.255   4.693  18.236  0.00  0.00    +0.000 C 
ATOM     21  O   UNL     1       6.172   4.599  19.453  0.00  0.00    +0.000 OA
ENDBRANCH  18  20
ENDBRANCH  12  18
ENDBRANCH  10  17
ENDBRANCH   9  10
ENDBRANCH   1   9
BRANCH   5  22
ATOM     22  O   UNL     1      -0.881  12.160  19.580  0.00  0.00    +0.000 OA
BRANCH  22  23
ATOM     23  C   UNL     1      -2.061  12.788  19.794  0.00  0.00    +0.000 C 
ATOM     24  O   UNL     1      -2.245  13.697  20.593  0.00  0.00    +0.000 OA
BRANCH  23  25
ATOM     25  C   UNL     1      -3.166  12.193  18.995  0.00  0.00    +0.000 A 
ATOM     26  C   UNL     1      -4.442  12.198  19.590  0.00  0.00    +0.000 A 
ATOM     27  C   UNL     1      -5.545  11.665  18.920  0.00  0.00    +0.000 A 
ATOM     28  C   UNL     1      -5.389  11.120  17.648  0.00  0.00    +0.000 A 
ATOM     29  C   UNL     1      -4.138  11.134  17.030  0.00  0.00    +0.000 A 
ATOM     30  C   UNL     1      -3.030  11.684  17.698  0.00  0.00    +0.000 A 
BRANCH  30  31
ATOM     31  O   UNL     1      -1.836  11.757  17.034  0.00  0.00    +0.000 OA
ATOM     32  H   UNL     1      -1.837  12.537  16.457  0.00  0.00    +0.000 HD
ENDBRANCH  30  31
ENDBRANCH  23  25
ENDBRANCH  22  23
ENDBRANCH   5  22
TORSDOF 9
ENDMDL
MODEL 7
REMARK VINA RESULT:      -8.0      2.206      4.868
REMARK  Name = 
REMARK  10 active torsions:
REMARK  status: ('A' for Active; 'I' for Inactive)
REMARK    1  A    between atoms: C_1  and  C_2
REMARK    2  A    between atoms: C_2  and  O_4
REMARK    3  A    between atoms: O_4  and  C_5
REMARK    4  A    between atoms: C_10  and  C_11
REMARK    5  A    between atoms: C_11  and  O_13
REMARK    6  A    between atoms: O_13  and  C_14
REMARK    7  A    between atoms: C_18  and  O_19
REMARK    8  A    between atoms: O_19  and  C_20
REMARK    9  A    between atoms: C_20  and  C_22
REMARK   10  A    between atoms: C_27  and  O_28
REMARK                            x       y       z     vdW  Elec       q    Type
REMARK                         _______ _______ _______ _____ _____    ______ ____
ROOT
ATOM      1  C   UNL     1       1.643   8.279  20.391  0.00  0.00    +0.000 C 
ATOM      2  C   UNL     1       1.410   8.777  18.957  0.00  0.00    +0.000 C 
ATOM      3  O   UNL     1       0.509   9.901  19.041  0.00  0.00    +0.000 OA
ATOM      4  C   UNL     1      -0.350   9.655  20.167  0.00  0.00    +0.000 C 
ATOM      5  C   UNL     1      -0.810  10.908  20.898  0.00  0.00    +0.000 C 
ATOM      6  C   UNL     1       0.131  11.015  22.094  0.00  0.00    +0.000 C 
ATOM      7  O   UNL     1       1.039   9.906  22.079  0.00  0.00    +0.000 OA
ATOM      8  C   UNL     1       0.502   8.916  21.187  0.00  0.00    +0.000 C 
ENDROOT
BRANCH   1   9
ATOM      9  O   UNL     1       1.747   6.839  20.591  0.00  0.00    +0.000 OA
BRANCH   9  10
ATOM     10  C   UNL     1       2.584   6.202  19.743  0.00  0.00    +0.000 C 
ATOM     11  O   UNL     1       3.638   6.696  19.357  0.00  0.00    +0.000 OA
BRANCH  10  17
ATOM     12  C   UNL     1       2.618   4.166  18.097  0.00  0.00    +0.000 A 
ATOM     13  C   UNL     1       2.068   2.902  17.805  0.00  0.00    +0.000 A 
ATOM     14  C   UNL     1       1.159   2.294  18.679  0.00  0.00    +0.000 A 
ATOM     15  C   UNL     1       0.787   2.932  19.851  0.00  0.00    +0.000 A 
ATOM     16  C   UNL     1       1.272   4.207  20.109  0.00  0.00    +0.000 A 
ATOM     17  C   UNL     1       2.176   4.858  19.240  0.00  0.00    +0.000 A 
BRANCH  12  18
ATOM     18  O   UNL     1       3.750   4.652  17.375  0.00  0.00    +0.000 OA
BRANCH  18  20
ATOM     19  C   UNL     1       5.617   3.880  16.118  0.00  0.00    +0.000 C 
ATOM     20  C   UNL     1       5.073   4.178  17.495  0.00  0.00    +0.000 C 
ATOM     21  O   UNL     1       5.705   4.027  18.531  0.00  0.00    +0.000 OA
ENDBRANCH  18  20
ENDBRANCH  12  18
ENDBRANCH  10  17
ENDBRANCH   9  10
ENDBRANCH   1   9
BRANCH   5  22
ATOM     22  O   UNL     1      -0.746  12.104  20.107  0.00  0.00    +0.000 OA
BRANCH  22  23
ATOM     23  C   UNL     1      -1.903  12.802  20.021  0.00  0.00    +0.000 C 
ATOM     24  O   UNL     1      -2.195  13.775  20.703  0.00  0.00    +0.000 OA
BRANCH  23  25
ATOM     25  C   UNL     1      -2.846  12.203  19.039  0.00  0.00    +0.000 A 
ATOM     26  C   UNL     1      -4.210  12.224  19.389  0.00  0.00    +0.000 A 
ATOM     27  C   UNL     1      -5.176  11.689  18.534  0.00  0.00    +0.000 A 
ATOM     28  C   UNL     1      -4.793  11.126  17.318  0.00  0.00    +0.000 A 
ATOM     29  C   UNL     1      -3.450  11.125  16.941  0.00  0.00    +0.000 A 
ATOM     30  C   UNL     1      -2.479  11.677  17.795  0.00  0.00    +0.000 A 
BRANCH  30  31
ATOM     31  O   UNL     1      -1.183  11.734  17.361  0.00  0.00    +0.000 OA
ATOM     32  H   UNL     1      -0.891  10.844  17.106  0.00  0.00    +0.000 HD
ENDBRANCH  30  31
ENDBRANCH  23  25
ENDBRANCH  22  23
ENDBRANCH   5  22
TORSDOF 9
ENDMDL
MODEL 8
REMARK VINA RESULT:      -8.0      1.630      8.768
REMARK  Name = 
REMARK  10 active torsions:
REMARK  status: ('A' for Active; 'I' for Inactive)
REMARK    1  A    between atoms: C_1  and  C_2
REMARK    2  A    between atoms: C_2  and  O_4
REMARK    3  A    between atoms: O_4  and  C_5
REMARK    4  A    between atoms: C_10  and  C_11
REMARK    5  A    between atoms: C_11  and  O_13
REMARK    6  A    between atoms: O_13  and  C_14
REMARK    7  A    between atoms: C_18  and  O_19
REMARK    8  A    between atoms: O_19  and  C_20
REMARK    9  A    between atoms: C_20  and  C_22
REMARK   10  A    between atoms: C_27  and  O_28
REMARK                            x       y       z     vdW  Elec       q    Type
REMARK                         _______ _______ _______ _____ _____    ______ ____
ROOT
ATOM      1  C   UNL     1       1.407   8.228  19.311  0.00  0.00    +0.000 C 
ATOM      2  C   UNL     1       2.126   7.983  17.977  0.00  0.00    +0.000 C 
ATOM      3  O   UNL     1       2.801   6.714  18.087  0.00  0.00    +0.000 OA
ATOM      4  C   UNL     1       3.176   6.566  19.467  0.00  0.00    +0.000 C 
ATOM      5  C   UNL     1       3.181   5.130  19.971  0.00  0.00    +0.000 C 
ATOM      6  C   UNL     1       1.844   4.975  20.688  0.00  0.00    +0.000 C 
ATOM      7  O   UNL     1       1.134   6.219  20.634  0.00  0.00    +0.000 OA
ATOM      8  C   UNL     1       2.076   7.241  20.271  0.00  0.00    +0.000 C 
ENDROOT
BRANCH   1   9
ATOM      9  O   UNL     1       1.384   9.594  19.819  0.00  0.00    +0.000 OA
BRANCH   9  10
ATOM     10  C   UNL     1       1.016  10.533  18.920  0.00  0.00    +0.000 C 
ATOM     11  O   UNL     1       1.829  11.212  18.301  0.00  0.00    +0.000 OA
BRANCH  10  17
ATOM     12  C   UNL     1      -1.321  11.601  19.420  0.00  0.00    +0.000 A 
ATOM     13  C   UNL     1      -2.681  11.640  19.053  0.00  0.00    +0.000 A 
ATOM     14  C   UNL     1      -3.145  10.928  17.941  0.00  0.00    +0.000 A 
ATOM     15  C   UNL     1      -2.268  10.170  17.183  0.00  0.00    +0.000 A 
ATOM     16  C   UNL     1      -0.942  10.072  17.582  0.00  0.00    +0.000 A 
ATOM     17  C   UNL     1      -0.443  10.763  18.709  0.00  0.00    +0.000 A 
BRANCH  12  18
ATOM     18  O   UNL     1      -0.792  12.543  20.355  0.00  0.00    +0.000 OA
BRANCH  18  20
ATOM     19  C   UNL     1      -0.745  11.495  22.491  0.00  0.00    +0.000 C 
ATOM     20  C   UNL     1      -1.202  12.696  21.696  0.00  0.00    +0.000 C 
ATOM     21  O   UNL     1      -1.823  13.637  22.170  0.00  0.00    +0.000 OA
ENDBRANCH  18  20
ENDBRANCH  12  18
ENDBRANCH  10  17
ENDBRANCH   9  10
ENDBRANCH   1   9
BRANCH   5  22
ATOM     22  O   UNL     1       3.307   4.146  18.934  0.00  0.00    +0.000 OA
BRANCH  22  23
ATOM     23  C   UNL     1       4.513   3.536  18.858  0.00  0.00    +0.000 C 
ATOM     24  O   UNL     1       4.934   2.700  19.647  0.00  0.00    +0.000 OA
BRANCH  23  25
ATOM     25  C   UNL     1       5.335   4.057  17.733  0.00  0.00    +0.000 A 
ATOM     26  C   UNL     1       4.748   4.010  16.454  0.00  0.00    +0.000 A 
ATOM     27  C   UNL     1       5.437   4.476  15.333  0.00  0.00    +0.000 A 
ATOM     28  C   UNL     1       6.721   4.996  15.474  0.00  0.00    +0.000 A 
ATOM     29  C   UNL     1       7.308   5.078  16.737  0.00  0.00    +0.000 A 
ATOM     30  C   UNL     1       6.608   4.623  17.868  0.00  0.00    +0.000 A 
BRANCH  30  31
ATOM     31  O   UNL     1       7.177   4.793  19.101  0.00  0.00    +0.000 OA
ATOM     32  H   UNL     1       6.478   4.932  19.760  0.00  0.00    +0.000 HD
ENDBRANCH  30  31
ENDBRANCH  23  25
ENDBRANCH  22  23
ENDBRANCH   5  22
TORSDOF 9
ENDMDL
MODEL 9
REMARK VINA RESULT:      -8.0      1.909      8.840
REMARK  Name = 
REMARK  10 active torsions:
REMARK  status: ('A' for Active; 'I' for Inactive)
REMARK    1  A    between atoms: C_1  and  C_2
REMARK    2  A    between atoms: C_2  and  O_4
REMARK    3  A    between atoms: O_4  and  C_5
REMARK    4  A    between atoms: C_10  and  C_11
REMARK    5  A    between atoms: C_11  and  O_13
REMARK    6  A    between atoms: O_13  and  C_14
REMARK    7  A    between atoms: C_18  and  O_19
REMARK    8  A    between atoms: O_19  and  C_20
REMARK    9  A    between atoms: C_20  and  C_22
REMARK   10  A    between atoms: C_27  and  O_28
REMARK                            x       y       z     vdW  Elec       q    Type
REMARK                         _______ _______ _______ _____ _____    ______ ____
ROOT
ATOM      1  C   UNL     1       1.413   8.239  19.285  0.00  0.00    +0.000 C 
ATOM      2  C   UNL     1       2.162   8.004  17.965  0.00  0.00    +0.000 C 
ATOM      3  O   UNL     1       2.847   6.741  18.088  0.00  0.00    +0.000 OA
ATOM      4  C   UNL     1       3.194   6.594  19.475  0.00  0.00    +0.000 C 
ATOM      5  C   UNL     1       3.203   5.158  19.977  0.00  0.00    +0.000 C 
ATOM      6  C   UNL     1       1.853   4.989  20.666  0.00  0.00    +0.000 C 
ATOM      7  O   UNL     1       1.132   6.226  20.598  0.00  0.00    +0.000 OA
ATOM      8  C   UNL     1       2.071   7.258  20.257  0.00  0.00    +0.000 C 
ENDROOT
BRANCH   1   9
ATOM      9  O   UNL     1       1.366   9.605  19.794  0.00  0.00    +0.000 OA
BRANCH   9  10
ATOM     10  C   UNL     1       0.999  10.540  18.890  0.00  0.00    +0.000 C 
ATOM     11  O   UNL     1       1.812  11.218  18.271  0.00  0.00    +0.000 OA
BRANCH  10  17
ATOM     12  C   UNL     1      -1.320  11.678  19.317  0.00  0.00    +0.000 A 
ATOM     13  C   UNL     1      -2.684  11.700  18.963  0.00  0.00    +0.000 A 
ATOM     14  C   UNL     1      -3.170  10.894  17.927  0.00  0.00    +0.000 A 
ATOM     15  C   UNL     1      -2.311  10.059  17.233  0.00  0.00    +0.000 A 
ATOM     16  C   UNL     1      -0.981   9.982  17.623  0.00  0.00    +0.000 A 
ATOM     17  C   UNL     1      -0.460  10.768  18.676  0.00  0.00    +0.000 A 
BRANCH  12  18
ATOM     18  O   UNL     1      -0.769  12.696  20.155  0.00  0.00    +0.000 OA
BRANCH  18  20
ATOM     19  C   UNL     1      -0.070  14.453  18.711  0.00  0.00    +0.000 C 
ATOM     20  C   UNL     1      -0.867  14.086  19.940  0.00  0.00    +0.000 C 
ATOM     21  O   UNL     1      -1.492  14.890  20.618  0.00  0.00    +0.000 OA
ENDBRANCH  18  20
ENDBRANCH  12  18
ENDBRANCH  10  17
ENDBRANCH   9  10
ENDBRANCH   1   9
BRANCH   5  22
ATOM     22  O   UNL     1       3.359   4.177  18.941  0.00  0.00    +0.000 OA
BRANCH  22  23
ATOM     23  C   UNL     1       4.584   3.605  18.867  0.00  0.00    +0.000 C 
ATOM     24  O   UNL     1       5.055   2.831  19.688  0.00  0.00    +0.000 OA
BRANCH  23  25
ATOM     25  C   UNL     1       5.357   4.089  17.692  0.00  0.00    +0.000 A 
ATOM     26  C   UNL     1       4.694   4.059  16.450  0.00  0.00    +0.000 A 
ATOM     27  C   UNL     1       5.332   4.493  15.287  0.00  0.00    +0.000 A 
ATOM     28  C   UNL     1       6.642   4.963  15.348  0.00  0.00    +0.000 A 
ATOM     29  C   UNL     1       7.305   5.029  16.574  0.00  0.00    +0.000 A 
ATOM     30  C   UNL     1       6.656   4.606  17.747  0.00  0.00    +0.000 A 
BRANCH  30  31
ATOM     31  O   UNL     1       7.304   4.760  18.943  0.00  0.00    +0.000 OA
ATOM     32  H   UNL     1       6.661   5.014  19.625  0.00  0.00    +0.000 HD
ENDBRANCH  30  31
ENDBRANCH  23  25
ENDBRANCH  22  23
ENDBRANCH   5  22
TORSDOF 9
ENDMDL
