MODEL 1
REMARK VINA RESULT:      -6.4      0.000      0.000
REMARK  Name = 
REMARK  4 active torsions:
REMARK  status: ('A' for Active; 'I' for Inactive)
REMARK    1  A    between atoms: C_1  and  O_2
REMARK    2  A    between atoms: O_2  and  C_3
REMARK    3  A    between atoms: C_7  and  O_8
REMARK    4  A    between atoms: O_8  and  C_9
REMARK                            x       y       z     vdW  Elec       q    Type
REMARK                         _______ _______ _______ _____ _____    ______ ____
ROOT
ATOM      1  C   UNL     1       6.554   5.575  16.598  0.00  0.00    +0.000 A 
ATOM      2  C   UNL     1       7.262   5.363  17.784  0.00  0.00    +0.000 A 
ATOM      3  C   UNL     1       6.594   5.317  19.010  0.00  0.00    +0.000 A 
ATOM      4  C   UNL     1       5.215   5.512  19.057  0.00  0.00    +0.000 A 
ATOM      5  C   UNL     1       4.506   5.750  17.879  0.00  0.00    +0.000 A 
ATOM      6  C   UNL     1       5.169   5.732  16.647  0.00  0.00    +0.000 A 
ENDROOT
BRANCH   1   8
ATOM      7  C   UNL     1       6.880   4.785  14.382  0.00  0.00    +0.000 C 
ATOM      8  O   UNL     1       7.319   5.602  15.463  0.00  0.00    +0.000 OA
ENDBRANCH   1   8
BRANCH   5   9
ATOM      9  O   UNL     1       3.145   5.932  18.012  0.00  0.00    +0.000 OA
BRANCH   9  10
ATOM     10  C   UNL     1       2.377   4.901  18.496  0.00  0.00    +0.000 A 
ATOM     11  C   UNL     1       1.830   4.856  19.778  0.00  0.00    +0.000 A 
ATOM     12  C   UNL     1       1.059   3.757  20.150  0.00  0.00    +0.000 A 
ATOM     13  C   UNL     1       0.899   2.722  19.242  0.00  0.00    +0.000 A 
ATOM     14  N   UNL     1       1.447   2.717  18.008  0.00  0.00    +0.000 NA
ATOM     15  C   UNL     1       2.183   3.805  17.668  0.00  0.00    +0.000 A 
ENDBRANCH   9  10
ENDBRANCH   5   9
TORSDOF 3
ENDMDL
MODEL 2
REMARK VINA RESULT:      -6.3      1.513      1.681
REMARK  Name = 
REMARK  4 active torsions:
REMARK  status: ('A' for Active; 'I' for Inactive)
REMARK    1  A    between atoms: C_1  and  O_2
REMARK    2  A    between atoms: O_2  and  C_3
REMARK    3  A    between atoms: C_7  and  O_8
REMARK    4  A    between atoms: O_8  and  C_9
REMARK                            x       y       z     vdW  Elec       q    Type
REMARK                         _______ _______ _______ _____ _____    ______ ____
ROOT
ATOM      1  C   UNL     1       6.489   5.375  16.421  0.00  0.00    +0.000 A 
ATOM      2  C   UNL     1       7.289   6.340  17.037  0.00  0.00    +0.000 A 
ATOM      3  C   UNL     1       7.427   6.366  18.426  0.00  0.00    +0.000 A 
ATOM      4  C   UNL     1       6.739   5.441  19.209  0.00  0.00    +0.000 A 
ATOM      5  C   UNL     1       5.917   4.491  18.602  0.00  0.00    +0.000 A 
ATOM      6  C   UNL     1       5.832   4.428  17.207  0.00  0.00    +0.000 A 
ENDROOT
BRANCH   1   8
ATOM      7  C   UNL     1       6.350   4.219  14.350  0.00  0.00    +0.000 C 
ATOM      8  O   UNL     1       6.432   5.454  15.055  0.00  0.00    +0.000 OA
ENDBRANCH   1   8
BRANCH   5   9
ATOM      9  O   UNL     1       5.273   3.612  19.448  0.00  0.00    +0.000 OA
BRANCH   9  10
ATOM     10  C   UNL     1       3.903   3.657  19.541  0.00  0.00    +0.000 A 
ATOM     11  C   UNL     1       3.176   4.766  19.971  0.00  0.00    +0.000 A 
ATOM     12  C   UNL     1       1.785   4.693  20.014  0.00  0.00    +0.000 A 
ATOM     13  C   UNL     1       1.174   3.497  19.668  0.00  0.00    +0.000 A 
ATOM     14  N   UNL     1       1.851   2.394  19.285  0.00  0.00    +0.000 NA
ATOM     15  C   UNL     1       3.203   2.498  19.240  0.00  0.00    +0.000 A 
ENDBRANCH   9  10
ENDBRANCH   5   9
TORSDOF 3
ENDMDL
MODEL 3
REMARK VINA RESULT:      -6.3      1.611      1.972
REMARK  Name = 
REMARK  4 active torsions:
REMARK  status: ('A' for Active; 'I' for Inactive)
REMARK    1  A    between atoms: C_1  and  O_2
REMARK    2  A    between atoms: O_2  and  C_3
REMARK    3  A    between atoms: C_7  and  O_8
REMARK    4  A    between atoms: O_8  and  C_9
REMARK                            x       y       z     vdW  Elec       q    Type
REMARK                         _______ _______ _______ _____ _____    ______ ____
ROOT
ATOM      1  C   UNL     1       6.525   5.550  16.396  0.00  0.00    +0.000 A 
ATOM      2  C   UNL     1       7.337   6.477  17.054  0.00  0.00    +0.000 A 
ATOM      3  C   UNL     1       7.492   6.428  18.441  0.00  0.00    +0.000 A 
ATOM      4  C   UNL     1       6.809   5.464  19.181  0.00  0.00    +0.000 A 
ATOM      5  C   UNL     1       5.976   4.551  18.533  0.00  0.00    +0.000 A 
ATOM      6  C   UNL     1       5.874   4.565  17.138  0.00  0.00    +0.000 A 
ENDROOT
BRANCH   1   8
ATOM      7  C   UNL     1       6.564   4.516  14.258  0.00  0.00    +0.000 C 
ATOM      8  O   UNL     1       6.452   5.703  15.038  0.00  0.00    +0.000 OA
ENDBRANCH   1   8
BRANCH   5   9
ATOM      9  O   UNL     1       5.338   3.630  19.339  0.00  0.00    +0.000 OA
BRANCH   9  10
ATOM     10  C   UNL     1       3.989   3.427  19.182  0.00  0.00    +0.000 A 
ATOM     11  C   UNL     1       3.421   2.299  18.591  0.00  0.00    +0.000 A 
ATOM     12  C   UNL     1       2.034   2.204  18.498  0.00  0.00    +0.000 A 
ATOM     13  C   UNL     1       1.266   3.261  18.961  0.00  0.00    +0.000 A 
ATOM     14  N   UNL     1       1.785   4.384  19.503  0.00  0.00    +0.000 NA
ATOM     15  C   UNL     1       3.137   4.444  19.593  0.00  0.00    +0.000 A 
ENDBRANCH   9  10
ENDBRANCH   5   9
TORSDOF 3
ENDMDL
MODEL 4
REMARK VINA RESULT:      -6.3      2.616      5.783
REMARK  Name = 
REMARK  4 active torsions:
REMARK  status: ('A' for Active; 'I' for Inactive)
REMARK    1  A    between atoms: C_1  and  O_2
REMARK    2  A    between atoms: O_2  and  C_3
REMARK    3  A    between atoms: C_7  and  O_8
REMARK    4  A    between atoms: O_8  and  C_9
REMARK                            x       y       z     vdW  Elec       q    Type
REMARK                         _______ _______ _______ _____ _____    ______ ____
ROOT
ATOM      1  C   UNL     1       2.458   3.556  19.655  0.00  0.00    +0.000 A 
ATOM      2  C   UNL     1       1.851   4.804  19.502  0.00  0.00    +0.000 A 
ATOM      3  C   UNL     1       2.556   5.874  18.946  0.00  0.00    +0.000 A 
ATOM      4  C   UNL     1       3.887   5.705  18.567  0.00  0.00    +0.000 A 
ATOM      5  C   UNL     1       4.508   4.468  18.742  0.00  0.00    +0.000 A 
ATOM      6  C   UNL     1       3.779   3.382  19.240  0.00  0.00    +0.000 A 
ENDROOT
BRANCH   1   8
ATOM      7  C   UNL     1       1.504   2.640  21.628  0.00  0.00    +0.000 C 
ATOM      8  O   UNL     1       1.666   2.589  20.214  0.00  0.00    +0.000 OA
ENDBRANCH   1   8
BRANCH   5   9
ATOM      9  O   UNL     1       5.825   4.384  18.340  0.00  0.00    +0.000 OA
BRANCH   9  10
ATOM     10  C   UNL     1       6.127   4.518  17.007  0.00  0.00    +0.000 A 
ATOM     11  C   UNL     1       5.524   3.789  15.982  0.00  0.00    +0.000 A 
ATOM     12  C   UNL     1       5.910   4.021  14.664  0.00  0.00    +0.000 A 
ATOM     13  C   UNL     1       6.916   4.943  14.421  0.00  0.00    +0.000 A 
ATOM     14  N   UNL     1       7.547   5.637  15.393  0.00  0.00    +0.000 NA
ATOM     15  C   UNL     1       7.142   5.400  16.666  0.00  0.00    +0.000 A 
ENDBRANCH   9  10
ENDBRANCH   5   9
TORSDOF 3
ENDMDL
MODEL 5
REMARK VINA RESULT:      -6.2      2.683      5.872
REMARK  Name = 
REMARK  4 active torsions:
REMARK  status: ('A' for Active; 'I' for Inactive)
REMARK    1  A    between atoms: C_1  and  O_2
REMARK    2  A    between atoms: O_2  and  C_3
REMARK    3  A    between atoms: C_7  and  O_8
REMARK    4  A    between atoms: O_8  and  C_9
REMARK                            x       y       z     vdW  Elec       q    Type
REMARK                         _______ _______ _______ _____ _____    ______ ____
ROOT
ATOM      1  C   UNL     1       2.980   3.249  19.924  0.00  0.00    +0.000 A 
ATOM      2  C   UNL     1       1.804   3.510  19.218  0.00  0.00    +0.000 A 
ATOM      3  C   UNL     1       1.850   3.876  17.871  0.00  0.00    +0.000 A 
ATOM      4  C   UNL     1       3.081   4.011  17.232  0.00  0.00    +0.000 A 
ATOM      5  C   UNL     1       4.261   3.777  17.938  0.00  0.00    +0.000 A 
ATOM      6  C   UNL     1       4.207   3.349  19.269  0.00  0.00    +0.000 A 
ENDROOT
BRANCH   1   8
ATOM      7  C   UNL     1       1.461   2.711  21.669  0.00  0.00    +0.000 C 
ATOM      8  O   UNL     1       2.805   2.902  21.237  0.00  0.00    +0.000 OA
ENDBRANCH   1   8
BRANCH   5   9
ATOM      9  O   UNL     1       5.436   3.931  17.230  0.00  0.00    +0.000 OA
BRANCH   9  10
ATOM     10  C   UNL     1       6.206   5.047  17.449  0.00  0.00    +0.000 A 
ATOM     11  C   UNL     1       7.105   5.193  18.505  0.00  0.00    +0.000 A 
ATOM     12  C   UNL     1       7.838   6.373  18.616  0.00  0.00    +0.000 A 
ATOM     13  C   UNL     1       7.614   7.381  17.691  0.00  0.00    +0.000 A 
ATOM     14  N   UNL     1       6.723   7.287  16.681  0.00  0.00    +0.000 NA
ATOM     15  C   UNL     1       6.033   6.123  16.590  0.00  0.00    +0.000 A 
ENDBRANCH   9  10
ENDBRANCH   5   9
TORSDOF 3
ENDMDL
MODEL 6
REMARK VINA RESULT:      -6.2      1.747      2.031
REMARK  Name = 
REMARK  4 active torsions:
REMARK  status: ('A' for Active; 'I' for Inactive)
REMARK    1  A    between atoms: C_1  and  O_2
REMARK    2  A    between atoms: O_2  and  C_3
REMARK    3  A    between atoms: C_7  and  O_8
REMARK    4  A    between atoms: O_8  and  C_9
REMARK                            x       y       z     vdW  Elec       q    Type
REMARK                         _______ _______ _______ _____ _____    ______ ____
ROOT
ATOM      1  C   UNL     1       5.939   5.459  16.227  0.00  0.00    +0.000 A 
ATOM      2  C   UNL     1       5.534   6.718  16.679  0.00  0.00    +0.000 A 
ATOM      3  C   UNL     1       4.355   6.863  17.413  0.00  0.00    +0.000 A 
ATOM      4  C   UNL     1       3.559   5.749  17.674  0.00  0.00    +0.000 A 
ATOM      5  C   UNL     1       3.944   4.493  17.203  0.00  0.00    +0.000 A 
ATOM      6  C   UNL     1       5.157   4.342  16.523  0.00  0.00    +0.000 A 
ENDROOT
BRANCH   1   8
ATOM      7  C   UNL     1       7.070   4.816  14.240  0.00  0.00    +0.000 C 
ATOM      8  O   UNL     1       7.109   5.446  15.517  0.00  0.00    +0.000 OA
ENDBRANCH   1   8
BRANCH   5   9
ATOM      9  O   UNL     1       3.101   3.444  17.506  0.00  0.00    +0.000 OA
BRANCH   9  10
ATOM     10  C   UNL     1       2.628   3.314  18.789  0.00  0.00    +0.000 A 
ATOM     11  C   UNL     1       1.360   3.715  19.209  0.00  0.00    +0.000 A 
ATOM     12  C   UNL     1       0.991   3.523  20.539  0.00  0.00    +0.000 A 
ATOM     13  C   UNL     1       1.921   2.976  21.411  0.00  0.00    +0.000 A 
ATOM     14  N   UNL     1       3.168   2.614  21.045  0.00  0.00    +0.000 NA
ATOM     15  C   UNL     1       3.496   2.801  19.742  0.00  0.00    +0.000 A 
ENDBRANCH   9  10
ENDBRANCH   5   9
TORSDOF 3
ENDMDL
MODEL 7
REMARK VINA RESULT:      -6.2      1.380      1.963
REMARK  Name = 
REMARK  4 active torsions:
REMARK  status: ('A' for Active; 'I' for Inactive)
REMARK    1  A    between atoms: C_1  and  O_2
REMARK    2  A    between atoms: O_2  and  C_3
REMARK    3  A    between atoms: C_7  and  O_8
REMARK    4  A    between atoms: O_8  and  C_9
REMARK                            x       y       z     vdW  Elec       q    Type
REMARK                         _______ _______ _______ _____ _____    ______ ____
ROOT
ATOM      1  C   UNL     1       6.393   5.969  16.669  0.00  0.00    +0.000 A 
ATOM      2  C   UNL     1       6.605   4.665  16.214  0.00  0.00    +0.000 A 
ATOM      3  C   UNL     1       5.572   3.726  16.243  0.00  0.00    +0.000 A 
ATOM      4  C   UNL     1       4.326   4.082  16.756  0.00  0.00    +0.000 A 
ATOM      5  C   UNL     1       4.115   5.375  17.236  0.00  0.00    +0.000 A 
ATOM      6  C   UNL     1       5.134   6.330  17.147  0.00  0.00    +0.000 A 
ENDROOT
BRANCH   1   8
ATOM      7  C   UNL     1       7.716   7.643  17.712  0.00  0.00    +0.000 C 
ATOM      8  O   UNL     1       7.482   6.795  16.592  0.00  0.00    +0.000 OA
ENDBRANCH   1   8
BRANCH   5   9
ATOM      9  O   UNL     1       2.854   5.645  17.726  0.00  0.00    +0.000 OA
BRANCH   9  10
ATOM     10  C   UNL     1       2.382   4.921  18.794  0.00  0.00    +0.000 A 
ATOM     11  C   UNL     1       2.816   5.078  20.110  0.00  0.00    +0.000 A 
ATOM     12  C   UNL     1       2.253   4.289  21.111  0.00  0.00    +0.000 A 
ATOM     13  C   UNL     1       1.309   3.339  20.752  0.00  0.00    +0.000 A 
ATOM     14  N   UNL     1       0.896   3.135  19.483  0.00  0.00    +0.000 NA
ATOM     15  C   UNL     1       1.451   3.927  18.531  0.00  0.00    +0.000 A 
ENDBRANCH   9  10
ENDBRANCH   5   9
TORSDOF 3
ENDMDL
MODEL 8
REMARK VINA RESULT:      -6.1      1.467      2.544
REMARK  Name = 
REMARK  4 active torsions:
REMARK  status: ('A' for Active; 'I' for Inactive)
REMARK    1  A    between atoms: C_1  and  O_2
REMARK    2  A    between atoms: O_2  and  C_3
REMARK    3  A    between atoms: C_7  and  O_8
REMARK    4  A    between atoms: O_8  and  C_9
REMARK                            x       y       z     vdW  Elec       q    Type
REMARK                         _______ _______ _______ _____ _____    ______ ____
ROOT
ATOM      1  C   UNL     1       6.804   4.745  17.769  0.00  0.00    +0.000 A 
ATOM      2  C   UNL     1       7.044   4.373  16.443  0.00  0.00    +0.000 A 
ATOM      3  C   UNL     1       6.016   4.410  15.498  0.00  0.00    +0.000 A 
ATOM      4  C   UNL     1       4.733   4.793  15.884  0.00  0.00    +0.000 A 
ATOM      5  C   UNL     1       4.481   5.141  17.211  0.00  0.00    +0.000 A 
ATOM      6  C   UNL     1       5.526   5.163  18.140  0.00  0.00    +0.000 A 
ENDROOT
BRANCH   1   8
ATOM      7  C   UNL     1       8.046   5.719  19.543  0.00  0.00    +0.000 C 
ATOM      8  O   UNL     1       7.888   4.663  18.600  0.00  0.00    +0.000 OA
ENDBRANCH   1   8
BRANCH   5   9
ATOM      9  O   UNL     1       3.185   5.509  17.510  0.00  0.00    +0.000 OA
BRANCH   9  10
ATOM     10  C   UNL     1       2.427   4.695  18.315  0.00  0.00    +0.000 A 
ATOM     11  C   UNL     1       1.877   3.477  17.916  0.00  0.00    +0.000 A 
ATOM     12  C   UNL     1       1.132   2.735  18.831  0.00  0.00    +0.000 A 
ATOM     13  C   UNL     1       0.929   3.258  20.098  0.00  0.00    +0.000 A 
ATOM     14  N   UNL     1       1.415   4.450  20.504  0.00  0.00    +0.000 NA
ATOM     15  C   UNL     1       2.146   5.146  19.598  0.00  0.00    +0.000 A 
ENDBRANCH   9  10
ENDBRANCH   5   9
TORSDOF 3
ENDMDL
MODEL 9
REMARK VINA RESULT:      -6.1      1.891      2.493
REMARK  Name = 
REMARK  4 active torsions:
REMARK  status: ('A' for Active; 'I' for Inactive)
REMARK    1  A    between atoms: C_1  and  O_2
REMARK    2  A    between atoms: O_2  and  C_3
REMARK    3  A    between atoms: C_7  and  O_8
REMARK    4  A    between atoms: O_8  and  C_9
REMARK                            x       y       z     vdW  Elec       q    Type
REMARK                         _______ _______ _______ _____ _____    ______ ____
ROOT
ATOM      1  C   UNL     1       6.964   6.360  18.065  0.00  0.00    +0.000 A 
ATOM      2  C   UNL     1       6.305   6.497  16.841  0.00  0.00    +0.000 A 
ATOM      3  C   UNL     1       5.232   5.665  16.515  0.00  0.00    +0.000 A 
ATOM      4  C   UNL     1       4.831   4.671  17.405  0.00  0.00    +0.000 A 
ATOM      5  C   UNL     1       5.501   4.512  18.619  0.00  0.00    +0.000 A 
ATOM      6  C   UNL     1       6.534   5.388  18.968  0.00  0.00    +0.000 A 
ENDROOT
BRANCH   1   8
ATOM      7  C   UNL     1       7.883   8.512  17.655  0.00  0.00    +0.000 C 
ATOM      8  O   UNL     1       8.001   7.231  18.267  0.00  0.00    +0.000 OA
ENDBRANCH   1   8
BRANCH   5   9
ATOM      9  O   UNL     1       5.040   3.505  19.443  0.00  0.00    +0.000 OA
BRANCH   9  10
ATOM     10  C   UNL     1       3.692   3.406  19.687  0.00  0.00    +0.000 A 
ATOM     11  C   UNL     1       2.940   4.357  20.376  0.00  0.00    +0.000 A 
ATOM     12  C   UNL     1       1.574   4.147  20.553  0.00  0.00    +0.000 A 
ATOM     13  C   UNL     1       1.017   2.972  20.071  0.00  0.00    +0.000 A 
ATOM     14  N   UNL     1       1.724   2.014  19.434  0.00  0.00    +0.000 NA
ATOM     15  C   UNL     1       3.049   2.251  19.265  0.00  0.00    +0.000 A 
ENDBRANCH   9  10
ENDBRANCH   5   9
TORSDOF 3
ENDMDL
