MODEL 1
REMARK VINA RESULT:      -9.2      0.000      0.000
REMARK  Name = 
REMARK  8 active torsions:
REMARK  status: ('A' for Active; 'I' for Inactive)
REMARK    1  A    between atoms: C_1  and  C_2
REMARK    2  A    between atoms: C_5  and  C_6
REMARK    3  A    between atoms: C_10  and  C_11
REMARK    4  A    between atoms: C_14  and  C_15
REMARK    5  A    between atoms: C_21  and  C_22
REMARK    6  A    between atoms: C_24  and  C_25
REMARK    7  A    between atoms: C_25  and  C_26
REMARK    8  A    between atoms: C_25  and  C_27
REMARK                            x       y       z     vdW  Elec       q    Type
REMARK                         _______ _______ _______ _____ _____    ______ ____
ROOT
ATOM      1  C   UNL     1       3.832   2.522  17.560  0.00  0.00    +0.000 C 
ATOM      2  C   UNL     1       3.432   3.877  18.082  0.00  0.00    +0.000 A 
ATOM      3  C   UNL     1       2.310   3.914  18.928  0.00  0.00    +0.000 A 
ATOM      4  C   UNL     1       1.863   5.111  19.481  0.00  0.00    +0.000 A 
ATOM      5  C   UNL     1       2.548   6.296  19.225  0.00  0.00    +0.000 A 
ATOM      6  C   UNL     1       3.643   6.277  18.343  0.00  0.00    +0.000 A 
ATOM      7  C   UNL     1       4.101   5.081  17.750  0.00  0.00    +0.000 A 
ENDROOT
BRANCH   7   8
ATOM      8  C   UNL     1       5.225   5.137  16.796  0.00  0.00    +0.000 A 
ATOM      9  N   UNL     1       5.217   4.496  15.572  0.00  0.00    +0.000 N 
ATOM     10  C   UNL     1       6.403   4.728  14.925  0.00  0.00    +0.000 A 
ATOM     11  N   UNL     1       7.156   5.536  15.636  0.00  0.00    +0.000 NA
ATOM     12  C   UNL     1       6.445   5.808  16.783  0.00  0.00    +0.000 A 
ATOM     13 CL   UNL     1       7.097   6.836  17.979  0.00  0.00    +0.000 Cl
ATOM     14  H   UNL     1       4.463   3.939  15.205  0.00  0.00    +0.000 HD
BRANCH  10  15
ATOM     15  C   UNL     1       6.723   4.132  13.586  0.00  0.00    +0.000 C 
ATOM     16  C   UNL     1       5.443   3.765  12.838  0.00  0.00    +0.000 C 
ATOM     17  C   UNL     1       7.575   5.091  12.755  0.00  0.00    +0.000 C 
ENDBRANCH  10  15
ENDBRANCH   7   8
BRANCH   5  18
ATOM     18  C   UNL     1       2.076   7.599  19.780  0.00  0.00    +0.000 C 
ATOM     19  O   UNL     1       1.983   7.738  20.997  0.00  0.00    +0.000 OA
ATOM     20  N   UNL     1       1.813   8.627  18.895  0.00  0.00    +0.000 N 
ATOM     21  C   UNL     1       1.319   9.946  19.264  0.00  0.00    +0.000 C 
ATOM     22  C   UNL     1       0.550   9.976  17.930  0.00  0.00    +0.000 C 
ATOM     23  C   UNL     1       1.114   8.588  17.613  0.00  0.00    +0.000 C 
BRANCH  22  24
ATOM     24  C   UNL     1      -1.015  10.247  17.970  0.00  0.00    +0.000 A 
ATOM     25  C   UNL     1      -1.618  11.115  18.904  0.00  0.00    +0.000 A 
ATOM     26  C   UNL     1      -2.913  11.605  18.715  0.00  0.00    +0.000 A 
ATOM     27  C   UNL     1      -3.648  11.196  17.605  0.00  0.00    +0.000 A 
ATOM     28  C   UNL     1      -3.146  10.207  16.763  0.00  0.00    +0.000 A 
ATOM     29  C   UNL     1      -1.850   9.736  16.956  0.00  0.00    +0.000 A 
BRANCH  27  30
ATOM     30  C   UNL     1      -4.869  11.864  17.273  0.00  0.00    +0.000 C 
ATOM     31  N   UNL     1      -5.844  12.441  17.045  0.00  0.00    +0.000 NA
ENDBRANCH  27  30
ENDBRANCH  22  24
ENDBRANCH   5  18
TORSDOF 5
ENDMDL
MODEL 2
REMARK VINA RESULT:      -8.8      0.713      1.290
REMARK  Name = 
REMARK  8 active torsions:
REMARK  status: ('A' for Active; 'I' for Inactive)
REMARK    1  A    between atoms: C_1  and  C_2
REMARK    2  A    between atoms: C_5  and  C_6
REMARK    3  A    between atoms: C_10  and  C_11
REMARK    4  A    between atoms: C_14  and  C_15
REMARK    5  A    between atoms: C_21  and  C_22
REMARK    6  A    between atoms: C_24  and  C_25
REMARK    7  A    between atoms: C_25  and  C_26
REMARK    8  A    between atoms: C_25  and  C_27
REMARK                            x       y       z     vdW  Elec       q    Type
REMARK                         _______ _______ _______ _____ _____    ______ ____
ROOT
ATOM      1  C   UNL     1       3.742   2.393  17.671  0.00  0.00    +0.000 C 
ATOM      2  C   UNL     1       3.307   3.721  18.232  0.00  0.00    +0.000 A 
ATOM      3  C   UNL     1       2.147   3.713  19.028  0.00  0.00    +0.000 A 
ATOM      4  C   UNL     1       1.665   4.881  19.611  0.00  0.00    +0.000 A 
ATOM      5  C   UNL     1       2.349   6.082  19.438  0.00  0.00    +0.000 A 
ATOM      6  C   UNL     1       3.483   6.110  18.606  0.00  0.00    +0.000 A 
ATOM      7  C   UNL     1       3.978   4.944  17.983  0.00  0.00    +0.000 A 
ENDROOT
BRANCH   7   8
ATOM      8  C   UNL     1       5.143   5.050  17.083  0.00  0.00    +0.000 A 
ATOM      9  N   UNL     1       5.056   4.939  15.709  0.00  0.00    +0.000 N 
ATOM     10  C   UNL     1       6.304   5.070  15.158  0.00  0.00    +0.000 A 
ATOM     11  N   UNL     1       7.188   5.322  16.096  0.00  0.00    +0.000 NA
ATOM     12  C   UNL     1       6.493   5.326  17.284  0.00  0.00    +0.000 A 
ATOM     13 CL   UNL     1       7.303   5.620  18.757  0.00  0.00    +0.000 Cl
ATOM     14  H   UNL     1       4.211   4.782  15.184  0.00  0.00    +0.000 HD
BRANCH  10  15
ATOM     15  C   UNL     1       6.552   4.954  13.683  0.00  0.00    +0.000 C 
ATOM     16  C   UNL     1       8.020   5.226  13.359  0.00  0.00    +0.000 C 
ATOM     17  C   UNL     1       6.134   3.578  13.168  0.00  0.00    +0.000 C 
ENDBRANCH  10  15
ENDBRANCH   7   8
BRANCH   5  18
ATOM     18  C   UNL     1       1.841   7.355  20.026  0.00  0.00    +0.000 C 
ATOM     19  O   UNL     1       1.480   7.376  21.200  0.00  0.00    +0.000 OA
ATOM     20  N   UNL     1       1.848   8.488  19.234  0.00  0.00    +0.000 N 
ATOM     21  C   UNL     1       1.362   9.798  19.640  0.00  0.00    +0.000 C 
ATOM     22  C   UNL     1       0.922  10.031  18.183  0.00  0.00    +0.000 C 
ATOM     23  C   UNL     1       1.460   8.641  17.835  0.00  0.00    +0.000 C 
BRANCH  22  24
ATOM     24  C   UNL     1      -0.592  10.428  17.908  0.00  0.00    +0.000 A 
ATOM     25  C   UNL     1      -1.452   9.655  17.101  0.00  0.00    +0.000 A 
ATOM     26  C   UNL     1      -2.839   9.818  17.147  0.00  0.00    +0.000 A 
ATOM     27  C   UNL     1      -3.390  10.796  17.972  0.00  0.00    +0.000 A 
ATOM     28  C   UNL     1      -2.558  11.689  18.644  0.00  0.00    +0.000 A 
ATOM     29  C   UNL     1      -1.178  11.508  18.598  0.00  0.00    +0.000 A 
BRANCH  27  30
ATOM     30  C   UNL     1      -4.800  10.817  18.210  0.00  0.00    +0.000 C 
ATOM     31  N   UNL     1      -5.948  10.821  18.348  0.00  0.00    +0.000 NA
ENDBRANCH  27  30
ENDBRANCH  22  24
ENDBRANCH   5  18
TORSDOF 5
ENDMDL
MODEL 3
REMARK VINA RESULT:      -8.7      1.177      1.694
REMARK  Name = 
REMARK  8 active torsions:
REMARK  status: ('A' for Active; 'I' for Inactive)
REMARK    1  A    between atoms: C_1  and  C_2
REMARK    2  A    between atoms: C_5  and  C_6
REMARK    3  A    between atoms: C_10  and  C_11
REMARK    4  A    between atoms: C_14  and  C_15
REMARK    5  A    between atoms: C_21  and  C_22
REMARK    6  A    between atoms: C_24  and  C_25
REMARK    7  A    between atoms: C_25  and  C_26
REMARK    8  A    between atoms: C_25  and  C_27
REMARK                            x       y       z     vdW  Elec       q    Type
REMARK                         _______ _______ _______ _____ _____    ______ ____
ROOT
ATOM      1  C   UNL     1       3.465   2.824  19.304  0.00  0.00    +0.000 C 
ATOM      2  C   UNL     1       3.005   4.231  19.577  0.00  0.00    +0.000 A 
ATOM      3  C   UNL     1       1.875   4.370  20.403  0.00  0.00    +0.000 A 
ATOM      4  C   UNL     1       1.374   5.625  20.734  0.00  0.00    +0.000 A 
ATOM      5  C   UNL     1       2.011   6.775  20.273  0.00  0.00    +0.000 A 
ATOM      6  C   UNL     1       3.113   6.647  19.410  0.00  0.00    +0.000 A 
ATOM      7  C   UNL     1       3.626   5.385  19.038  0.00  0.00    +0.000 A 
ENDROOT
BRANCH   7   8
ATOM      8  C   UNL     1       4.754   5.320  18.089  0.00  0.00    +0.000 A 
ATOM      9  N   UNL     1       4.594   5.297  16.717  0.00  0.00    +0.000 N 
ATOM     10  C   UNL     1       5.822   5.222  16.113  0.00  0.00    +0.000 A 
ATOM     11  N   UNL     1       6.774   5.258  17.018  0.00  0.00    +0.000 NA
ATOM     12  C   UNL     1       6.138   5.330  18.237  0.00  0.00    +0.000 A 
ATOM     13 CL   UNL     1       7.045   5.393  19.681  0.00  0.00    +0.000 Cl
ATOM     14  H   UNL     1       3.715   5.326  16.227  0.00  0.00    +0.000 HD
BRANCH  10  15
ATOM     15  C   UNL     1       5.987   5.138  14.624  0.00  0.00    +0.000 C 
ATOM     16  C   UNL     1       7.465   5.059  14.248  0.00  0.00    +0.000 C 
ATOM     17  C   UNL     1       5.224   3.941  14.061  0.00  0.00    +0.000 C 
ENDBRANCH  10  15
ENDBRANCH   7   8
BRANCH   5  18
ATOM     18  C   UNL     1       1.480   8.134  20.588  0.00  0.00    +0.000 C 
ATOM     19  O   UNL     1       1.146   8.399  21.740  0.00  0.00    +0.000 OA
ATOM     20  N   UNL     1       1.437   9.068  19.571  0.00  0.00    +0.000 N 
ATOM     21  C   UNL     1       0.924  10.424  19.699  0.00  0.00    +0.000 C 
ATOM     22  C   UNL     1       0.444  10.327  18.239  0.00  0.00    +0.000 C 
ATOM     23  C   UNL     1       1.013   8.907  18.183  0.00  0.00    +0.000 C 
BRANCH  22  24
ATOM     24  C   UNL     1      -1.086  10.621  17.929  0.00  0.00    +0.000 A 
ATOM     25  C   UNL     1      -1.890   9.760  17.153  0.00  0.00    +0.000 A 
ATOM     26  C   UNL     1      -3.284   9.844  17.176  0.00  0.00    +0.000 A 
ATOM     27  C   UNL     1      -3.901  10.828  17.944  0.00  0.00    +0.000 A 
ATOM     28  C   UNL     1      -3.132  11.800  18.580  0.00  0.00    +0.000 A 
ATOM     29  C   UNL     1      -1.743  11.697  18.558  0.00  0.00    +0.000 A 
BRANCH  27  30
ATOM     30  C   UNL     1      -5.314  10.779  18.166  0.00  0.00    +0.000 C 
ATOM     31  N   UNL     1      -6.448  10.686  18.367  0.00  0.00    +0.000 NA
ENDBRANCH  27  30
ENDBRANCH  22  24
ENDBRANCH   5  18
TORSDOF 5
ENDMDL
MODEL 4
REMARK VINA RESULT:      -8.5      2.861      3.538
REMARK  Name = 
REMARK  8 active torsions:
REMARK  status: ('A' for Active; 'I' for Inactive)
REMARK    1  A    between atoms: C_1  and  C_2
REMARK    2  A    between atoms: C_5  and  C_6
REMARK    3  A    between atoms: C_10  and  C_11
REMARK    4  A    between atoms: C_14  and  C_15
REMARK    5  A    between atoms: C_21  and  C_22
REMARK    6  A    between atoms: C_24  and  C_25
REMARK    7  A    between atoms: C_25  and  C_26
REMARK    8  A    between atoms: C_25  and  C_27
REMARK                            x       y       z     vdW  Elec       q    Type
REMARK                         _______ _______ _______ _____ _____    ______ ____
ROOT
ATOM      1  C   UNL     1       4.546   4.007  18.997  0.00  0.00    +0.000 C 
ATOM      2  C   UNL     1       3.931   5.346  18.691  0.00  0.00    +0.000 A 
ATOM      3  C   UNL     1       2.808   5.707  19.457  0.00  0.00    +0.000 A 
ATOM      4  C   UNL     1       2.170   6.930  19.270  0.00  0.00    +0.000 A 
ATOM      5  C   UNL     1       2.660   7.836  18.333  0.00  0.00    +0.000 A 
ATOM      6  C   UNL     1       3.753   7.466  17.529  0.00  0.00    +0.000 A 
ATOM      7  C   UNL     1       4.402   6.222  17.682  0.00  0.00    +0.000 A 
ENDROOT
BRANCH   7   8
ATOM      8  C   UNL     1       5.512   5.875  16.773  0.00  0.00    +0.000 A 
ATOM      9  N   UNL     1       5.340   5.179  15.593  0.00  0.00    +0.000 N 
ATOM     10  C   UNL     1       6.555   5.003  14.983  0.00  0.00    +0.000 A 
ATOM     11  N   UNL     1       7.498   5.602  15.673  0.00  0.00    +0.000 NA
ATOM     12  C   UNL     1       6.876   6.153  16.770  0.00  0.00    +0.000 A 
ATOM     13 CL   UNL     1       7.779   7.026  17.926  0.00  0.00    +0.000 Cl
ATOM     14  H   UNL     1       4.462   4.844  15.230  0.00  0.00    +0.000 HD
BRANCH  10  15
ATOM     15  C   UNL     1       6.712   4.244  13.698  0.00  0.00    +0.000 C 
ATOM     16  C   UNL     1       5.349   3.950  13.074  0.00  0.00    +0.000 C 
ATOM     17  C   UNL     1       7.596   5.014  12.718  0.00  0.00    +0.000 C 
ENDBRANCH  10  15
ENDBRANCH   7   8
BRANCH   5  18
ATOM     18  C   UNL     1       1.981   9.143  18.090  0.00  0.00    +0.000 C 
ATOM     19  O   UNL     1       2.510   9.970  17.353  0.00  0.00    +0.000 OA
ATOM     20  N   UNL     1       0.742   9.350  18.667  0.00  0.00    +0.000 N 
ATOM     21  C   UNL     1      -0.040  10.573  18.557  0.00  0.00    +0.000 C 
ATOM     22  C   UNL     1      -0.564  10.306  19.980  0.00  0.00    +0.000 C 
ATOM     23  C   UNL     1       0.285   9.033  20.017  0.00  0.00    +0.000 C 
BRANCH  22  24
ATOM     24  C   UNL     1      -0.395  11.449  21.070  0.00  0.00    +0.000 A 
ATOM     25  C   UNL     1       0.323  12.639  20.827  0.00  0.00    +0.000 A 
ATOM     26  C   UNL     1       0.177  13.760  21.647  0.00  0.00    +0.000 A 
ATOM     27  C   UNL     1      -0.660  13.696  22.758  0.00  0.00    +0.000 A 
ATOM     28  C   UNL     1      -1.243  12.484  23.121  0.00  0.00    +0.000 A 
ATOM     29  C   UNL     1      -1.098  11.377  22.289  0.00  0.00    +0.000 A 
BRANCH  27  30
ATOM     30  C   UNL     1      -1.004  14.892  23.463  0.00  0.00    +0.000 C 
ATOM     31  N   UNL     1      -1.235  15.852  24.064  0.00  0.00    +0.000 NA
ENDBRANCH  27  30
ENDBRANCH  22  24
ENDBRANCH   5  18
TORSDOF 5
ENDMDL
MODEL 5
REMARK VINA RESULT:      -8.3      2.472      3.856
REMARK  Name = 
REMARK  8 active torsions:
REMARK  status: ('A' for Active; 'I' for Inactive)
REMARK    1  A    between atoms: C_1  and  C_2
REMARK    2  A    between atoms: C_5  and  C_6
REMARK    3  A    between atoms: C_10  and  C_11
REMARK    4  A    between atoms: C_14  and  C_15
REMARK    5  A    between atoms: C_21  and  C_22
REMARK    6  A    between atoms: C_24  and  C_25
REMARK    7  A    between atoms: C_25  and  C_26
REMARK    8  A    between atoms: C_25  and  C_27
REMARK                            x       y       z     vdW  Elec       q    Type
REMARK                         _______ _______ _______ _____ _____    ______ ____
ROOT
ATOM      1  C   UNL     1       2.232   5.124  21.006  0.00  0.00    +0.000 C 
ATOM      2  C   UNL     1       1.877   6.509  20.536  0.00  0.00    +0.000 A 
ATOM      3  C   UNL     1       0.999   7.241  21.355  0.00  0.00    +0.000 A 
ATOM      4  C   UNL     1       0.618   8.538  21.026  0.00  0.00    +0.000 A 
ATOM      5  C   UNL     1       1.131   9.148  19.883  0.00  0.00    +0.000 A 
ATOM      6  C   UNL     1       1.972   8.409  19.033  0.00  0.00    +0.000 A 
ATOM      7  C   UNL     1       2.355   7.083  19.331  0.00  0.00    +0.000 A 
ENDROOT
BRANCH   7   8
ATOM      8  C   UNL     1       3.200   6.347  18.372  0.00  0.00    +0.000 A 
ATOM      9  N   UNL     1       4.500   6.706  18.072  0.00  0.00    +0.000 N 
ATOM     10  C   UNL     1       5.013   5.839  17.142  0.00  0.00    +0.000 A 
ATOM     11  N   UNL     1       4.136   4.900  16.869  0.00  0.00    +0.000 NA
ATOM     12  C   UNL     1       3.021   5.187  17.623  0.00  0.00    +0.000 A 
ATOM     13 CL   UNL     1       1.643   4.184  17.543  0.00  0.00    +0.000 Cl
ATOM     14  H   UNL     1       5.001   7.485  18.467  0.00  0.00    +0.000 HD
BRANCH  10  15
ATOM     15  C   UNL     1       6.394   5.985  16.576  0.00  0.00    +0.000 C 
ATOM     16  C   UNL     1       7.213   6.978  17.399  0.00  0.00    +0.000 C 
ATOM     17  C   UNL     1       7.099   4.631  16.511  0.00  0.00    +0.000 C 
ENDBRANCH  10  15
ENDBRANCH   7   8
BRANCH   5  18
ATOM     18  C   UNL     1       0.718  10.527  19.489  0.00  0.00    +0.000 C 
ATOM     19  O   UNL     1       1.316  11.492  19.957  0.00  0.00    +0.000 OA
ATOM     20  N   UNL     1      -0.296  10.662  18.561  0.00  0.00    +0.000 N 
ATOM     21  C   UNL     1      -0.839  11.929  18.090  0.00  0.00    +0.000 C 
ATOM     22  C   UNL     1      -2.209  11.237  17.961  0.00  0.00    +0.000 C 
ATOM     23  C   UNL     1      -1.562   9.942  18.461  0.00  0.00    +0.000 C 
BRANCH  22  24
ATOM     24  C   UNL     1      -3.452  11.886  18.708  0.00  0.00    +0.000 A 
ATOM     25  C   UNL     1      -4.778  11.747  18.249  0.00  0.00    +0.000 A 
ATOM     26  C   UNL     1      -5.870  12.017  19.078  0.00  0.00    +0.000 A 
ATOM     27  C   UNL     1      -5.652  12.478  20.374  0.00  0.00    +0.000 A 
ATOM     28  C   UNL     1      -4.361  12.792  20.794  0.00  0.00    +0.000 A 
ATOM     29  C   UNL     1      -3.282  12.507  19.961  0.00  0.00    +0.000 A 
BRANCH  27  30
ATOM     30  C   UNL     1      -6.737  12.531  21.305  0.00  0.00    +0.000 C 
ATOM     31  N   UNL     1      -7.649  12.557  22.015  0.00  0.00    +0.000 NA
ENDBRANCH  27  30
ENDBRANCH  22  24
ENDBRANCH   5  18
TORSDOF 5
ENDMDL
MODEL 6
REMARK VINA RESULT:      -8.2      2.985      3.901
REMARK  Name = 
REMARK  8 active torsions:
REMARK  status: ('A' for Active; 'I' for Inactive)
REMARK    1  A    between atoms: C_1  and  C_2
REMARK    2  A    between atoms: C_5  and  C_6
REMARK    3  A    between atoms: C_10  and  C_11
REMARK    4  A    between atoms: C_14  and  C_15
REMARK    5  A    between atoms: C_21  and  C_22
REMARK    6  A    between atoms: C_24  and  C_25
REMARK    7  A    between atoms: C_25  and  C_26
REMARK    8  A    between atoms: C_25  and  C_27
REMARK                            x       y       z     vdW  Elec       q    Type
REMARK                         _______ _______ _______ _____ _____    ______ ____
ROOT
ATOM      1  C   UNL     1       4.848   4.095  19.322  0.00  0.00    +0.000 C 
ATOM      2  C   UNL     1       4.084   5.340  18.958  0.00  0.00    +0.000 A 
ATOM      3  C   UNL     1       2.972   5.649  19.762  0.00  0.00    +0.000 A 
ATOM      4  C   UNL     1       2.205   6.785  19.526  0.00  0.00    +0.000 A 
ATOM      5  C   UNL     1       2.549   7.659  18.497  0.00  0.00    +0.000 A 
ATOM      6  C   UNL     1       3.629   7.335  17.658  0.00  0.00    +0.000 A 
ATOM      7  C   UNL     1       4.409   6.176  17.861  0.00  0.00    +0.000 A 
ENDROOT
BRANCH   7   8
ATOM      8  C   UNL     1       5.499   5.870  16.914  0.00  0.00    +0.000 A 
ATOM      9  N   UNL     1       5.290   5.582  15.580  0.00  0.00    +0.000 N 
ATOM     10  C   UNL     1       6.491   5.330  14.970  0.00  0.00    +0.000 A 
ATOM     11  N   UNL     1       7.475   5.500  15.824  0.00  0.00    +0.000 NA
ATOM     12  C   UNL     1       6.887   5.842  17.020  0.00  0.00    +0.000 A 
ATOM     13 CL   UNL     1       7.847   6.147  18.397  0.00  0.00    +0.000 Cl
ATOM     14  H   UNL     1       4.395   5.556  15.117  0.00  0.00    +0.000 HD
BRANCH  10  15
ATOM     15  C   UNL     1       6.599   4.945  13.524  0.00  0.00    +0.000 C 
ATOM     16  C   UNL     1       8.002   5.228  12.993  0.00  0.00    +0.000 C 
ATOM     17  C   UNL     1       6.236   3.474  13.327  0.00  0.00    +0.000 C 
ENDBRANCH  10  15
ENDBRANCH   7   8
BRANCH   5  18
ATOM     18  C   UNL     1       1.728   8.869  18.202  0.00  0.00    +0.000 C 
ATOM     19  O   UNL     1       1.887   9.461  17.138  0.00  0.00    +0.000 OA
ATOM     20  N   UNL     1       0.772   9.249  19.125  0.00  0.00    +0.000 N 
ATOM     21  C   UNL     1      -0.090  10.416  19.007  0.00  0.00    +0.000 C 
ATOM     22  C   UNL     1      -0.039  10.546  20.541  0.00  0.00    +0.000 C 
ATOM     23  C   UNL     1       0.863   9.309  20.581  0.00  0.00    +0.000 C 
BRANCH  22  24
ATOM     24  C   UNL     1       0.425  11.932  21.163  0.00  0.00    +0.000 A 
ATOM     25  C   UNL     1       1.632  12.567  20.804  0.00  0.00    +0.000 A 
ATOM     26  C   UNL     1       1.860  13.916  21.086  0.00  0.00    +0.000 A 
ATOM     27  C   UNL     1       0.897  14.647  21.778  0.00  0.00    +0.000 A 
ATOM     28  C   UNL     1      -0.224  14.003  22.297  0.00  0.00    +0.000 A 
ATOM     29  C   UNL     1      -0.443  12.661  22.000  0.00  0.00    +0.000 A 
BRANCH  27  30
ATOM     30  C   UNL     1       1.006  16.070  21.864  0.00  0.00    +0.000 C 
ATOM     31  N   UNL     1       1.149  17.214  21.947  0.00  0.00    +0.000 NA
ENDBRANCH  27  30
ENDBRANCH  22  24
ENDBRANCH   5  18
TORSDOF 5
ENDMDL
MODEL 7
REMARK VINA RESULT:      -8.0      4.375     11.473
REMARK  Name = 
REMARK  8 active torsions:
REMARK  status: ('A' for Active; 'I' for Inactive)
REMARK    1  A    between atoms: C_1  and  C_2
REMARK    2  A    between atoms: C_5  and  C_6
REMARK    3  A    between atoms: C_10  and  C_11
REMARK    4  A    between atoms: C_14  and  C_15
REMARK    5  A    between atoms: C_21  and  C_22
REMARK    6  A    between atoms: C_24  and  C_25
REMARK    7  A    between atoms: C_25  and  C_26
REMARK    8  A    between atoms: C_25  and  C_27
REMARK                            x       y       z     vdW  Elec       q    Type
REMARK                         _______ _______ _______ _____ _____    ______ ____
ROOT
ATOM      1  C   UNL     1      -6.277  11.970  17.606  0.00  0.00    +0.000 C 
ATOM      2  C   UNL     1      -4.834  11.944  18.035  0.00  0.00    +0.000 A 
ATOM      3  C   UNL     1      -3.920  11.393  17.119  0.00  0.00    +0.000 A 
ATOM      4  C   UNL     1      -2.560  11.334  17.405  0.00  0.00    +0.000 A 
ATOM      5  C   UNL     1      -2.075  11.855  18.602  0.00  0.00    +0.000 A 
ATOM      6  C   UNL     1      -2.985  12.366  19.544  0.00  0.00    +0.000 A 
ATOM      7  C   UNL     1      -4.373  12.414  19.289  0.00  0.00    +0.000 A 
ENDROOT
BRANCH   7   8
ATOM      8  C   UNL     1      -5.279  12.917  20.340  0.00  0.00    +0.000 A 
ATOM      9  N   UNL     1      -5.416  12.318  21.577  0.00  0.00    +0.000 N 
ATOM     10  C   UNL     1      -6.336  13.009  22.323  0.00  0.00    +0.000 A 
ATOM     11  N   UNL     1      -6.758  14.060  21.658  0.00  0.00    +0.000 NA
ATOM     12  C   UNL     1      -6.112  14.028  20.442  0.00  0.00    +0.000 A 
ATOM     13 CL   UNL     1      -6.399  15.243  19.280  0.00  0.00    +0.000 Cl
ATOM     14  H   UNL     1      -4.922  11.498  21.892  0.00  0.00    +0.000 HD
BRANCH  10  15
ATOM     15  C   UNL     1      -6.741  12.584  23.703  0.00  0.00    +0.000 C 
ATOM     16  C   UNL     1      -5.512  12.360  24.582  0.00  0.00    +0.000 C 
ATOM     17  C   UNL     1      -7.672  13.616  24.336  0.00  0.00    +0.000 C 
ENDBRANCH  10  15
ENDBRANCH   7   8
BRANCH   5  18
ATOM     18  C   UNL     1      -0.626  11.781  18.949  0.00  0.00    +0.000 C 
ATOM     19  O   UNL     1       0.175  12.499  18.355  0.00  0.00    +0.000 OA
ATOM     20  N   UNL     1      -0.244  10.937  19.975  0.00  0.00    +0.000 N 
ATOM     21  C   UNL     1       1.126  10.724  20.418  0.00  0.00    +0.000 C 
ATOM     22  C   UNL     1       0.740   9.269  20.745  0.00  0.00    +0.000 C 
ATOM     23  C   UNL     1      -0.680   9.574  20.263  0.00  0.00    +0.000 C 
BRANCH  22  24
ATOM     24  C   UNL     1       1.603   8.099  20.102  0.00  0.00    +0.000 A 
ATOM     25  C   UNL     1       1.795   6.853  20.734  0.00  0.00    +0.000 A 
ATOM     26  C   UNL     1       2.249   5.738  20.026  0.00  0.00    +0.000 A 
ATOM     27  C   UNL     1       2.566   5.863  18.675  0.00  0.00    +0.000 A 
ATOM     28  C   UNL     1       2.554   7.118  18.070  0.00  0.00    +0.000 A 
ATOM     29  C   UNL     1       2.088   8.218  18.785  0.00  0.00    +0.000 A 
BRANCH  27  30
ATOM     30  C   UNL     1       2.801   4.693  17.886  0.00  0.00    +0.000 C 
ATOM     31  N   UNL     1       2.964   3.773  17.206  0.00  0.00    +0.000 NA
ENDBRANCH  27  30
ENDBRANCH  22  24
ENDBRANCH   5  18
TORSDOF 5
ENDMDL
MODEL 8
REMARK VINA RESULT:      -7.9      4.452     11.663
REMARK  Name = 
REMARK  8 active torsions:
REMARK  status: ('A' for Active; 'I' for Inactive)
REMARK    1  A    between atoms: C_1  and  C_2
REMARK    2  A    between atoms: C_5  and  C_6
REMARK    3  A    between atoms: C_10  and  C_11
REMARK    4  A    between atoms: C_14  and  C_15
REMARK    5  A    between atoms: C_21  and  C_22
REMARK    6  A    between atoms: C_24  and  C_25
REMARK    7  A    between atoms: C_25  and  C_26
REMARK    8  A    between atoms: C_25  and  C_27
REMARK                            x       y       z     vdW  Elec       q    Type
REMARK                         _______ _______ _______ _____ _____    ______ ____
ROOT
ATOM      1  C   UNL     1      -6.794  11.474  18.068  0.00  0.00    +0.000 C 
ATOM      2  C   UNL     1      -5.307  11.598  18.272  0.00  0.00    +0.000 A 
ATOM      3  C   UNL     1      -4.490  10.975  17.311  0.00  0.00    +0.000 A 
ATOM      4  C   UNL     1      -3.103  11.041  17.393  0.00  0.00    +0.000 A 
ATOM      5  C   UNL     1      -2.497  11.757  18.422  0.00  0.00    +0.000 A 
ATOM      6  C   UNL     1      -3.303  12.344  19.414  0.00  0.00    +0.000 A 
ATOM      7  C   UNL     1      -4.712  12.271  19.368  0.00  0.00    +0.000 A 
ENDROOT
BRANCH   7   8
ATOM      8  C   UNL     1      -5.498  12.866  20.466  0.00  0.00    +0.000 A 
ATOM      9  N   UNL     1      -5.633  12.279  21.710  0.00  0.00    +0.000 N 
ATOM     10  C   UNL     1      -6.429  13.063  22.504  0.00  0.00    +0.000 A 
ATOM     11  N   UNL     1      -6.767  14.158  21.862  0.00  0.00    +0.000 NA
ATOM     12  C   UNL     1      -6.196  14.061  20.613  0.00  0.00    +0.000 A 
ATOM     13 CL   UNL     1      -6.410  15.307  19.467  0.00  0.00    +0.000 Cl
ATOM     14  H   UNL     1      -5.217  11.408  21.997  0.00  0.00    +0.000 HD
BRANCH  10  15
ATOM     15  C   UNL     1      -6.802  12.679  23.905  0.00  0.00    +0.000 C 
ATOM     16  C   UNL     1      -5.553  12.430  24.748  0.00  0.00    +0.000 C 
ATOM     17  C   UNL     1      -7.678  13.753  24.547  0.00  0.00    +0.000 C 
ENDBRANCH  10  15
ENDBRANCH   7   8
BRANCH   5  18
ATOM     18  C   UNL     1      -1.012  11.821  18.552  0.00  0.00    +0.000 C 
ATOM     19  O   UNL     1      -0.380  12.622  17.868  0.00  0.00    +0.000 OA
ATOM     20  N   UNL     1      -0.404  11.006  19.489  0.00  0.00    +0.000 N 
ATOM     21  C   UNL     1       1.030  10.923  19.723  0.00  0.00    +0.000 C 
ATOM     22  C   UNL     1       0.837   9.433  20.063  0.00  0.00    +0.000 C 
ATOM     23  C   UNL     1      -0.662   9.603  19.800  0.00  0.00    +0.000 C 
BRANCH  22  24
ATOM     24  C   UNL     1       1.702   8.362  19.270  0.00  0.00    +0.000 A 
ATOM     25  C   UNL     1       2.280   8.626  18.010  0.00  0.00    +0.000 A 
ATOM     26  C   UNL     1       3.301   7.825  17.494  0.00  0.00    +0.000 A 
ATOM     27  C   UNL     1       3.733   6.712  18.211  0.00  0.00    +0.000 A 
ATOM     28  C   UNL     1       3.062   6.328  19.370  0.00  0.00    +0.000 A 
ATOM     29  C   UNL     1       2.053   7.141  19.879  0.00  0.00    +0.000 A 
BRANCH  27  30
ATOM     30  C   UNL     1       4.925   6.027  17.817  0.00  0.00    +0.000 C 
ATOM     31  N   UNL     1       5.856   5.434  17.474  0.00  0.00    +0.000 NA
ENDBRANCH  27  30
ENDBRANCH  22  24
ENDBRANCH   5  18
TORSDOF 5
ENDMDL
MODEL 9
REMARK VINA RESULT:      -7.8      2.934      4.126
REMARK  Name = 
REMARK  8 active torsions:
REMARK  status: ('A' for Active; 'I' for Inactive)
REMARK    1  A    between atoms: C_1  and  C_2
REMARK    2  A    between atoms: C_5  and  C_6
REMARK    3  A    between atoms: C_10  and  C_11
REMARK    4  A    between atoms: C_14  and  C_15
REMARK    5  A    between atoms: C_21  and  C_22
REMARK    6  A    between atoms: C_24  and  C_25
REMARK    7  A    between atoms: C_25  and  C_26
REMARK    8  A    between atoms: C_25  and  C_27
REMARK                            x       y       z     vdW  Elec       q    Type
REMARK                         _______ _______ _______ _____ _____    ______ ____
ROOT
ATOM      1  C   UNL     1       2.505   5.042  20.841  0.00  0.00    +0.000 C 
ATOM      2  C   UNL     1       2.179   6.367  20.206  0.00  0.00    +0.000 A 
ATOM      3  C   UNL     1       1.434   7.268  20.988  0.00  0.00    +0.000 A 
ATOM      4  C   UNL     1       1.091   8.528  20.506  0.00  0.00    +0.000 A 
ATOM      5  C   UNL     1       1.513   8.930  19.241  0.00  0.00    +0.000 A 
ATOM      6  C   UNL     1       2.217   8.020  18.433  0.00  0.00    +0.000 A 
ATOM      7  C   UNL     1       2.556   6.727  18.888  0.00  0.00    +0.000 A 
ENDROOT
BRANCH   7   8
ATOM      8  C   UNL     1       3.254   5.804  17.973  0.00  0.00    +0.000 A 
ATOM      9  N   UNL     1       4.509   6.052  17.453  0.00  0.00    +0.000 N 
ATOM     10  C   UNL     1       4.878   5.019  16.631  0.00  0.00    +0.000 A 
ATOM     11  N   UNL     1       3.956   4.084  16.639  0.00  0.00    +0.000 NA
ATOM     12  C   UNL     1       2.955   4.542  17.467  0.00  0.00    +0.000 A 
ATOM     13 CL   UNL     1       1.560   3.598  17.739  0.00  0.00    +0.000 Cl
ATOM     14  H   UNL     1       5.073   6.866  17.639  0.00  0.00    +0.000 HD
BRANCH  10  15
ATOM     15  C   UNL     1       6.175   5.009  15.878  0.00  0.00    +0.000 C 
ATOM     16  C   UNL     1       7.336   4.652  16.804  0.00  0.00    +0.000 C 
ATOM     17  C   UNL     1       6.111   4.038  14.700  0.00  0.00    +0.000 C 
ENDBRANCH  10  15
ENDBRANCH   7   8
BRANCH   5  18
ATOM     18  C   UNL     1       1.137  10.263  18.686  0.00  0.00    +0.000 C 
ATOM     19  O   UNL     1       2.018  11.073  18.410  0.00  0.00    +0.000 OA
ATOM     20  N   UNL     1      -0.201  10.517  18.451  0.00  0.00    +0.000 N 
ATOM     21  C   UNL     1      -0.741  11.770  17.943  0.00  0.00    +0.000 C 
ATOM     22  C   UNL     1      -1.997  11.518  18.799  0.00  0.00    +0.000 C 
ATOM     23  C   UNL     1      -1.361  10.212  19.284  0.00  0.00    +0.000 C 
BRANCH  22  24
ATOM     24  C   UNL     1      -2.452  12.649  19.818  0.00  0.00    +0.000 A 
ATOM     25  C   UNL     1      -3.773  12.761  20.297  0.00  0.00    +0.000 A 
ATOM     26  C   UNL     1      -4.078  13.521  21.429  0.00  0.00    +0.000 A 
ATOM     27  C   UNL     1      -3.066  14.223  22.079  0.00  0.00    +0.000 A 
ATOM     28  C   UNL     1      -1.787  14.272  21.527  0.00  0.00    +0.000 A 
ATOM     29  C   UNL     1      -1.496  13.502  20.405  0.00  0.00    +0.000 A 
BRANCH  27  30
ATOM     30  C   UNL     1      -3.311  14.805  23.362  0.00  0.00    +0.000 C 
ATOM     31  N   UNL     1      -3.499  15.327  24.377  0.00  0.00    +0.000 NA
ENDBRANCH  27  30
ENDBRANCH  22  24
ENDBRANCH   5  18
TORSDOF 5
ENDMDL
