MODEL 1
REMARK VINA RESULT:      -8.7      0.000      0.000
REMARK  Name = 
REMARK  5 active torsions:
REMARK  status: ('A' for Active; 'I' for Inactive)
REMARK    1  A    between atoms: N_1  and  C_2
REMARK    2  A    between atoms: C_14  and  C_16
REMARK    3  A    between atoms: C_16  and  N_17
REMARK    4  A    between atoms: C_16  and  C_18
REMARK    5  A    between atoms: C_18  and  C_19
REMARK                            x       y       z     vdW  Elec       q    Type
REMARK                         _______ _______ _______ _____ _____    ______ ____
ROOT
ATOM      1  C   UNL     1       6.599   6.638  17.145  0.00  0.00    +0.000 A 
ATOM      2  C   UNL     1       7.010   5.405  16.659  0.00  0.00    +0.000 A 
ATOM      3  C   UNL     1       6.130   4.314  16.648  0.00  0.00    +0.000 A 
ATOM      4  C   UNL     1       4.814   4.430  17.074  0.00  0.00    +0.000 A 
ATOM      5  N   UNL     1       4.028   3.347  17.031  0.00  0.00    +0.000 NA
ATOM      6  C   UNL     1       2.783   3.500  17.492  0.00  0.00    +0.000 A 
ATOM      7  N   UNL     1       2.255   4.616  18.009  0.00  0.00    +0.000 NA
ATOM      8  C   UNL     1       3.057   5.698  18.052  0.00  0.00    +0.000 A 
ATOM      9  N   UNL     1       2.621   6.819  18.771  0.00  0.00    +0.000 N 
ATOM     10  C   UNL     1       1.710   6.502  19.884  0.00  0.00    +0.000 C 
ATOM     11  C   UNL     1       1.735   7.687  20.858  0.00  0.00    +0.000 C 
ATOM     12  N   UNL     1       1.380   8.949  20.196  0.00  0.00    +0.000 N 
ATOM     13  C   UNL     1       0.880   9.960  21.014  0.00  0.00    +0.000 C 
ATOM     14  O   UNL     1       0.798   9.822  22.238  0.00  0.00    +0.000 OA
ATOM     15  C   UNL     1       2.102   9.210  18.929  0.00  0.00    +0.000 C 
ATOM     16  C   UNL     1       2.142   7.974  17.992  0.00  0.00    +0.000 C 
ATOM     17  C   UNL     1       4.375   5.666  17.556  0.00  0.00    +0.000 A 
ATOM     18  C   UNL     1       5.277   6.766  17.566  0.00  0.00    +0.000 A 
ENDROOT
BRANCH   1  19
ATOM     19  N   UNL     1       7.405   7.770  16.999  0.00  0.00    +0.000 N 
ATOM     20  H   UNL     1       8.300   7.589  16.555  0.00  0.00    +0.000 HD
ATOM     21  H   UNL     1       7.499   8.328  17.841  0.00  0.00    +0.000 HD
ENDBRANCH   1  19
BRANCH  13  22
ATOM     22  C   UNL     1       0.434  11.275  20.335  0.00  0.00    +0.000 C 
BRANCH  22  23
ATOM     23  N   UNL     1       1.038  12.409  21.081  0.00  0.00    +0.000 NA
ATOM     24  H   UNL     1       0.313  13.121  21.202  0.00  0.00    +0.000 HD
ATOM     25  H   UNL     1       1.754  12.847  20.503  0.00  0.00    +0.000 HD
ENDBRANCH  22  23
BRANCH  22  26
ATOM     26  C   UNL     1      -1.106  11.401  20.317  0.00  0.00    +0.000 C 
BRANCH  26  27
ATOM     27  C   UNL     1      -1.755  11.105  18.979  0.00  0.00    +0.000 A 
ATOM     28  C   UNL     1      -2.956  11.747  18.637  0.00  0.00    +0.000 A 
ATOM     29  C   UNL     1      -3.589  11.481  17.421  0.00  0.00    +0.000 A 
ATOM     30  C   UNL     1      -3.022  10.572  16.535  0.00  0.00    +0.000 A 
ATOM     31 CL   UNL     1      -3.810  10.227  15.045  0.00  0.00    +0.000 Cl
ATOM     32  C   UNL     1      -1.824   9.933  16.852  0.00  0.00    +0.000 A 
ATOM     33  C   UNL     1      -1.187  10.204  18.068  0.00  0.00    +0.000 A 
ENDBRANCH  26  27
ENDBRANCH  22  26
ENDBRANCH  13  22
TORSDOF 5
ENDMDL
MODEL 2
REMARK VINA RESULT:      -8.0      3.094      8.459
REMARK  Name = 
REMARK  5 active torsions:
REMARK  status: ('A' for Active; 'I' for Inactive)
REMARK    1  A    between atoms: N_1  and  C_2
REMARK    2  A    between atoms: C_14  and  C_16
REMARK    3  A    between atoms: C_16  and  N_17
REMARK    4  A    between atoms: C_16  and  C_18
REMARK    5  A    between atoms: C_18  and  C_19
REMARK                            x       y       z     vdW  Elec       q    Type
REMARK                         _______ _______ _______ _____ _____    ______ ____
ROOT
ATOM      1  C   UNL     1      -1.889  10.327  17.285  0.00  0.00    +0.000 A 
ATOM      2  C   UNL     1      -2.370  11.554  17.722  0.00  0.00    +0.000 A 
ATOM      3  C   UNL     1      -1.793  12.191  18.829  0.00  0.00    +0.000 A 
ATOM      4  C   UNL     1      -0.701  11.655  19.498  0.00  0.00    +0.000 A 
ATOM      5  N   UNL     1      -0.199  12.321  20.544  0.00  0.00    +0.000 NA
ATOM      6  C   UNL     1       0.824  11.741  21.181  0.00  0.00    +0.000 A 
ATOM      7  N   UNL     1       1.376  10.556  20.890  0.00  0.00    +0.000 NA
ATOM      8  C   UNL     1       0.858   9.893  19.837  0.00  0.00    +0.000 A 
ATOM      9  N   UNL     1       1.260   8.567  19.626  0.00  0.00    +0.000 N 
ATOM     10  C   UNL     1       1.657   7.857  20.854  0.00  0.00    +0.000 C 
ATOM     11  C   UNL     1       1.564   6.352  20.573  0.00  0.00    +0.000 C 
ATOM     12  N   UNL     1       2.382   5.958  19.418  0.00  0.00    +0.000 N 
ATOM     13  C   UNL     1       2.786   4.626  19.369  0.00  0.00    +0.000 C 
ATOM     14  O   UNL     1       2.423   3.807  20.218  0.00  0.00    +0.000 OA
ATOM     15  C   UNL     1       2.198   6.798  18.212  0.00  0.00    +0.000 C 
ATOM     16  C   UNL     1       2.207   8.317  18.526  0.00  0.00    +0.000 C 
ATOM     17  C   UNL     1      -0.194  10.426  19.066  0.00  0.00    +0.000 A 
ATOM     18  C   UNL     1      -0.788   9.785  17.944  0.00  0.00    +0.000 A 
ENDROOT
BRANCH   1  19
ATOM     19  N   UNL     1      -2.337   9.770  16.084  0.00  0.00    +0.000 N 
ATOM     20  H   UNL     1      -1.617   9.674  15.376  0.00  0.00    +0.000 HD
ATOM     21  H   UNL     1      -3.184  10.192  15.718  0.00  0.00    +0.000 HD
ENDBRANCH   1  19
BRANCH  13  22
ATOM     22  C   UNL     1       3.704   4.199  18.201  0.00  0.00    +0.000 C 
BRANCH  22  23
ATOM     23  N   UNL     1       3.235   2.882  17.701  0.00  0.00    +0.000 NA
ATOM     24  H   UNL     1       3.061   2.975  16.696  0.00  0.00    +0.000 HD
ATOM     25  H   UNL     1       2.327   2.671  18.114  0.00  0.00    +0.000 HD
ENDBRANCH  22  23
BRANCH  22  26
ATOM     26  C   UNL     1       5.179   4.110  18.653  0.00  0.00    +0.000 C 
BRANCH  26  27
ATOM     27  C   UNL     1       6.011   5.344  18.365  0.00  0.00    +0.000 A 
ATOM     28  C   UNL     1       7.209   5.549  19.069  0.00  0.00    +0.000 A 
ATOM     29  C   UNL     1       7.988   6.685  18.841  0.00  0.00    +0.000 A 
ATOM     30  C   UNL     1       7.575   7.625  17.902  0.00  0.00    +0.000 A 
ATOM     31 CL   UNL     1       8.523   9.036  17.634  0.00  0.00    +0.000 Cl
ATOM     32  C   UNL     1       6.396   7.432  17.185  0.00  0.00    +0.000 A 
ATOM     33  C   UNL     1       5.618   6.291  17.410  0.00  0.00    +0.000 A 
ENDBRANCH  26  27
ENDBRANCH  22  26
ENDBRANCH  13  22
TORSDOF 5
ENDMDL
MODEL 3
REMARK VINA RESULT:      -7.9      3.101      8.434
REMARK  Name = 
REMARK  5 active torsions:
REMARK  status: ('A' for Active; 'I' for Inactive)
REMARK    1  A    between atoms: N_1  and  C_2
REMARK    2  A    between atoms: C_14  and  C_16
REMARK    3  A    between atoms: C_16  and  N_17
REMARK    4  A    between atoms: C_16  and  C_18
REMARK    5  A    between atoms: C_18  and  C_19
REMARK                            x       y       z     vdW  Elec       q    Type
REMARK                         _______ _______ _______ _____ _____    ______ ____
ROOT
ATOM      1  C   UNL     1      -1.999  10.366  17.272  0.00  0.00    +0.000 A 
ATOM      2  C   UNL     1      -2.460  11.656  17.499  0.00  0.00    +0.000 A 
ATOM      3  C   UNL     1      -1.885  12.452  18.498  0.00  0.00    +0.000 A 
ATOM      4  C   UNL     1      -0.812  12.011  19.261  0.00  0.00    +0.000 A 
ATOM      5  N   UNL     1      -0.310  12.827  20.195  0.00  0.00    +0.000 NA
ATOM      6  C   UNL     1       0.692  12.339  20.933  0.00  0.00    +0.000 A 
ATOM      7  N   UNL     1       1.224  11.113  20.845  0.00  0.00    +0.000 NA
ATOM      8  C   UNL     1       0.706  10.298  19.904  0.00  0.00    +0.000 A 
ATOM      9  N   UNL     1       1.084   8.949  19.915  0.00  0.00    +0.000 N 
ATOM     10  C   UNL     1       1.450   8.439  21.247  0.00  0.00    +0.000 C 
ATOM     11  C   UNL     1       1.330   6.909  21.210  0.00  0.00    +0.000 C 
ATOM     12  N   UNL     1       2.155   6.321  20.146  0.00  0.00    +0.000 N 
ATOM     13  C   UNL     1       2.532   4.991  20.318  0.00  0.00    +0.000 C 
ATOM     14  O   UNL     1       2.142   4.325  21.282  0.00  0.00    +0.000 OA
ATOM     15  C   UNL     1       2.003   6.958  18.818  0.00  0.00    +0.000 C 
ATOM     16  C   UNL     1       2.039   8.508  18.885  0.00  0.00    +0.000 C 
ATOM     17  C   UNL     1      -0.325  10.719  19.041  0.00  0.00    +0.000 A 
ATOM     18  C   UNL     1      -0.917   9.918  18.027  0.00  0.00    +0.000 A 
ENDROOT
BRANCH   1  19
ATOM     19  N   UNL     1      -2.443   9.632  16.169  0.00  0.00    +0.000 N 
ATOM     20  H   UNL     1      -1.699   9.304  15.560  0.00  0.00    +0.000 HD
ATOM     21  H   UNL     1      -3.199  10.068  15.653  0.00  0.00    +0.000 HD
ENDBRANCH   1  19
BRANCH  13  22
ATOM     22  C   UNL     1       3.456   4.365  19.248  0.00  0.00    +0.000 C 
BRANCH  22  23
ATOM     23  N   UNL     1       3.638   2.928  19.577  0.00  0.00    +0.000 NA
ATOM     24  H   UNL     1       2.921   2.673  20.260  0.00  0.00    +0.000 HD
ATOM     25  H   UNL     1       4.528   2.806  20.060  0.00  0.00    +0.000 HD
ENDBRANCH  22  23
BRANCH  22  26
ATOM     26  C   UNL     1       4.823   5.085  19.200  0.00  0.00    +0.000 C 
BRANCH  26  27
ATOM     27  C   UNL     1       5.498   5.083  17.842  0.00  0.00    +0.000 A 
ATOM     28  C   UNL     1       4.781   5.512  16.714  0.00  0.00    +0.000 A 
ATOM     29  C   UNL     1       5.368   5.502  15.447  0.00  0.00    +0.000 A 
ATOM     30  C   UNL     1       6.681   5.067  15.300  0.00  0.00    +0.000 A 
ATOM     31 CL   UNL     1       7.400   5.035  13.737  0.00  0.00    +0.000 Cl
ATOM     32  C   UNL     1       7.412   4.649  16.411  0.00  0.00    +0.000 A 
ATOM     33  C   UNL     1       6.826   4.663  17.681  0.00  0.00    +0.000 A 
ENDBRANCH  26  27
ENDBRANCH  22  26
ENDBRANCH  13  22
TORSDOF 5
ENDMDL
MODEL 4
REMARK VINA RESULT:      -7.8      1.448      1.655
REMARK  Name = 
REMARK  5 active torsions:
REMARK  status: ('A' for Active; 'I' for Inactive)
REMARK    1  A    between atoms: N_1  and  C_2
REMARK    2  A    between atoms: C_14  and  C_16
REMARK    3  A    between atoms: C_16  and  N_17
REMARK    4  A    between atoms: C_16  and  C_18
REMARK    5  A    between atoms: C_18  and  C_19
REMARK                            x       y       z     vdW  Elec       q    Type
REMARK                         _______ _______ _______ _____ _____    ______ ____
ROOT
ATOM      1  C   UNL     1       6.702   6.736  17.488  0.00  0.00    +0.000 A 
ATOM      2  C   UNL     1       7.251   5.461  17.465  0.00  0.00    +0.000 A 
ATOM      3  C   UNL     1       6.484   4.349  17.839  0.00  0.00    +0.000 A 
ATOM      4  C   UNL     1       5.148   4.466  18.197  0.00  0.00    +0.000 A 
ATOM      5  N   UNL     1       4.476   3.361  18.538  0.00  0.00    +0.000 NA
ATOM      6  C   UNL     1       3.205   3.532  18.917  0.00  0.00    +0.000 A 
ATOM      7  N   UNL     1       2.551   4.697  19.011  0.00  0.00    +0.000 NA
ATOM      8  C   UNL     1       3.240   5.804  18.670  0.00  0.00    +0.000 A 
ATOM      9  N   UNL     1       2.670   7.053  18.951  0.00  0.00    +0.000 N 
ATOM     10  C   UNL     1       1.756   7.049  20.105  0.00  0.00    +0.000 C 
ATOM     11  C   UNL     1       1.628   8.496  20.602  0.00  0.00    +0.000 C 
ATOM     12  N   UNL     1       1.174   9.403  19.540  0.00  0.00    +0.000 N 
ATOM     13  C   UNL     1       0.547  10.577  19.952  0.00  0.00    +0.000 C 
ATOM     14  O   UNL     1       0.436  10.867  21.147  0.00  0.00    +0.000 OA
ATOM     15  C   UNL     1       1.912   9.280  18.261  0.00  0.00    +0.000 C 
ATOM     16  C   UNL     1       2.108   7.806  17.817  0.00  0.00    +0.000 C 
ATOM     17  C   UNL     1       4.572   5.740  18.216  0.00  0.00    +0.000 A 
ATOM     18  C   UNL     1       5.360   6.862  17.839  0.00  0.00    +0.000 A 
ENDROOT
BRANCH   1  19
ATOM     19  N   UNL     1       7.398   7.823  16.954  0.00  0.00    +0.000 N 
ATOM     20  H   UNL     1       6.801   8.561  16.591  0.00  0.00    +0.000 HD
ATOM     21  H   UNL     1       8.135   7.570  16.305  0.00  0.00    +0.000 HD
ENDBRANCH   1  19
BRANCH  13  22
ATOM     22  C   UNL     1      -0.001  11.518  18.855  0.00  0.00    +0.000 C 
BRANCH  22  23
ATOM     23  N   UNL     1       1.134  12.302  18.307  0.00  0.00    +0.000 NA
ATOM     24  H   UNL     1       0.805  12.778  17.463  0.00  0.00    +0.000 HD
ATOM     25  H   UNL     1       1.862  11.661  17.990  0.00  0.00    +0.000 HD
ENDBRANCH  22  23
BRANCH  22  26
ATOM     26  C   UNL     1      -1.086  12.463  19.422  0.00  0.00    +0.000 C 
BRANCH  26  27
ATOM     27  C   UNL     1      -2.512  12.072  19.088  0.00  0.00    +0.000 A 
ATOM     28  C   UNL     1      -3.567  12.586  19.859  0.00  0.00    +0.000 A 
ATOM     29  C   UNL     1      -4.890  12.229  19.589  0.00  0.00    +0.000 A 
ATOM     30  C   UNL     1      -5.167  11.357  18.542  0.00  0.00    +0.000 A 
ATOM     31 CL   UNL     1      -6.795  10.900  18.221  0.00  0.00    +0.000 Cl
ATOM     32  C   UNL     1      -4.134  10.846  17.759  0.00  0.00    +0.000 A 
ATOM     33  C   UNL     1      -2.809  11.208  18.026  0.00  0.00    +0.000 A 
ENDBRANCH  26  27
ENDBRANCH  22  26
ENDBRANCH  13  22
TORSDOF 5
ENDMDL
MODEL 5
REMARK VINA RESULT:      -7.7      1.405      1.604
REMARK  Name = 
REMARK  5 active torsions:
REMARK  status: ('A' for Active; 'I' for Inactive)
REMARK    1  A    between atoms: N_1  and  C_2
REMARK    2  A    between atoms: C_14  and  C_16
REMARK    3  A    between atoms: C_16  and  N_17
REMARK    4  A    between atoms: C_16  and  C_18
REMARK    5  A    between atoms: C_18  and  C_19
REMARK                            x       y       z     vdW  Elec       q    Type
REMARK                         _______ _______ _______ _____ _____    ______ ____
ROOT
ATOM      1  C   UNL     1       5.658   6.246  17.624  0.00  0.00    +0.000 A 
ATOM      2  C   UNL     1       6.113   4.941  17.756  0.00  0.00    +0.000 A 
ATOM      3  C   UNL     1       5.387   4.007  18.508  0.00  0.00    +0.000 A 
ATOM      4  C   UNL     1       4.175   4.328  19.105  0.00  0.00    +0.000 A 
ATOM      5  N   UNL     1       3.535   3.384  19.804  0.00  0.00    +0.000 NA
ATOM      6  C   UNL     1       2.394   3.755  20.396  0.00  0.00    +0.000 A 
ATOM      7  N   UNL     1       1.846   4.977  20.376  0.00  0.00    +0.000 NA
ATOM      8  C   UNL     1       2.503   5.920  19.673  0.00  0.00    +0.000 A 
ATOM      9  N   UNL     1       2.084   7.252  19.796  0.00  0.00    +0.000 N 
ATOM     10  C   UNL     1       1.455   7.566  21.090  0.00  0.00    +0.000 C 
ATOM     11  C   UNL     1       1.526   9.086  21.285  0.00  0.00    +0.000 C 
ATOM     12  N   UNL     1       0.898   9.812  20.173  0.00  0.00    +0.000 N 
ATOM     13  C   UNL     1       0.448  11.102  20.450  0.00  0.00    +0.000 C 
ATOM     14  O   UNL     1       0.626  11.628  21.553  0.00  0.00    +0.000 OA
ATOM     15  C   UNL     1       1.319   9.369  18.825  0.00  0.00    +0.000 C 
ATOM     16  C   UNL     1       1.325   7.825  18.671  0.00  0.00    +0.000 C 
ATOM     17  C   UNL     1       3.693   5.633  18.974  0.00  0.00    +0.000 A 
ATOM     18  C   UNL     1       4.438   6.575  18.212  0.00  0.00    +0.000 A 
ENDROOT
BRANCH   1  19
ATOM     19  N   UNL     1       6.276   7.132  16.738  0.00  0.00    +0.000 N 
ATOM     20  H   UNL     1       6.163   8.111  16.982  0.00  0.00    +0.000 HD
ATOM     21  H   UNL     1       6.075   6.953  15.759  0.00  0.00    +0.000 HD
ENDBRANCH   1  19
BRANCH  13  22
ATOM     22  C   UNL     1      -0.278  11.865  19.319  0.00  0.00    +0.000 C 
BRANCH  22  23
ATOM     23  N   UNL     1      -0.040  13.317  19.513  0.00  0.00    +0.000 NA
ATOM     24  H   UNL     1       0.855  13.547  19.073  0.00  0.00    +0.000 HD
ATOM     25  H   UNL     1       0.090  13.505  20.507  0.00  0.00    +0.000 HD
ENDBRANCH  22  23
BRANCH  22  26
ATOM     26  C   UNL     1      -1.794  11.560  19.324  0.00  0.00    +0.000 C 
BRANCH  26  27
ATOM     27  C   UNL     1      -2.363  11.126  17.987  0.00  0.00    +0.000 A 
ATOM     28  C   UNL     1      -3.580  11.669  17.546  0.00  0.00    +0.000 A 
ATOM     29  C   UNL     1      -4.140  11.275  16.329  0.00  0.00    +0.000 A 
ATOM     30  C   UNL     1      -3.483  10.335  15.542  0.00  0.00    +0.000 A 
ATOM     31 CL   UNL     1      -4.182   9.832  14.052  0.00  0.00    +0.000 Cl
ATOM     32  C   UNL     1      -2.268   9.794  15.958  0.00  0.00    +0.000 A 
ATOM     33  C   UNL     1      -1.704  10.193  17.175  0.00  0.00    +0.000 A 
ENDBRANCH  26  27
ENDBRANCH  22  26
ENDBRANCH  13  22
TORSDOF 5
ENDMDL
MODEL 6
REMARK VINA RESULT:      -7.6      2.714      4.262
REMARK  Name = 
REMARK  5 active torsions:
REMARK  status: ('A' for Active; 'I' for Inactive)
REMARK    1  A    between atoms: N_1  and  C_2
REMARK    2  A    between atoms: C_14  and  C_16
REMARK    3  A    between atoms: C_16  and  N_17
REMARK    4  A    between atoms: C_16  and  C_18
REMARK    5  A    between atoms: C_18  and  C_19
REMARK                            x       y       z     vdW  Elec       q    Type
REMARK                         _______ _______ _______ _____ _____    ______ ____
ROOT
ATOM      1  C   UNL     1       1.301   3.153  18.853  0.00  0.00    +0.000 A 
ATOM      2  C   UNL     1       2.051   2.248  18.115  0.00  0.00    +0.000 A 
ATOM      3  C   UNL     1       3.147   2.683  17.357  0.00  0.00    +0.000 A 
ATOM      4  C   UNL     1       3.553   4.011  17.349  0.00  0.00    +0.000 A 
ATOM      5  N   UNL     1       4.611   4.354  16.605  0.00  0.00    +0.000 NA
ATOM      6  C   UNL     1       4.935   5.651  16.597  0.00  0.00    +0.000 A 
ATOM      7  N   UNL     1       4.295   6.637  17.238  0.00  0.00    +0.000 NA
ATOM      8  C   UNL     1       3.228   6.280  17.979  0.00  0.00    +0.000 A 
ATOM      9  N   UNL     1       2.408   7.294  18.493  0.00  0.00    +0.000 N 
ATOM     10  C   UNL     1       2.396   8.524  17.684  0.00  0.00    +0.000 C 
ATOM     11  C   UNL     1       1.125   9.306  18.042  0.00  0.00    +0.000 C 
ATOM     12  N   UNL     1       1.043   9.589  19.482  0.00  0.00    +0.000 N 
ATOM     13  C   UNL     1       0.259  10.678  19.856  0.00  0.00    +0.000 C 
ATOM     14  O   UNL     1      -0.383  11.330  19.027  0.00  0.00    +0.000 OA
ATOM     15  C   UNL     1       1.287   8.421  20.359  0.00  0.00    +0.000 C 
ATOM     16  C   UNL     1       2.526   7.592  19.930  0.00  0.00    +0.000 C 
ATOM     17  C   UNL     1       2.819   4.937  18.095  0.00  0.00    +0.000 A 
ATOM     18  C   UNL     1       1.706   4.486  18.859  0.00  0.00    +0.000 A 
ENDROOT
BRANCH   1  19
ATOM     19  N   UNL     1       0.322   2.710  19.746  0.00  0.00    +0.000 N 
ATOM     20  H   UNL     1       0.256   3.259  20.597  0.00  0.00    +0.000 HD
ATOM     21  H   UNL     1       0.346   1.713  19.931  0.00  0.00    +0.000 HD
ENDBRANCH   1  19
BRANCH  13  22
ATOM     22  C   UNL     1       0.208  11.041  21.358  0.00  0.00    +0.000 C 
BRANCH  22  23
ATOM     23  N   UNL     1      -0.672  10.060  22.042  0.00  0.00    +0.000 NA
ATOM     24  H   UNL     1      -1.633  10.407  21.977  0.00  0.00    +0.000 HD
ATOM     25  H   UNL     1      -0.454  10.053  23.039  0.00  0.00    +0.000 HD
ENDBRANCH  22  23
BRANCH  22  26
ATOM     26  C   UNL     1      -0.321  12.478  21.567  0.00  0.00    +0.000 C 
BRANCH  26  27
ATOM     27  C   UNL     1      -1.779  12.570  21.970  0.00  0.00    +0.000 A 
ATOM     28  C   UNL     1      -2.762  12.714  20.977  0.00  0.00    +0.000 A 
ATOM     29  C   UNL     1      -4.112  12.822  21.317  0.00  0.00    +0.000 A 
ATOM     30  C   UNL     1      -4.490  12.782  22.655  0.00  0.00    +0.000 A 
ATOM     31 CL   UNL     1      -6.151  12.935  23.078  0.00  0.00    +0.000 Cl
ATOM     32  C   UNL     1      -3.530  12.628  23.654  0.00  0.00    +0.000 A 
ATOM     33  C   UNL     1      -2.177  12.515  23.313  0.00  0.00    +0.000 A 
ENDBRANCH  26  27
ENDBRANCH  22  26
ENDBRANCH  13  22
TORSDOF 5
ENDMDL
MODEL 7
REMARK VINA RESULT:      -7.4      2.393      3.091
REMARK  Name = 
REMARK  5 active torsions:
REMARK  status: ('A' for Active; 'I' for Inactive)
REMARK    1  A    between atoms: N_1  and  C_2
REMARK    2  A    between atoms: C_14  and  C_16
REMARK    3  A    between atoms: C_16  and  N_17
REMARK    4  A    between atoms: C_16  and  C_18
REMARK    5  A    between atoms: C_18  and  C_19
REMARK                            x       y       z     vdW  Elec       q    Type
REMARK                         _______ _______ _______ _____ _____    ______ ____
ROOT
ATOM      1  C   UNL     1       6.509   6.618  17.100  0.00  0.00    +0.000 A 
ATOM      2  C   UNL     1       6.905   5.380  16.612  0.00  0.00    +0.000 A 
ATOM      3  C   UNL     1       6.019   4.294  16.624  0.00  0.00    +0.000 A 
ATOM      4  C   UNL     1       4.712   4.419  17.074  0.00  0.00    +0.000 A 
ATOM      5  N   UNL     1       3.920   3.340  17.051  0.00  0.00    +0.000 NA
ATOM      6  C   UNL     1       2.684   3.502  17.535  0.00  0.00    +0.000 A 
ATOM      7  N   UNL     1       2.172   4.624  18.057  0.00  0.00    +0.000 NA
ATOM      8  C   UNL     1       2.980   5.701  18.079  0.00  0.00    +0.000 A 
ATOM      9  N   UNL     1       2.564   6.828  18.800  0.00  0.00    +0.000 N 
ATOM     10  C   UNL     1       1.673   6.521  19.932  0.00  0.00    +0.000 C 
ATOM     11  C   UNL     1       1.723   7.711  20.900  0.00  0.00    +0.000 C 
ATOM     12  N   UNL     1       1.362   8.972  20.237  0.00  0.00    +0.000 N 
ATOM     13  C   UNL     1       0.882   9.989  21.060  0.00  0.00    +0.000 C 
ATOM     14  O   UNL     1       0.824   9.858  22.286  0.00  0.00    +0.000 OA
ATOM     15  C   UNL     1       2.060   9.223  18.956  0.00  0.00    +0.000 C 
ATOM     16  C   UNL     1       2.077   7.982  18.025  0.00  0.00    +0.000 C 
ATOM     17  C   UNL     1       4.289   5.660  17.558  0.00  0.00    +0.000 A 
ATOM     18  C   UNL     1       5.196   6.755  17.545  0.00  0.00    +0.000 A 
ENDROOT
BRANCH   1  19
ATOM     19  N   UNL     1       7.318   7.745  16.933  0.00  0.00    +0.000 N 
ATOM     20  H   UNL     1       8.258   7.641  17.302  0.00  0.00    +0.000 HD
ATOM     21  H   UNL     1       6.886   8.617  17.219  0.00  0.00    +0.000 HD
ENDBRANCH   1  19
BRANCH  13  22
ATOM     22  C   UNL     1       0.431  11.304  20.383  0.00  0.00    +0.000 C 
BRANCH  22  23
ATOM     23  N   UNL     1       0.904  12.439  21.215  0.00  0.00    +0.000 NA
ATOM     24  H   UNL     1       0.400  12.404  22.105  0.00  0.00    +0.000 HD
ATOM     25  H   UNL     1       0.620  13.316  20.778  0.00  0.00    +0.000 HD
ENDBRANCH  22  23
BRANCH  22  26
ATOM     26  C   UNL     1      -1.106  11.353  20.228  0.00  0.00    +0.000 C 
BRANCH  26  27
ATOM     27  C   UNL     1      -1.821  12.239  21.229  0.00  0.00    +0.000 A 
ATOM     28  C   UNL     1      -2.281  13.504  20.826  0.00  0.00    +0.000 A 
ATOM     29  C   UNL     1      -2.925  14.352  21.729  0.00  0.00    +0.000 A 
ATOM     30  C   UNL     1      -3.119  13.938  23.043  0.00  0.00    +0.000 A 
ATOM     31 CL   UNL     1      -3.895  14.990  24.162  0.00  0.00    +0.000 Cl
ATOM     32  C   UNL     1      -2.681  12.682  23.457  0.00  0.00    +0.000 A 
ATOM     33  C   UNL     1      -2.039  11.830  22.551  0.00  0.00    +0.000 A 
ENDBRANCH  26  27
ENDBRANCH  22  26
ENDBRANCH  13  22
TORSDOF 5
ENDMDL
MODEL 8
REMARK VINA RESULT:      -7.4      3.211      4.841
REMARK  Name = 
REMARK  5 active torsions:
REMARK  status: ('A' for Active; 'I' for Inactive)
REMARK    1  A    between atoms: N_1  and  C_2
REMARK    2  A    between atoms: C_14  and  C_16
REMARK    3  A    between atoms: C_16  and  N_17
REMARK    4  A    between atoms: C_16  and  C_18
REMARK    5  A    between atoms: C_18  and  C_19
REMARK                            x       y       z     vdW  Elec       q    Type
REMARK                         _______ _______ _______ _____ _____    ______ ____
ROOT
ATOM      1  C   UNL     1       1.277   3.301  18.950  0.00  0.00    +0.000 A 
ATOM      2  C   UNL     1       2.023   2.403  18.198  0.00  0.00    +0.000 A 
ATOM      3  C   UNL     1       3.099   2.849  17.418  0.00  0.00    +0.000 A 
ATOM      4  C   UNL     1       3.489   4.182  17.400  0.00  0.00    +0.000 A 
ATOM      5  N   UNL     1       4.528   4.535  16.636  0.00  0.00    +0.000 NA
ATOM      6  C   UNL     1       4.837   5.836  16.619  0.00  0.00    +0.000 A 
ATOM      7  N   UNL     1       4.198   6.816  17.271  0.00  0.00    +0.000 NA
ATOM      8  C   UNL     1       3.150   6.448  18.033  0.00  0.00    +0.000 A 
ATOM      9  N   UNL     1       2.328   7.453  18.561  0.00  0.00    +0.000 N 
ATOM     10  C   UNL     1       2.287   8.682  17.751  0.00  0.00    +0.000 C 
ATOM     11  C   UNL     1       1.014   9.449  18.133  0.00  0.00    +0.000 C 
ATOM     12  N   UNL     1       0.957   9.734  19.573  0.00  0.00    +0.000 N 
ATOM     13  C   UNL     1       0.167  10.814  19.961  0.00  0.00    +0.000 C 
ATOM     14  O   UNL     1      -0.499  11.457  19.144  0.00  0.00    +0.000 OA
ATOM     15  C   UNL     1       1.231   8.571  20.448  0.00  0.00    +0.000 C 
ATOM     16  C   UNL     1       2.472   7.755  19.996  0.00  0.00    +0.000 C 
ATOM     17  C   UNL     1       2.759   5.100  18.160  0.00  0.00    +0.000 A 
ATOM     18  C   UNL     1       1.667   4.638  18.945  0.00  0.00    +0.000 A 
ENDROOT
BRANCH   1  19
ATOM     19  N   UNL     1       0.321   2.848  19.863  0.00  0.00    +0.000 N 
ATOM     20  H   UNL     1       0.019   1.891  19.708  0.00  0.00    +0.000 HD
ATOM     21  H   UNL     1      -0.460   3.482  19.999  0.00  0.00    +0.000 HD
ENDBRANCH   1  19
BRANCH  13  22
ATOM     22  C   UNL     1       0.142  11.180  21.463  0.00  0.00    +0.000 C 
BRANCH  22  23
ATOM     23  N   UNL     1       1.138  10.331  22.163  0.00  0.00    +0.000 NA
ATOM     24  H   UNL     1       2.046  10.798  22.096  0.00  0.00    +0.000 HD
ATOM     25  H   UNL     1       1.247   9.453  21.655  0.00  0.00    +0.000 HD
ENDBRANCH  22  23
BRANCH  22  26
ATOM     26  C   UNL     1      -1.266  10.968  22.065  0.00  0.00    +0.000 C 
BRANCH  26  27
ATOM     27  C   UNL     1      -1.817  12.154  22.832  0.00  0.00    +0.000 A 
ATOM     28  C   UNL     1      -1.045  13.322  22.945  0.00  0.00    +0.000 A 
ATOM     29  C   UNL     1      -1.516  14.424  23.662  0.00  0.00    +0.000 A 
ATOM     30  C   UNL     1      -2.767  14.367  24.268  0.00  0.00    +0.000 A 
ATOM     31 CL   UNL     1      -3.340  15.717  25.168  0.00  0.00    +0.000 Cl
ATOM     32  C   UNL     1      -3.552  13.222  24.156  0.00  0.00    +0.000 A 
ATOM     33  C   UNL     1      -3.082  12.119  23.434  0.00  0.00    +0.000 A 
ENDBRANCH  26  27
ENDBRANCH  22  26
ENDBRANCH  13  22
TORSDOF 5
ENDMDL
MODEL 9
REMARK VINA RESULT:      -7.3      3.018      4.652
REMARK  Name = 
REMARK  5 active torsions:
REMARK  status: ('A' for Active; 'I' for Inactive)
REMARK    1  A    between atoms: N_1  and  C_2
REMARK    2  A    between atoms: C_14  and  C_16
REMARK    3  A    between atoms: C_16  and  N_17
REMARK    4  A    between atoms: C_16  and  C_18
REMARK    5  A    between atoms: C_18  and  C_19
REMARK                            x       y       z     vdW  Elec       q    Type
REMARK                         _______ _______ _______ _____ _____    ______ ____
ROOT
ATOM      1  C   UNL     1       1.276   3.184  19.153  0.00  0.00    +0.000 A 
ATOM      2  C   UNL     1       1.986   2.225  18.445  0.00  0.00    +0.000 A 
ATOM      3  C   UNL     1       3.050   2.597  17.612  0.00  0.00    +0.000 A 
ATOM      4  C   UNL     1       3.464   3.917  17.497  0.00  0.00    +0.000 A 
ATOM      5  N   UNL     1       4.490   4.199  16.686  0.00  0.00    +0.000 NA
ATOM      6  C   UNL     1       4.823   5.490  16.576  0.00  0.00    +0.000 A 
ATOM      7  N   UNL     1       4.218   6.523  17.177  0.00  0.00    +0.000 NA
ATOM      8  C   UNL     1       3.183   6.227  17.986  0.00  0.00    +0.000 A 
ATOM      9  N   UNL     1       2.394   7.280  18.466  0.00  0.00    +0.000 N 
ATOM     10  C   UNL     1       2.354   8.454  17.578  0.00  0.00    +0.000 C 
ATOM     11  C   UNL     1       1.106   9.270  17.939  0.00  0.00    +0.000 C 
ATOM     12  N   UNL     1       1.090   9.650  19.358  0.00  0.00    +0.000 N 
ATOM     13  C   UNL     1       0.330  10.769  19.692  0.00  0.00    +0.000 C 
ATOM     14  O   UNL     1      -0.344  11.370  18.850  0.00  0.00    +0.000 OA
ATOM     15  C   UNL     1       1.365   8.541  20.300  0.00  0.00    +0.000 C 
ATOM     16  C   UNL     1       2.578   7.673  19.874  0.00  0.00    +0.000 C 
ATOM     17  C   UNL     1       2.770   4.898  18.211  0.00  0.00    +0.000 A 
ATOM     18  C   UNL     1       1.690   4.511  19.051  0.00  0.00    +0.000 A 
ENDROOT
BRANCH   1  19
ATOM     19  N   UNL     1       0.335   2.812  20.116  0.00  0.00    +0.000 N 
ATOM     20  H   UNL     1       0.718   2.689  21.048  0.00  0.00    +0.000 HD
ATOM     21  H   UNL     1      -0.262   2.038  19.840  0.00  0.00    +0.000 HD
ENDBRANCH   1  19
BRANCH  13  22
ATOM     22  C   UNL     1       0.349  11.232  21.167  0.00  0.00    +0.000 C 
BRANCH  22  23
ATOM     23  N   UNL     1      -0.694  10.475  21.904  0.00  0.00    +0.000 NA
ATOM     24  H   UNL     1      -1.503  10.379  21.285  0.00  0.00    +0.000 HD
ATOM     25  H   UNL     1      -1.020  11.035  22.691  0.00  0.00    +0.000 HD
ENDBRANCH  22  23
BRANCH  22  26
ATOM     26  C   UNL     1       0.092  12.753  21.278  0.00  0.00    +0.000 C 
BRANCH  26  27
ATOM     27  C   UNL     1       1.100  13.625  20.555  0.00  0.00    +0.000 A 
ATOM     28  C   UNL     1       0.645  14.606  19.659  0.00  0.00    +0.000 A 
ATOM     29  C   UNL     1       1.548  15.412  18.962  0.00  0.00    +0.000 A 
ATOM     30  C   UNL     1       2.915  15.244  19.161  0.00  0.00    +0.000 A 
ATOM     31 CL   UNL     1       4.030  16.223  18.288  0.00  0.00    +0.000 Cl
ATOM     32  C   UNL     1       3.384  14.284  20.055  0.00  0.00    +0.000 A 
ATOM     33  C   UNL     1       2.479  13.480  20.756  0.00  0.00    +0.000 A 
ENDBRANCH  26  27
ENDBRANCH  22  26
ENDBRANCH  13  22
TORSDOF 5
ENDMDL
