MODEL 1
REMARK VINA RESULT:      -7.9      0.000      0.000
REMARK  Name = 
REMARK  1 active torsions:
REMARK  status: ('A' for Active; 'I' for Inactive)
REMARK    1  A    between atoms: C_4  and  C_5
REMARK                            x       y       z     vdW  Elec       q    Type
REMARK                         _______ _______ _______ _____ _____    ______ ____
ROOT
ATOM      1  C   UNL     1       2.980   4.467  18.769  0.00  0.00    +0.000 A 
ATOM      2  C   UNL     1       2.564   5.668  19.314  0.00  0.00    +0.000 A 
ATOM      3  N   UNL     1       3.108   6.690  18.588  0.00  0.00    +0.000 N 
ATOM      4  C   UNL     1       3.891   6.188  17.575  0.00  0.00    +0.000 A 
ATOM      5  C   UNL     1       4.649   6.864  16.612  0.00  0.00    +0.000 A 
ATOM      6  C   UNL     1       5.361   6.093  15.688  0.00  0.00    +0.000 A 
ATOM      7  C   UNL     1       5.302   4.705  15.731  0.00  0.00    +0.000 A 
ATOM      8 CL   UNL     1       6.191   3.780  14.581  0.00  0.00    +0.000 Cl
ATOM      9  C   UNL     1       4.538   4.042  16.696  0.00  0.00    +0.000 A 
ATOM     10  C   UNL     1       3.818   4.796  17.649  0.00  0.00    +0.000 A 
ATOM     11  H   UNL     1       2.964   7.674  18.766  0.00  0.00    +0.000 HD
ENDROOT
BRANCH   1  15
ATOM     12  O   UNL     1       1.053   2.580  22.467  0.00  0.00    +0.000 OA
ATOM     13  C   UNL     1       1.771   2.657  21.483  0.00  0.00    +0.000 C 
ATOM     14  C   UNL     1       1.330   3.093  20.118  0.00  0.00    +0.000 C 
ATOM     15  C   UNL     1       2.621   3.108  19.296  0.00  0.00    +0.000 C 
ATOM     16  C   UNL     1       3.663   2.552  20.241  0.00  0.00    +0.000 C 
ATOM     17  O   UNL     1       4.831   2.312  19.981  0.00  0.00    +0.000 OA
ATOM     18  N   UNL     1       3.088   2.346  21.453  0.00  0.00    +0.000 N 
ATOM     19  H   UNL     1       3.597   2.005  22.254  0.00  0.00    +0.000 HD
ENDBRANCH   1  15
TORSDOF 1
ENDMDL
MODEL 2
REMARK VINA RESULT:      -7.7      3.431      5.817
REMARK  Name = 
REMARK  1 active torsions:
REMARK  status: ('A' for Active; 'I' for Inactive)
REMARK    1  A    between atoms: C_4  and  C_5
REMARK                            x       y       z     vdW  Elec       q    Type
REMARK                         _______ _______ _______ _____ _____    ______ ____
ROOT
ATOM      1  C   UNL     1       4.494   4.530  17.733  0.00  0.00    +0.000 A 
ATOM      2  C   UNL     1       4.341   3.198  17.396  0.00  0.00    +0.000 A 
ATOM      3  N   UNL     1       3.251   2.702  18.057  0.00  0.00    +0.000 N 
ATOM      4  C   UNL     1       2.685   3.680  18.839  0.00  0.00    +0.000 A 
ATOM      5  C   UNL     1       1.578   3.613  19.694  0.00  0.00    +0.000 A 
ATOM      6  C   UNL     1       1.216   4.777  20.380  0.00  0.00    +0.000 A 
ATOM      7  C   UNL     1       1.933   5.954  20.201  0.00  0.00    +0.000 A 
ATOM      8 CL   UNL     1       1.465   7.372  21.061  0.00  0.00    +0.000 Cl
ATOM      9  C   UNL     1       3.034   6.010  19.342  0.00  0.00    +0.000 A 
ATOM     10  C   UNL     1       3.429   4.846  18.646  0.00  0.00    +0.000 A 
ATOM     11  H   UNL     1       2.909   1.754  17.988  0.00  0.00    +0.000 HD
ENDROOT
BRANCH   1  15
ATOM     12  O   UNL     1       7.090   5.100  14.008  0.00  0.00    +0.000 OA
ATOM     13  C   UNL     1       6.785   5.143  15.189  0.00  0.00    +0.000 C 
ATOM     14  C   UNL     1       5.513   5.716  15.737  0.00  0.00    +0.000 C 
ATOM     15  C   UNL     1       5.592   5.427  17.238  0.00  0.00    +0.000 C 
ATOM     16  C   UNL     1       6.967   4.827  17.425  0.00  0.00    +0.000 C 
ATOM     17  O   UNL     1       7.491   4.514  18.482  0.00  0.00    +0.000 OA
ATOM     18  N   UNL     1       7.554   4.692  16.208  0.00  0.00    +0.000 N 
ATOM     19  H   UNL     1       8.467   4.286  16.078  0.00  0.00    +0.000 HD
ENDBRANCH   1  15
TORSDOF 1
ENDMDL
MODEL 3
REMARK VINA RESULT:      -7.6      1.894      2.160
REMARK  Name = 
REMARK  1 active torsions:
REMARK  status: ('A' for Active; 'I' for Inactive)
REMARK    1  A    between atoms: C_4  and  C_5
REMARK                            x       y       z     vdW  Elec       q    Type
REMARK                         _______ _______ _______ _____ _____    ______ ____
ROOT
ATOM      1  C   UNL     1       4.106   4.342  18.547  0.00  0.00    +0.000 A 
ATOM      2  C   UNL     1       4.904   4.649  19.634  0.00  0.00    +0.000 A 
ATOM      3  N   UNL     1       6.184   4.845  19.195  0.00  0.00    +0.000 N 
ATOM      4  C   UNL     1       6.253   4.661  17.835  0.00  0.00    +0.000 A 
ATOM      5  C   UNL     1       7.356   4.737  16.976  0.00  0.00    +0.000 A 
ATOM      6  C   UNL     1       7.138   4.499  15.616  0.00  0.00    +0.000 A 
ATOM      7  C   UNL     1       5.863   4.207  15.145  0.00  0.00    +0.000 A 
ATOM      8 CL   UNL     1       5.624   3.916  13.463  0.00  0.00    +0.000 Cl
ATOM      9  C   UNL     1       4.769   4.138  16.012  0.00  0.00    +0.000 A 
ATOM     10  C   UNL     1       4.962   4.362  17.393  0.00  0.00    +0.000 A 
ATOM     11  H   UNL     1       6.971   5.087  19.781  0.00  0.00    +0.000 HD
ENDROOT
BRANCH   1  15
ATOM     12  O   UNL     1       1.014   2.836  21.565  0.00  0.00    +0.000 OA
ATOM     13  C   UNL     1       1.523   3.033  20.474  0.00  0.00    +0.000 C 
ATOM     14  C   UNL     1       2.005   4.358  19.966  0.00  0.00    +0.000 C 
ATOM     15  C   UNL     1       2.639   4.030  18.612  0.00  0.00    +0.000 C 
ATOM     16  C   UNL     1       2.344   2.560  18.416  0.00  0.00    +0.000 C 
ATOM     17  O   UNL     1       2.599   1.890  17.428  0.00  0.00    +0.000 OA
ATOM     18  N   UNL     1       1.727   2.085  19.527  0.00  0.00    +0.000 N 
ATOM     19  H   UNL     1       1.458   1.121  19.640  0.00  0.00    +0.000 HD
ENDBRANCH   1  15
TORSDOF 1
ENDMDL
MODEL 4
REMARK VINA RESULT:      -7.5      1.906      2.279
REMARK  Name = 
REMARK  1 active torsions:
REMARK  status: ('A' for Active; 'I' for Inactive)
REMARK    1  A    between atoms: C_4  and  C_5
REMARK                            x       y       z     vdW  Elec       q    Type
REMARK                         _______ _______ _______ _____ _____    ______ ____
ROOT
ATOM      1  C   UNL     1       4.139   4.177  17.503  0.00  0.00    +0.000 A 
ATOM      2  C   UNL     1       4.692   4.885  18.554  0.00  0.00    +0.000 A 
ATOM      3  N   UNL     1       5.878   5.426  18.140  0.00  0.00    +0.000 N 
ATOM      4  C   UNL     1       6.129   5.078  16.835  0.00  0.00    +0.000 A 
ATOM      5  C   UNL     1       7.225   5.387  16.021  0.00  0.00    +0.000 A 
ATOM      6  C   UNL     1       7.222   4.894  14.712  0.00  0.00    +0.000 A 
ATOM      7  C   UNL     1       6.157   4.132  14.246  0.00  0.00    +0.000 A 
ATOM      8 CL   UNL     1       6.181   3.536  12.630  0.00  0.00    +0.000 Cl
ATOM      9  C   UNL     1       5.066   3.833  15.068  0.00  0.00    +0.000 A 
ATOM     10  C   UNL     1       5.048   4.309  16.398  0.00  0.00    +0.000 A 
ATOM     11  H   UNL     1       6.488   5.997  18.709  0.00  0.00    +0.000 HD
ENDROOT
BRANCH   1  15
ATOM     12  O   UNL     1       0.475   3.759  20.212  0.00  0.00    +0.000 OA
ATOM     13  C   UNL     1       1.316   3.428  19.393  0.00  0.00    +0.000 C 
ATOM     14  C   UNL     1       1.693   4.209  18.171  0.00  0.00    +0.000 C 
ATOM     15  C   UNL     1       2.848   3.412  17.561  0.00  0.00    +0.000 C 
ATOM     16  C   UNL     1       2.939   2.176  18.427  0.00  0.00    +0.000 C 
ATOM     17  O   UNL     1       3.676   1.218  18.259  0.00  0.00    +0.000 OA
ATOM     18  N   UNL     1       2.045   2.287  19.443  0.00  0.00    +0.000 N 
ATOM     19  H   UNL     1       1.944   1.594  20.167  0.00  0.00    +0.000 HD
ENDBRANCH   1  15
TORSDOF 1
ENDMDL
MODEL 5
REMARK VINA RESULT:      -7.3      3.204      5.231
REMARK  Name = 
REMARK  1 active torsions:
REMARK  status: ('A' for Active; 'I' for Inactive)
REMARK    1  A    between atoms: C_4  and  C_5
REMARK                            x       y       z     vdW  Elec       q    Type
REMARK                         _______ _______ _______ _____ _____    ______ ____
ROOT
ATOM      1  C   UNL     1       4.358   6.363  17.298  0.00  0.00    +0.000 A 
ATOM      2  C   UNL     1       3.572   7.419  17.719  0.00  0.00    +0.000 A 
ATOM      3  N   UNL     1       2.564   6.929  18.503  0.00  0.00    +0.000 N 
ATOM      4  C   UNL     1       2.660   5.562  18.598  0.00  0.00    +0.000 A 
ATOM      5  C   UNL     1       1.836   4.652  19.272  0.00  0.00    +0.000 A 
ATOM      6  C   UNL     1       2.171   3.296  19.200  0.00  0.00    +0.000 A 
ATOM      7  C   UNL     1       3.291   2.881  18.488  0.00  0.00    +0.000 A 
ATOM      8 CL   UNL     1       3.678   1.204  18.415  0.00  0.00    +0.000 Cl
ATOM      9  C   UNL     1       4.107   3.800  17.822  0.00  0.00    +0.000 A 
ATOM     10  C   UNL     1       3.786   5.174  17.869  0.00  0.00    +0.000 A 
ATOM     11  H   UNL     1       1.847   7.486  18.947  0.00  0.00    +0.000 HD
ENDROOT
BRANCH   1  15
ATOM     12  O   UNL     1       6.692   3.825  14.290  0.00  0.00    +0.000 OA
ATOM     13  C   UNL     1       6.501   4.694  15.124  0.00  0.00    +0.000 C 
ATOM     14  C   UNL     1       5.401   5.713  15.081  0.00  0.00    +0.000 C 
ATOM     15  C   UNL     1       5.553   6.480  16.396  0.00  0.00    +0.000 C 
ATOM     16  C   UNL     1       6.810   5.908  17.012  0.00  0.00    +0.000 C 
ATOM     17  O   UNL     1       7.356   6.281  18.037  0.00  0.00    +0.000 OA
ATOM     18  N   UNL     1       7.259   4.896  16.227  0.00  0.00    +0.000 N 
ATOM     19  H   UNL     1       8.071   4.343  16.452  0.00  0.00    +0.000 HD
ENDBRANCH   1  15
TORSDOF 1
ENDMDL
MODEL 6
REMARK VINA RESULT:      -7.3      2.056      2.218
REMARK  Name = 
REMARK  1 active torsions:
REMARK  status: ('A' for Active; 'I' for Inactive)
REMARK    1  A    between atoms: C_4  and  C_5
REMARK                            x       y       z     vdW  Elec       q    Type
REMARK                         _______ _______ _______ _____ _____    ______ ____
ROOT
ATOM      1  C   UNL     1       4.005   4.060  17.991  0.00  0.00    +0.000 A 
ATOM      2  C   UNL     1       4.147   4.581  19.263  0.00  0.00    +0.000 A 
ATOM      3  N   UNL     1       5.253   5.384  19.288  0.00  0.00    +0.000 N 
ATOM      4  C   UNL     1       5.858   5.395  18.054  0.00  0.00    +0.000 A 
ATOM      5  C   UNL     1       7.019   6.054  17.632  0.00  0.00    +0.000 A 
ATOM      6  C   UNL     1       7.414   5.887  16.301  0.00  0.00    +0.000 A 
ATOM      7  C   UNL     1       6.666   5.097  15.436  0.00  0.00    +0.000 A 
ATOM      8 CL   UNL     1       7.177   4.908  13.801  0.00  0.00    +0.000 Cl
ATOM      9  C   UNL     1       5.506   4.446  15.868  0.00  0.00    +0.000 A 
ATOM     10  C   UNL     1       5.091   4.589  17.210  0.00  0.00    +0.000 A 
ATOM     11  H   UNL     1       5.586   5.894  20.094  0.00  0.00    +0.000 HD
ENDROOT
BRANCH   1  15
ATOM     12  O   UNL     1      -0.119   2.642  19.374  0.00  0.00    +0.000 OA
ATOM     13  C   UNL     1       0.967   2.584  18.821  0.00  0.00    +0.000 C 
ATOM     14  C   UNL     1       1.514   3.608  17.872  0.00  0.00    +0.000 C 
ATOM     15  C   UNL     1       2.926   3.109  17.560  0.00  0.00    +0.000 C 
ATOM     16  C   UNL     1       3.008   1.773  18.265  0.00  0.00    +0.000 C 
ATOM     17  O   UNL     1       3.935   0.981  18.223  0.00  0.00    +0.000 OA
ATOM     18  N   UNL     1       1.860   1.576  18.962  0.00  0.00    +0.000 N 
ATOM     19  H   UNL     1       1.696   0.764  19.535  0.00  0.00    +0.000 HD
ENDBRANCH   1  15
TORSDOF 1
ENDMDL
MODEL 7
REMARK VINA RESULT:      -7.3      3.500      5.699
REMARK  Name = 
REMARK  1 active torsions:
REMARK  status: ('A' for Active; 'I' for Inactive)
REMARK    1  A    between atoms: C_4  and  C_5
REMARK                            x       y       z     vdW  Elec       q    Type
REMARK                         _______ _______ _______ _____ _____    ______ ____
ROOT
ATOM      1  C   UNL     1       4.888   4.834  18.456  0.00  0.00    +0.000 A 
ATOM      2  C   UNL     1       4.897   3.490  18.780  0.00  0.00    +0.000 A 
ATOM      3  N   UNL     1       3.843   3.233  19.612  0.00  0.00    +0.000 N 
ATOM      4  C   UNL     1       3.140   4.388  19.857  0.00  0.00    +0.000 A 
ATOM      5  C   UNL     1       2.013   4.596  20.662  0.00  0.00    +0.000 A 
ATOM      6  C   UNL     1       1.497   5.893  20.733  0.00  0.00    +0.000 A 
ATOM      7  C   UNL     1       2.085   6.929  20.016  0.00  0.00    +0.000 A 
ATOM      8 CL   UNL     1       1.428   8.518  20.124  0.00  0.00    +0.000 Cl
ATOM      9  C   UNL     1       3.208   6.708  19.213  0.00  0.00    +0.000 A 
ATOM     10  C   UNL     1       3.758   5.409  19.133  0.00  0.00    +0.000 A 
ATOM     11  H   UNL     1       3.611   2.328  19.997  0.00  0.00    +0.000 HD
ENDROOT
BRANCH   1  15
ATOM     12  O   UNL     1       6.864   4.304  14.363  0.00  0.00    +0.000 OA
ATOM     13  C   UNL     1       6.751   4.664  15.523  0.00  0.00    +0.000 C 
ATOM     14  C   UNL     1       5.586   5.417  16.090  0.00  0.00    +0.000 C 
ATOM     15  C   UNL     1       5.900   5.520  17.584  0.00  0.00    +0.000 C 
ATOM     16  C   UNL     1       7.283   4.923  17.710  0.00  0.00    +0.000 C 
ATOM     17  O   UNL     1       7.965   4.868  18.721  0.00  0.00    +0.000 OA
ATOM     18  N   UNL     1       7.669   4.453  16.497  0.00  0.00    +0.000 N 
ATOM     19  H   UNL     1       8.547   3.985  16.341  0.00  0.00    +0.000 HD
ENDBRANCH   1  15
TORSDOF 1
ENDMDL
MODEL 8
REMARK VINA RESULT:      -7.3      1.681      1.956
REMARK  Name = 
REMARK  1 active torsions:
REMARK  status: ('A' for Active; 'I' for Inactive)
REMARK    1  A    between atoms: C_4  and  C_5
REMARK                            x       y       z     vdW  Elec       q    Type
REMARK                         _______ _______ _______ _____ _____    ______ ____
ROOT
ATOM      1  C   UNL     1       4.832   4.063  18.320  0.00  0.00    +0.000 A 
ATOM      2  C   UNL     1       5.409   4.950  19.211  0.00  0.00    +0.000 A 
ATOM      3  N   UNL     1       6.330   5.707  18.541  0.00  0.00    +0.000 N 
ATOM      4  C   UNL     1       6.384   5.328  17.221  0.00  0.00    +0.000 A 
ATOM      5  C   UNL     1       7.193   5.811  16.184  0.00  0.00    +0.000 A 
ATOM      6  C   UNL     1       7.039   5.236  14.919  0.00  0.00    +0.000 A 
ATOM      7  C   UNL     1       6.105   4.227  14.710  0.00  0.00    +0.000 A 
ATOM      8 CL   UNL     1       5.938   3.535  13.141  0.00  0.00    +0.000 Cl
ATOM      9  C   UNL     1       5.301   3.756  15.752  0.00  0.00    +0.000 A 
ATOM     10  C   UNL     1       5.444   4.311  17.043  0.00  0.00    +0.000 A 
ATOM     11  H   UNL     1       6.895   6.437  18.952  0.00  0.00    +0.000 HD
ENDROOT
BRANCH   1  15
ATOM     12  O   UNL     1       0.898   3.773  20.640  0.00  0.00    +0.000 OA
ATOM     13  C   UNL     1       1.950   3.396  20.150  0.00  0.00    +0.000 C 
ATOM     14  C   UNL     1       2.371   3.609  18.727  0.00  0.00    +0.000 C 
ATOM     15  C   UNL     1       3.791   3.040  18.670  0.00  0.00    +0.000 C 
ATOM     16  C   UNL     1       4.000   2.437  20.041  0.00  0.00    +0.000 C 
ATOM     17  O   UNL     1       4.971   1.803  20.420  0.00  0.00    +0.000 OA
ATOM     18  N   UNL     1       2.912   2.705  20.807  0.00  0.00    +0.000 N 
ATOM     19  H   UNL     1       2.836   2.428  21.773  0.00  0.00    +0.000 HD
ENDBRANCH   1  15
TORSDOF 1
ENDMDL
MODEL 9
REMARK VINA RESULT:      -7.1      2.851      4.113
REMARK  Name = 
REMARK  1 active torsions:
REMARK  status: ('A' for Active; 'I' for Inactive)
REMARK    1  A    between atoms: C_4  and  C_5
REMARK                            x       y       z     vdW  Elec       q    Type
REMARK                         _______ _______ _______ _____ _____    ______ ____
ROOT
ATOM      1  C   UNL     1       5.948   4.506  16.203  0.00  0.00    +0.000 A 
ATOM      2  C   UNL     1       6.874   5.471  16.553  0.00  0.00    +0.000 A 
ATOM      3  N   UNL     1       7.599   5.805  15.443  0.00  0.00    +0.000 N 
ATOM      4  C   UNL     1       7.179   5.067  14.363  0.00  0.00    +0.000 A 
ATOM      5  C   UNL     1       7.649   5.063  13.044  0.00  0.00    +0.000 A 
ATOM      6  C   UNL     1       7.030   4.199  12.136  0.00  0.00    +0.000 A 
ATOM      7  C   UNL     1       5.979   3.385  12.540  0.00  0.00    +0.000 A 
ATOM      8 CL   UNL     1       5.235   2.328  11.399  0.00  0.00    +0.000 Cl
ATOM      9  C   UNL     1       5.515   3.400  13.859  0.00  0.00    +0.000 A 
ATOM     10  C   UNL     1       6.131   4.255  14.800  0.00  0.00    +0.000 A 
ATOM     11  H   UNL     1       8.341   6.490  15.415  0.00  0.00    +0.000 HD
ENDROOT
BRANCH   1  15
ATOM     12  O   UNL     1       1.922   5.395  18.189  0.00  0.00    +0.000 OA
ATOM     13  C   UNL     1       3.029   4.899  18.054  0.00  0.00    +0.000 C 
ATOM     14  C   UNL     1       3.514   4.178  16.833  0.00  0.00    +0.000 C 
ATOM     15  C   UNL     1       4.977   3.857  17.147  0.00  0.00    +0.000 C 
ATOM     16  C   UNL     1       5.154   4.315  18.577  0.00  0.00    +0.000 C 
ATOM     17  O   UNL     1       6.151   4.182  19.268  0.00  0.00    +0.000 OA
ATOM     18  N   UNL     1       4.004   4.904  18.993  0.00  0.00    +0.000 N 
ATOM     19  H   UNL     1       3.894   5.314  19.907  0.00  0.00    +0.000 HD
ENDBRANCH   1  15
TORSDOF 1
ENDMDL
