MODEL 1
REMARK VINA RESULT:      -9.0      0.000      0.000
REMARK  Name = 
REMARK  6 active torsions:
REMARK  status: ('A' for Active; 'I' for Inactive)
REMARK    1  A    between atoms: C_1  and  N_2
REMARK    2  A    between atoms: C_3  and  C_5
REMARK    3  A    between atoms: C_7  and  O_8
REMARK    4  A    between atoms: O_8  and  C_9
REMARK    5  A    between atoms: C_13  and  C_14
REMARK    6  A    between atoms: N_16  and  C_17
REMARK                            x       y       z     vdW  Elec       q    Type
REMARK                         _______ _______ _______ _____ _____    ______ ____
ROOT
ATOM      1  C   UNL     1       2.935   6.688  18.356  0.00  0.00    +0.000 A 
ATOM      2  C   UNL     1       2.810   7.836  17.583  0.00  0.00    +0.000 A 
ATOM      3  C   UNL     1       2.198   8.977  18.109  0.00  0.00    +0.000 A 
ATOM      4  C   UNL     1       1.595   8.985  19.388  0.00  0.00    +0.000 A 
ATOM      5  C   UNL     1       0.930  10.107  19.975  0.00  0.00    +0.000 A 
ATOM      6  C   UNL     1       0.328   9.988  21.238  0.00  0.00    +0.000 A 
ATOM      7  C   UNL     1       0.394   8.792  21.946  0.00  0.00    +0.000 A 
ATOM      8  C   UNL     1       1.059   7.698  21.397  0.00  0.00    +0.000 A 
ATOM      9  C   UNL     1       1.659   7.773  20.133  0.00  0.00    +0.000 A 
ATOM     10  C   UNL     1       2.328   6.648  19.611  0.00  0.00    +0.000 A 
ENDROOT
BRANCH   5  11
ATOM     11  C   UNL     1       0.806  11.430  19.267  0.00  0.00    +0.000 C 
ATOM     12  O   UNL     1      -0.071  11.588  18.427  0.00  0.00    +0.000 OA
ATOM     13  N   UNL     1       1.748  12.382  19.637  0.00  0.00    +0.000 N 
ATOM     14  H   UNL     1       2.505  12.072  20.230  0.00  0.00    +0.000 HD
BRANCH  13  15
ATOM     15  C   UNL     1       1.875  13.693  19.125  0.00  0.00    +0.000 A 
ATOM     16  C   UNL     1       0.949  14.714  19.352  0.00  0.00    +0.000 A 
ATOM     17  C   UNL     1       1.096  15.960  18.731  0.00  0.00    +0.000 A 
ATOM     18  C   UNL     1       2.176  16.191  17.886  0.00  0.00    +0.000 A 
ATOM     19 CL   UNL     1       2.319  17.697  17.066  0.00  0.00    +0.000 Cl
ATOM     20  C   UNL     1       3.136  15.201  17.691  0.00  0.00    +0.000 A 
ATOM     21  C   UNL     1       2.992  13.961  18.321  0.00  0.00    +0.000 A 
ENDBRANCH  13  15
ENDBRANCH   5  11
BRANCH   1  22
ATOM     22  O   UNL     1       3.613   5.555  17.953  0.00  0.00    +0.000 OA
BRANCH  22  25
ATOM     23  C   UNL     1       6.491   5.447  15.669  0.00  0.00    +0.000 A 
ATOM     24  C   UNL     1       5.166   5.377  16.077  0.00  0.00    +0.000 A 
ATOM     25  C   UNL     1       4.869   5.682  17.394  0.00  0.00    +0.000 A 
ATOM     26  C   UNL     1       5.874   6.172  18.226  0.00  0.00    +0.000 A 
ATOM     27  C   UNL     1       7.161   6.261  17.717  0.00  0.00    +0.000 A 
ATOM     28  N   UNL     1       7.509   5.886  16.464  0.00  0.00    +0.000 NA
BRANCH  23  31
ATOM     29  C   UNL     1       6.254   3.427  12.484  0.00  0.00    +0.000 C 
ATOM     30  N   UNL     1       6.018   4.000  13.779  0.00  0.00    +0.000 N 
ATOM     31  C   UNL     1       6.853   4.963  14.298  0.00  0.00    +0.000 C 
ATOM     32  O   UNL     1       7.820   5.418  13.699  0.00  0.00    +0.000 OA
ATOM     33  H   UNL     1       5.223   3.718  14.348  0.00  0.00    +0.000 HD
ENDBRANCH  23  31
ENDBRANCH  22  25
ENDBRANCH   1  22
TORSDOF 5
ENDMDL
MODEL 2
REMARK VINA RESULT:      -8.7      0.582      1.040
REMARK  Name = 
REMARK  6 active torsions:
REMARK  status: ('A' for Active; 'I' for Inactive)
REMARK    1  A    between atoms: C_1  and  N_2
REMARK    2  A    between atoms: C_3  and  C_5
REMARK    3  A    between atoms: C_7  and  O_8
REMARK    4  A    between atoms: O_8  and  C_9
REMARK    5  A    between atoms: C_13  and  C_14
REMARK    6  A    between atoms: N_16  and  C_17
REMARK                            x       y       z     vdW  Elec       q    Type
REMARK                         _______ _______ _______ _____ _____    ______ ____
ROOT
ATOM      1  C   UNL     1       2.985   6.135  18.590  0.00  0.00    +0.000 A 
ATOM      2  C   UNL     1       2.912   7.223  17.728  0.00  0.00    +0.000 A 
ATOM      3  C   UNL     1       2.309   8.413  18.145  0.00  0.00    +0.000 A 
ATOM      4  C   UNL     1       1.664   8.530  19.397  0.00  0.00    +0.000 A 
ATOM      5  C   UNL     1       1.005   9.708  19.874  0.00  0.00    +0.000 A 
ATOM      6  C   UNL     1       0.358   9.697  21.119  0.00  0.00    +0.000 A 
ATOM      7  C   UNL     1       0.372   8.558  21.918  0.00  0.00    +0.000 A 
ATOM      8  C   UNL     1       1.030   7.411  21.477  0.00  0.00    +0.000 A 
ATOM      9  C   UNL     1       1.674   7.378  20.233  0.00  0.00    +0.000 A 
ATOM     10  C   UNL     1       2.335   6.203  19.822  0.00  0.00    +0.000 A 
ENDROOT
BRANCH   5  11
ATOM     11  C   UNL     1       0.935  10.975  19.064  0.00  0.00    +0.000 C 
ATOM     12  O   UNL     1       0.285  10.996  18.026  0.00  0.00    +0.000 OA
ATOM     13  N   UNL     1       1.659  12.041  19.583  0.00  0.00    +0.000 N 
ATOM     14  H   UNL     1       2.271  11.844  20.363  0.00  0.00    +0.000 HD
BRANCH  13  15
ATOM     15  C   UNL     1       1.783  13.333  19.024  0.00  0.00    +0.000 A 
ATOM     16  C   UNL     1       2.898  13.769  18.305  0.00  0.00    +0.000 A 
ATOM     17  C   UNL     1       2.987  15.096  17.865  0.00  0.00    +0.000 A 
ATOM     18  C   UNL     1       1.955  15.988  18.137  0.00  0.00    +0.000 A 
ATOM     19 CL   UNL     1       2.095  17.635  17.661  0.00  0.00    +0.000 Cl
ATOM     20  C   UNL     1       0.814  15.555  18.807  0.00  0.00    +0.000 A 
ATOM     21  C   UNL     1       0.723  14.227  19.235  0.00  0.00    +0.000 A 
ENDBRANCH  13  15
ENDBRANCH   5  11
BRANCH   1  22
ATOM     22  O   UNL     1       3.651   4.961  18.297  0.00  0.00    +0.000 OA
BRANCH  22  25
ATOM     23  C   UNL     1       6.557   4.952  16.048  0.00  0.00    +0.000 A 
ATOM     24  C   UNL     1       5.223   4.995  16.430  0.00  0.00    +0.000 A 
ATOM     25  C   UNL     1       4.930   5.019  17.783  0.00  0.00    +0.000 A 
ATOM     26  C   UNL     1       5.968   5.135  18.706  0.00  0.00    +0.000 A 
ATOM     27  C   UNL     1       7.270   5.140  18.230  0.00  0.00    +0.000 A 
ATOM     28  N   UNL     1       7.601   5.025  16.923  0.00  0.00    +0.000 NA
BRANCH  23  31
ATOM     29  C   UNL     1       6.404   3.453  12.582  0.00  0.00    +0.000 C 
ATOM     30  N   UNL     1       6.176   3.767  13.964  0.00  0.00    +0.000 N 
ATOM     31  C   UNL     1       6.889   4.757  14.599  0.00  0.00    +0.000 C 
ATOM     32  O   UNL     1       7.730   5.454  14.042  0.00  0.00    +0.000 OA
ATOM     33  H   UNL     1       5.477   3.273  14.513  0.00  0.00    +0.000 HD
ENDBRANCH  23  31
ENDBRANCH  22  25
ENDBRANCH   1  22
TORSDOF 5
ENDMDL
MODEL 3
REMARK VINA RESULT:      -8.4      3.328      5.176
REMARK  Name = 
REMARK  6 active torsions:
REMARK  status: ('A' for Active; 'I' for Inactive)
REMARK    1  A    between atoms: C_1  and  N_2
REMARK    2  A    between atoms: C_3  and  C_5
REMARK    3  A    between atoms: C_7  and  O_8
REMARK    4  A    between atoms: O_8  and  C_9
REMARK    5  A    between atoms: C_13  and  C_14
REMARK    6  A    between atoms: N_16  and  C_17
REMARK                            x       y       z     vdW  Elec       q    Type
REMARK                         _______ _______ _______ _____ _____    ______ ____
ROOT
ATOM      1  C   UNL     1       6.317   5.289  16.526  0.00  0.00    +0.000 A 
ATOM      2  C   UNL     1       5.589   6.472  16.491  0.00  0.00    +0.000 A 
ATOM      3  C   UNL     1       4.529   6.674  17.379  0.00  0.00    +0.000 A 
ATOM      4  C   UNL     1       4.088   5.665  18.265  0.00  0.00    +0.000 A 
ATOM      5  C   UNL     1       2.995   5.796  19.179  0.00  0.00    +0.000 A 
ATOM      6  C   UNL     1       2.616   4.709  19.983  0.00  0.00    +0.000 A 
ATOM      7  C   UNL     1       3.311   3.505  19.926  0.00  0.00    +0.000 A 
ATOM      8  C   UNL     1       4.392   3.371  19.057  0.00  0.00    +0.000 A 
ATOM      9  C   UNL     1       4.791   4.428  18.227  0.00  0.00    +0.000 A 
ATOM     10  C   UNL     1       5.893   4.258  17.365  0.00  0.00    +0.000 A 
ENDROOT
BRANCH   5  11
ATOM     11  C   UNL     1       2.186   7.061  19.291  0.00  0.00    +0.000 C 
ATOM     12  O   UNL     1       1.839   7.650  18.276  0.00  0.00    +0.000 OA
ATOM     13  N   UNL     1       1.912   7.465  20.592  0.00  0.00    +0.000 N 
ATOM     14  H   UNL     1       2.385   6.971  21.336  0.00  0.00    +0.000 HD
BRANCH  13  15
ATOM     15  C   UNL     1       1.193   8.616  20.988  0.00  0.00    +0.000 A 
ATOM     16  C   UNL     1       1.408   9.891  20.461  0.00  0.00    +0.000 A 
ATOM     17  C   UNL     1       0.721  10.998  20.973  0.00  0.00    +0.000 A 
ATOM     18  C   UNL     1      -0.190  10.831  22.011  0.00  0.00    +0.000 A 
ATOM     19 CL   UNL     1      -0.981  12.199  22.689  0.00  0.00    +0.000 Cl
ATOM     20  C   UNL     1      -0.454   9.559  22.510  0.00  0.00    +0.000 A 
ATOM     21  C   UNL     1       0.225   8.453  21.989  0.00  0.00    +0.000 A 
ENDBRANCH  13  15
ENDBRANCH   5  11
BRANCH   1  22
ATOM     22  O   UNL     1       7.438   5.048  15.757  0.00  0.00    +0.000 OA
BRANCH  22  25
ATOM     23  C   UNL     1       6.494   3.819  12.424  0.00  0.00    +0.000 A 
ATOM     24  C   UNL     1       6.460   3.955  13.806  0.00  0.00    +0.000 A 
ATOM     25  C   UNL     1       7.300   4.884  14.393  0.00  0.00    +0.000 A 
ATOM     26  C   UNL     1       8.048   5.738  13.585  0.00  0.00    +0.000 A 
ATOM     27  C   UNL     1       7.979   5.567  12.210  0.00  0.00    +0.000 A 
ATOM     28  N   UNL     1       7.240   4.610  11.601  0.00  0.00    +0.000 NA
BRANCH  23  31
ATOM     29  C   UNL     1       5.817   0.410  10.938  0.00  0.00    +0.000 C 
ATOM     30  N   UNL     1       6.426   1.551  11.562  0.00  0.00    +0.000 N 
ATOM     31  C   UNL     1       5.716   2.707  11.787  0.00  0.00    +0.000 C 
ATOM     32  O   UNL     1       4.530   2.842  11.509  0.00  0.00    +0.000 OA
ATOM     33  H   UNL     1       7.398   1.536  11.864  0.00  0.00    +0.000 HD
ENDBRANCH  23  31
ENDBRANCH  22  25
ENDBRANCH   1  22
TORSDOF 5
ENDMDL
MODEL 4
REMARK VINA RESULT:      -8.2      5.751     10.947
REMARK  Name = 
REMARK  6 active torsions:
REMARK  status: ('A' for Active; 'I' for Inactive)
REMARK    1  A    between atoms: C_1  and  N_2
REMARK    2  A    between atoms: C_3  and  C_5
REMARK    3  A    between atoms: C_7  and  O_8
REMARK    4  A    between atoms: O_8  and  C_9
REMARK    5  A    between atoms: C_13  and  C_14
REMARK    6  A    between atoms: N_16  and  C_17
REMARK                            x       y       z     vdW  Elec       q    Type
REMARK                         _______ _______ _______ _____ _____    ______ ____
ROOT
ATOM      1  C   UNL     1      -3.540  10.761  17.262  0.00  0.00    +0.000 A 
ATOM      2  C   UNL     1      -2.604  10.030  16.539  0.00  0.00    +0.000 A 
ATOM      3  C   UNL     1      -1.325   9.815  17.058  0.00  0.00    +0.000 A 
ATOM      4  C   UNL     1      -0.895  10.407  18.268  0.00  0.00    +0.000 A 
ATOM      5  C   UNL     1       0.407  10.250  18.841  0.00  0.00    +0.000 A 
ATOM      6  C   UNL     1       0.740  10.922  20.028  0.00  0.00    +0.000 A 
ATOM      7  C   UNL     1      -0.196  11.721  20.677  0.00  0.00    +0.000 A 
ATOM      8  C   UNL     1      -1.475  11.864  20.143  0.00  0.00    +0.000 A 
ATOM      9  C   UNL     1      -1.839  11.222  18.952  0.00  0.00    +0.000 A 
ATOM     10  C   UNL     1      -3.143  11.385  18.444  0.00  0.00    +0.000 A 
ENDROOT
BRANCH   5  11
ATOM     11  C   UNL     1       1.477   9.413  18.192  0.00  0.00    +0.000 C 
ATOM     12  O   UNL     1       2.152   9.886  17.287  0.00  0.00    +0.000 OA
ATOM     13  N   UNL     1       1.592   8.122  18.691  0.00  0.00    +0.000 N 
ATOM     14  H   UNL     1       0.874   7.812  19.332  0.00  0.00    +0.000 HD
BRANCH  13  15
ATOM     15  C   UNL     1       2.493   7.122  18.259  0.00  0.00    +0.000 A 
ATOM     16  C   UNL     1       3.744   7.388  17.700  0.00  0.00    +0.000 A 
ATOM     17  C   UNL     1       4.540   6.346  17.207  0.00  0.00    +0.000 A 
ATOM     18  C   UNL     1       4.088   5.033  17.281  0.00  0.00    +0.000 A 
ATOM     19 CL   UNL     1       5.032   3.760  16.612  0.00  0.00    +0.000 Cl
ATOM     20  C   UNL     1       2.866   4.747  17.884  0.00  0.00    +0.000 A 
ATOM     21  C   UNL     1       2.078   5.788  18.384  0.00  0.00    +0.000 A 
ENDBRANCH  13  15
ENDBRANCH   5  11
BRANCH   1  22
ATOM     22  O   UNL     1      -4.853  10.935  16.872  0.00  0.00    +0.000 OA
BRANCH  22  25
ATOM     23  C   UNL     1      -6.982  11.926  19.698  0.00  0.00    +0.000 A 
ATOM     24  C   UNL     1      -6.008  11.221  19.003  0.00  0.00    +0.000 A 
ATOM     25  C   UNL     1      -5.722  11.609  17.705  0.00  0.00    +0.000 A 
ATOM     26  C   UNL     1      -6.313  12.760  17.188  0.00  0.00    +0.000 A 
ATOM     27  C   UNL     1      -7.235  13.433  17.976  0.00  0.00    +0.000 A 
ATOM     28  N   UNL     1      -7.610  13.035  19.213  0.00  0.00    +0.000 NA
BRANCH  23  31
ATOM     29  C   UNL     1      -7.896  12.031  23.364  0.00  0.00    +0.000 C 
ATOM     30  N   UNL     1      -7.509  12.375  22.025  0.00  0.00    +0.000 N 
ATOM     31  C   UNL     1      -7.422  11.419  21.039  0.00  0.00    +0.000 C 
ATOM     32  O   UNL     1      -7.692  10.236  21.212  0.00  0.00    +0.000 OA
ATOM     33  H   UNL     1      -7.295  13.334  21.763  0.00  0.00    +0.000 HD
ENDBRANCH  23  31
ENDBRANCH  22  25
ENDBRANCH   1  22
TORSDOF 5
ENDMDL
MODEL 5
REMARK VINA RESULT:      -8.2      2.509      4.131
REMARK  Name = 
REMARK  6 active torsions:
REMARK  status: ('A' for Active; 'I' for Inactive)
REMARK    1  A    between atoms: C_1  and  N_2
REMARK    2  A    between atoms: C_3  and  C_5
REMARK    3  A    between atoms: C_7  and  O_8
REMARK    4  A    between atoms: O_8  and  C_9
REMARK    5  A    between atoms: C_13  and  C_14
REMARK    6  A    between atoms: N_16  and  C_17
REMARK                            x       y       z     vdW  Elec       q    Type
REMARK                         _______ _______ _______ _____ _____    ______ ____
ROOT
ATOM      1  C   UNL     1       5.859   5.353  16.648  0.00  0.00    +0.000 A 
ATOM      2  C   UNL     1       5.258   6.527  16.211  0.00  0.00    +0.000 A 
ATOM      3  C   UNL     1       4.221   7.105  16.949  0.00  0.00    +0.000 A 
ATOM      4  C   UNL     1       3.674   6.480  18.092  0.00  0.00    +0.000 A 
ATOM      5  C   UNL     1       2.596   7.002  18.876  0.00  0.00    +0.000 A 
ATOM      6  C   UNL     1       2.102   6.272  19.969  0.00  0.00    +0.000 A 
ATOM      7  C   UNL     1       2.670   5.052  20.324  0.00  0.00    +0.000 A 
ATOM      8  C   UNL     1       3.735   4.543  19.584  0.00  0.00    +0.000 A 
ATOM      9  C   UNL     1       4.245   5.234  18.477  0.00  0.00    +0.000 A 
ATOM     10  C   UNL     1       5.328   4.692  17.755  0.00  0.00    +0.000 A 
ENDROOT
BRANCH   5  11
ATOM     11  C   UNL     1       1.922   8.308  18.549  0.00  0.00    +0.000 C 
ATOM     12  O   UNL     1       1.838   8.672  17.383  0.00  0.00    +0.000 OA
ATOM     13  N   UNL     1       1.452   9.014  19.650  0.00  0.00    +0.000 N 
ATOM     14  H   UNL     1       1.720   8.673  20.563  0.00  0.00    +0.000 HD
BRANCH  13  15
ATOM     15  C   UNL     1       0.800  10.268  19.637  0.00  0.00    +0.000 A 
ATOM     16  C   UNL     1       1.337  11.422  19.064  0.00  0.00    +0.000 A 
ATOM     17  C   UNL     1       0.672  12.649  19.176  0.00  0.00    +0.000 A 
ATOM     18  C   UNL     1      -0.540  12.722  19.856  0.00  0.00    +0.000 A 
ATOM     19 CL   UNL     1      -1.323  14.241  20.056  0.00  0.00    +0.000 Cl
ATOM     20  C   UNL     1      -1.114  11.570  20.386  0.00  0.00    +0.000 A 
ATOM     21  C   UNL     1      -0.452  10.345  20.263  0.00  0.00    +0.000 A 
ENDBRANCH  13  15
ENDBRANCH   5  11
BRANCH   1  22
ATOM     22  O   UNL     1       6.953   4.772  16.038  0.00  0.00    +0.000 OA
BRANCH  22  25
ATOM     23  C   UNL     1       6.400   3.674  12.575  0.00  0.00    +0.000 A 
ATOM     24  C   UNL     1       6.202   3.763  13.946  0.00  0.00    +0.000 A 
ATOM     25  C   UNL     1       6.979   4.657  14.663  0.00  0.00    +0.000 A 
ATOM     26  C   UNL     1       7.831   5.523  13.981  0.00  0.00    +0.000 A 
ATOM     27  C   UNL     1       7.925   5.400  12.603  0.00  0.00    +0.000 A 
ATOM     28  N   UNL     1       7.252   4.478  11.876  0.00  0.00    +0.000 NA
BRANCH  23  31
ATOM     29  C   UNL     1       5.864   0.338  10.881  0.00  0.00    +0.000 C 
ATOM     30  N   UNL     1       6.410   1.444  11.616  0.00  0.00    +0.000 N 
ATOM     31  C   UNL     1       5.689   2.599  11.810  0.00  0.00    +0.000 C 
ATOM     32  O   UNL     1       4.542   2.760  11.408  0.00  0.00    +0.000 OA
ATOM     33  H   UNL     1       7.342   1.404  12.023  0.00  0.00    +0.000 HD
ENDBRANCH  23  31
ENDBRANCH  22  25
ENDBRANCH   1  22
TORSDOF 5
ENDMDL
MODEL 6
REMARK VINA RESULT:      -8.2      2.683      3.981
REMARK  Name = 
REMARK  6 active torsions:
REMARK  status: ('A' for Active; 'I' for Inactive)
REMARK    1  A    between atoms: C_1  and  N_2
REMARK    2  A    between atoms: C_3  and  C_5
REMARK    3  A    between atoms: C_7  and  O_8
REMARK    4  A    between atoms: O_8  and  C_9
REMARK    5  A    between atoms: C_13  and  C_14
REMARK    6  A    between atoms: N_16  and  C_17
REMARK                            x       y       z     vdW  Elec       q    Type
REMARK                         _______ _______ _______ _____ _____    ______ ____
ROOT
ATOM      1  C   UNL     1       5.430   4.882  17.012  0.00  0.00    +0.000 A 
ATOM      2  C   UNL     1       5.012   6.149  16.623  0.00  0.00    +0.000 A 
ATOM      3  C   UNL     1       4.066   6.843  17.383  0.00  0.00    +0.000 A 
ATOM      4  C   UNL     1       3.424   6.260  18.499  0.00  0.00    +0.000 A 
ATOM      5  C   UNL     1       2.430   6.903  19.302  0.00  0.00    +0.000 A 
ATOM      6  C   UNL     1       1.826   6.210  20.364  0.00  0.00    +0.000 A 
ATOM      7  C   UNL     1       2.205   4.907  20.668  0.00  0.00    +0.000 A 
ATOM      8  C   UNL     1       3.188   4.276  19.909  0.00  0.00    +0.000 A 
ATOM      9  C   UNL     1       3.803   4.929  18.832  0.00  0.00    +0.000 A 
ATOM     10  C   UNL     1       4.798   4.263  18.090  0.00  0.00    +0.000 A 
ENDROOT
BRANCH   5  11
ATOM     11  C   UNL     1       1.958   8.307  19.029  0.00  0.00    +0.000 C 
ATOM     12  O   UNL     1       2.395   8.916  18.061  0.00  0.00    +0.000 OA
ATOM     13  N   UNL     1       1.044   8.805  19.949  0.00  0.00    +0.000 N 
ATOM     14  H   UNL     1       0.883   8.254  20.781  0.00  0.00    +0.000 HD
BRANCH  13  15
ATOM     15  C   UNL     1       0.453  10.089  19.946  0.00  0.00    +0.000 A 
ATOM     16  C   UNL     1      -0.688  10.423  19.214  0.00  0.00    +0.000 A 
ATOM     17  C   UNL     1      -1.157  11.742  19.188  0.00  0.00    +0.000 A 
ATOM     18  C   UNL     1      -0.489  12.730  19.903  0.00  0.00    +0.000 A 
ATOM     19 CL   UNL     1      -1.022  14.363  19.815  0.00  0.00    +0.000 Cl
ATOM     20  C   UNL     1       0.618  12.403  20.681  0.00  0.00    +0.000 A 
ATOM     21  C   UNL     1       1.078  11.083  20.713  0.00  0.00    +0.000 A 
ENDBRANCH  13  15
ENDBRANCH   5  11
BRANCH   1  22
ATOM     22  O   UNL     1       6.431   4.171  16.380  0.00  0.00    +0.000 OA
BRANCH  22  25
ATOM     23  C   UNL     1       6.015   3.742  12.754  0.00  0.00    +0.000 A 
ATOM     24  C   UNL     1       5.708   3.659  14.105  0.00  0.00    +0.000 A 
ATOM     25  C   UNL     1       6.564   4.264  15.009  0.00  0.00    +0.000 A 
ATOM     26  C   UNL     1       7.619   5.041  14.538  0.00  0.00    +0.000 A 
ATOM     27  C   UNL     1       7.819   5.113  13.167  0.00  0.00    +0.000 A 
ATOM     28  N   UNL     1       7.060   4.462  12.255  0.00  0.00    +0.000 NA
BRANCH  23  31
ATOM     29  C   UNL     1       3.196   2.970  10.357  0.00  0.00    +0.000 C 
ATOM     30  N   UNL     1       4.087   3.608  11.285  0.00  0.00    +0.000 N 
ATOM     31  C   UNL     1       5.194   2.957  11.776  0.00  0.00    +0.000 C 
ATOM     32  O   UNL     1       5.518   1.821  11.445  0.00  0.00    +0.000 OA
ATOM     33  H   UNL     1       3.931   4.563  11.601  0.00  0.00    +0.000 HD
ENDBRANCH  23  31
ENDBRANCH  22  25
ENDBRANCH   1  22
TORSDOF 5
ENDMDL
MODEL 7
REMARK VINA RESULT:      -8.1      2.570      4.161
REMARK  Name = 
REMARK  6 active torsions:
REMARK  status: ('A' for Active; 'I' for Inactive)
REMARK    1  A    between atoms: C_1  and  N_2
REMARK    2  A    between atoms: C_3  and  C_5
REMARK    3  A    between atoms: C_7  and  O_8
REMARK    4  A    between atoms: O_8  and  C_9
REMARK    5  A    between atoms: C_13  and  C_14
REMARK    6  A    between atoms: N_16  and  C_17
REMARK                            x       y       z     vdW  Elec       q    Type
REMARK                         _______ _______ _______ _____ _____    ______ ____
ROOT
ATOM      1  C   UNL     1       5.507   4.668  17.134  0.00  0.00    +0.000 A 
ATOM      2  C   UNL     1       5.283   6.037  17.213  0.00  0.00    +0.000 A 
ATOM      3  C   UNL     1       4.250   6.537  18.011  0.00  0.00    +0.000 A 
ATOM      4  C   UNL     1       3.337   5.688  18.677  0.00  0.00    +0.000 A 
ATOM      5  C   UNL     1       2.243   6.133  19.487  0.00  0.00    +0.000 A 
ATOM      6  C   UNL     1       1.371   5.198  20.066  0.00  0.00    +0.000 A 
ATOM      7  C   UNL     1       1.572   3.833  19.889  0.00  0.00    +0.000 A 
ATOM      8  C   UNL     1       2.646   3.385  19.124  0.00  0.00    +0.000 A 
ATOM      9  C   UNL     1       3.530   4.287  18.516  0.00  0.00    +0.000 A 
ATOM     10  C   UNL     1       4.609   3.798  17.753  0.00  0.00    +0.000 A 
ENDROOT
BRANCH   5  11
ATOM     11  C   UNL     1       1.952   7.592  19.715  0.00  0.00    +0.000 C 
ATOM     12  O   UNL     1       1.944   8.037  20.856  0.00  0.00    +0.000 OA
ATOM     13  N   UNL     1       1.694   8.324  18.563  0.00  0.00    +0.000 N 
ATOM     14  H   UNL     1       1.585   7.803  17.703  0.00  0.00    +0.000 HD
BRANCH  13  15
ATOM     15  C   UNL     1       1.376   9.699  18.485  0.00  0.00    +0.000 A 
ATOM     16  C   UNL     1       2.308  10.701  18.208  0.00  0.00    +0.000 A 
ATOM     17  C   UNL     1       1.935  12.050  18.243  0.00  0.00    +0.000 A 
ATOM     18  C   UNL     1       0.623  12.399  18.547  0.00  0.00    +0.000 A 
ATOM     19 CL   UNL     1       0.179  14.058  18.660  0.00  0.00    +0.000 Cl
ATOM     20  C   UNL     1      -0.330  11.410  18.773  0.00  0.00    +0.000 A 
ATOM     21  C   UNL     1       0.044  10.063  18.727  0.00  0.00    +0.000 A 
ENDBRANCH  13  15
ENDBRANCH   5  11
BRANCH   1  22
ATOM     22  O   UNL     1       6.564   4.096  16.454  0.00  0.00    +0.000 OA
BRANCH  22  25
ATOM     23  C   UNL     1       6.045   3.776  12.829  0.00  0.00    +0.000 A 
ATOM     24  C   UNL     1       5.789   3.630  14.186  0.00  0.00    +0.000 A 
ATOM     25  C   UNL     1       6.645   4.244  15.084  0.00  0.00    +0.000 A 
ATOM     26  C   UNL     1       7.645   5.089  14.607  0.00  0.00    +0.000 A 
ATOM     27  C   UNL     1       7.794   5.220  13.234  0.00  0.00    +0.000 A 
ATOM     28  N   UNL     1       7.037   4.564  12.324  0.00  0.00    +0.000 NA
BRANCH  23  31
ATOM     29  C   UNL     1       3.230   2.985  10.434  0.00  0.00    +0.000 C 
ATOM     30  N   UNL     1       4.116   3.629  11.362  0.00  0.00    +0.000 N 
ATOM     31  C   UNL     1       5.230   2.986  11.850  0.00  0.00    +0.000 C 
ATOM     32  O   UNL     1       5.564   1.855  11.515  0.00  0.00    +0.000 OA
ATOM     33  H   UNL     1       3.952   4.581  11.682  0.00  0.00    +0.000 HD
ENDBRANCH  23  31
ENDBRANCH  22  25
ENDBRANCH   1  22
TORSDOF 5
ENDMDL
MODEL 8
REMARK VINA RESULT:      -8.1      1.478      2.630
REMARK  Name = 
REMARK  6 active torsions:
REMARK  status: ('A' for Active; 'I' for Inactive)
REMARK    1  A    between atoms: C_1  and  N_2
REMARK    2  A    between atoms: C_3  and  C_5
REMARK    3  A    between atoms: C_7  and  O_8
REMARK    4  A    between atoms: O_8  and  C_9
REMARK    5  A    between atoms: C_13  and  C_14
REMARK    6  A    between atoms: N_16  and  C_17
REMARK                            x       y       z     vdW  Elec       q    Type
REMARK                         _______ _______ _______ _____ _____    ______ ____
ROOT
ATOM      1  C   UNL     1       2.565   6.660  18.182  0.00  0.00    +0.000 A 
ATOM      2  C   UNL     1       2.293   7.775  17.399  0.00  0.00    +0.000 A 
ATOM      3  C   UNL     1       1.796   8.943  17.984  0.00  0.00    +0.000 A 
ATOM      4  C   UNL     1       1.453   9.011  19.353  0.00  0.00    +0.000 A 
ATOM      5  C   UNL     1       0.916  10.164  20.009  0.00  0.00    +0.000 A 
ATOM      6  C   UNL     1       0.569  10.103  21.368  0.00  0.00    +0.000 A 
ATOM      7  C   UNL     1       0.771   8.938  22.102  0.00  0.00    +0.000 A 
ATOM      8  C   UNL     1       1.315   7.815  21.482  0.00  0.00    +0.000 A 
ATOM      9  C   UNL     1       1.658   7.831  20.123  0.00  0.00    +0.000 A 
ATOM     10  C   UNL     1       2.212   6.679  19.531  0.00  0.00    +0.000 A 
ENDROOT
BRANCH   5  11
ATOM     11  C   UNL     1       0.658  11.457  19.282  0.00  0.00    +0.000 C 
ATOM     12  O   UNL     1      -0.153  11.485  18.365  0.00  0.00    +0.000 OA
ATOM     13  N   UNL     1       1.408  12.537  19.728  0.00  0.00    +0.000 N 
ATOM     14  H   UNL     1       2.147  12.342  20.389  0.00  0.00    +0.000 HD
BRANCH  13  15
ATOM     15  C   UNL     1       1.381  13.856  19.218  0.00  0.00    +0.000 A 
ATOM     16  C   UNL     1       2.444  14.451  18.536  0.00  0.00    +0.000 A 
ATOM     17  C   UNL     1       2.377  15.794  18.146  0.00  0.00    +0.000 A 
ATOM     18  C   UNL     1       1.241  16.543  18.431  0.00  0.00    +0.000 A 
ATOM     19 CL   UNL     1       1.186  18.212  18.016  0.00  0.00    +0.000 Cl
ATOM     20  C   UNL     1       0.152  15.950  19.063  0.00  0.00    +0.000 A 
ATOM     21  C   UNL     1       0.218  14.605  19.442  0.00  0.00    +0.000 A 
ENDBRANCH  13  15
ENDBRANCH   5  11
BRANCH   1  22
ATOM     22  O   UNL     1       3.151   5.505  17.704  0.00  0.00    +0.000 OA
BRANCH  22  25
ATOM     23  C   UNL     1       6.732   6.307  17.500  0.00  0.00    +0.000 A 
ATOM     24  C   UNL     1       5.434   6.321  17.992  0.00  0.00    +0.000 A 
ATOM     25  C   UNL     1       4.493   5.511  17.380  0.00  0.00    +0.000 A 
ATOM     26  C   UNL     1       4.898   4.619  16.390  0.00  0.00    +0.000 A 
ATOM     27  C   UNL     1       6.228   4.635  15.998  0.00  0.00    +0.000 A 
ATOM     28  N   UNL     1       7.159   5.475  16.507  0.00  0.00    +0.000 NA
BRANCH  23  31
ATOM     29  C   UNL     1       8.501   9.617  17.945  0.00  0.00    +0.000 C 
ATOM     30  N   UNL     1       7.607   8.571  17.536  0.00  0.00    +0.000 N 
ATOM     31  C   UNL     1       7.721   7.296  18.039  0.00  0.00    +0.000 C 
ATOM     32  O   UNL     1       8.552   6.967  18.878  0.00  0.00    +0.000 OA
ATOM     33  H   UNL     1       6.858   8.742  16.869  0.00  0.00    +0.000 HD
ENDBRANCH  23  31
ENDBRANCH  22  25
ENDBRANCH   1  22
TORSDOF 5
ENDMDL
MODEL 9
REMARK VINA RESULT:      -8.1      5.738     11.059
REMARK  Name = 
REMARK  6 active torsions:
REMARK  status: ('A' for Active; 'I' for Inactive)
REMARK    1  A    between atoms: C_1  and  N_2
REMARK    2  A    between atoms: C_3  and  C_5
REMARK    3  A    between atoms: C_7  and  O_8
REMARK    4  A    between atoms: O_8  and  C_9
REMARK    5  A    between atoms: C_13  and  C_14
REMARK    6  A    between atoms: N_16  and  C_17
REMARK                            x       y       z     vdW  Elec       q    Type
REMARK                         _______ _______ _______ _____ _____    ______ ____
ROOT
ATOM      1  C   UNL     1      -3.608  11.346  18.102  0.00  0.00    +0.000 A 
ATOM      2  C   UNL     1      -2.900  10.306  17.512  0.00  0.00    +0.000 A 
ATOM      3  C   UNL     1      -1.558  10.093  17.839  0.00  0.00    +0.000 A 
ATOM      4  C   UNL     1      -0.842  10.971  18.685  0.00  0.00    +0.000 A 
ATOM      5  C   UNL     1       0.537  10.827  19.038  0.00  0.00    +0.000 A 
ATOM      6  C   UNL     1       1.159  11.786  19.854  0.00  0.00    +0.000 A 
ATOM      7  C   UNL     1       0.440  12.867  20.353  0.00  0.00    +0.000 A 
ATOM      8  C   UNL     1      -0.909  13.007  20.037  0.00  0.00    +0.000 A 
ATOM      9  C   UNL     1      -1.561  12.080  19.213  0.00  0.00    +0.000 A 
ATOM     10  C   UNL     1      -2.929  12.250  18.918  0.00  0.00    +0.000 A 
ENDROOT
BRANCH   5  11
ATOM     11  C   UNL     1       1.385   9.691  18.528  0.00  0.00    +0.000 C 
ATOM     12  O   UNL     1       1.872   9.755  17.407  0.00  0.00    +0.000 OA
ATOM     13  N   UNL     1       1.526   8.627  19.410  0.00  0.00    +0.000 N 
ATOM     14  H   UNL     1       0.949   8.638  20.240  0.00  0.00    +0.000 HD
BRANCH  13  15
ATOM     15  C   UNL     1       2.247   7.432  19.186  0.00  0.00    +0.000 A 
ATOM     16  C   UNL     1       2.199   6.322  20.032  0.00  0.00    +0.000 A 
ATOM     17  C   UNL     1       3.017   5.210  19.794  0.00  0.00    +0.000 A 
ATOM     18  C   UNL     1       3.878   5.202  18.702  0.00  0.00    +0.000 A 
ATOM     19 CL   UNL     1       4.934   3.868  18.450  0.00  0.00    +0.000 Cl
ATOM     20  C   UNL     1       3.898   6.279  17.820  0.00  0.00    +0.000 A 
ATOM     21  C   UNL     1       3.073   7.384  18.055  0.00  0.00    +0.000 A 
ENDBRANCH  13  15
ENDBRANCH   5  11
BRANCH   1  22
ATOM     22  O   UNL     1      -4.959  11.565  17.914  0.00  0.00    +0.000 OA
BRANCH  22  25
ATOM     23  C   UNL     1      -7.050  11.491  20.936  0.00  0.00    +0.000 A 
ATOM     24  C   UNL     1      -6.231  12.021  19.947  0.00  0.00    +0.000 A 
ATOM     25  C   UNL     1      -5.847  11.196  18.904  0.00  0.00    +0.000 A 
ATOM     26  C   UNL     1      -6.392   9.917  18.806  0.00  0.00    +0.000 A 
ATOM     27  C   UNL     1      -7.246   9.490  19.812  0.00  0.00    +0.000 A 
ATOM     28  N   UNL     1      -7.574  10.233  20.896  0.00  0.00    +0.000 NA
BRANCH  23  31
ATOM     29  C   UNL     1      -7.917  14.549  22.981  0.00  0.00    +0.000 C 
ATOM     30  N   UNL     1      -7.640  13.635  21.909  0.00  0.00    +0.000 N 
ATOM     31  C   UNL     1      -7.339  12.315  22.154  0.00  0.00    +0.000 C 
ATOM     32  O   UNL     1      -7.316  11.820  23.275  0.00  0.00    +0.000 OA
ATOM     33  H   UNL     1      -7.665  13.933  20.936  0.00  0.00    +0.000 HD
ENDBRANCH  23  31
ENDBRANCH  22  25
ENDBRANCH   1  22
TORSDOF 5
ENDMDL
