MODEL 1
REMARK VINA RESULT:      -9.4      0.000      0.000
REMARK  Name = 
REMARK  5 active torsions:
REMARK  status: ('A' for Active; 'I' for Inactive)
REMARK    1  A    between atoms: C_9  and  C_10
REMARK    2  A    between atoms: C_13  and  N_14
REMARK    3  A    between atoms: C_15  and  C_17
REMARK    4  A    between atoms: C_17  and  C_18
REMARK    5  A    between atoms: N_20  and  C_21
REMARK                            x       y       z     vdW  Elec       q    Type
REMARK                         _______ _______ _______ _____ _____    ______ ____
ROOT
ATOM      1  C   UNL     1       0.210  10.162  19.557  0.00  0.00    +0.000 A 
ATOM      2  C   UNL     1       0.782  10.243  18.278  0.00  0.00    +0.000 A 
ATOM      3  C   UNL     1       1.744   9.328  17.843  0.00  0.00    +0.000 A 
ATOM      4  C   UNL     1       2.212   8.325  18.687  0.00  0.00    +0.000 A 
ATOM      5  C   UNL     1       1.658   8.219  19.962  0.00  0.00    +0.000 A 
ATOM      6  C   UNL     1       0.656   9.115  20.378  0.00  0.00    +0.000 A 
ENDROOT
BRANCH   1  15
ATOM      7  N   UNL     1      -2.174   9.830  17.159  0.00  0.00    +0.000 N 
ATOM      8  C   UNL     1      -2.646  10.811  17.946  0.00  0.00    +0.000 A 
ATOM      9  N   UNL     1      -3.786  11.424  17.641  0.00  0.00    +0.000 NA
ATOM     10  N   UNL     1      -3.956  12.292  18.641  0.00  0.00    +0.000 N 
ATOM     11  C   UNL     1      -2.975  12.259  19.593  0.00  0.00    +0.000 A 
ATOM     12  C   UNL     1      -2.848  12.998  20.773  0.00  0.00    +0.000 A 
ATOM     13  C   UNL     1      -1.726  12.761  21.552  0.00  0.00    +0.000 A 
ATOM     14  C   UNL     1      -0.765  11.841  21.140  0.00  0.00    +0.000 A 
ATOM     15  C   UNL     1      -0.878  11.089  19.938  0.00  0.00    +0.000 A 
ATOM     16  C   UNL     1      -2.049  11.305  19.154  0.00  0.00    +0.000 A 
ATOM     17  H   UNL     1      -2.815   9.507  16.442  0.00  0.00    +0.000 HD
ATOM     18  H   UNL     1      -1.625   9.086  17.571  0.00  0.00    +0.000 HD
ATOM     19  H   UNL     1      -4.776  12.888  18.624  0.00  0.00    +0.000 HD
ENDBRANCH   1  15
BRANCH   4  20
ATOM     20  N   UNL     1       3.196   7.395  18.287  0.00  0.00    +0.000 N 
ATOM     21  C   UNL     1       3.040   6.025  18.310  0.00  0.00    +0.000 C 
ATOM     22  O   UNL     1       2.020   5.397  18.565  0.00  0.00    +0.000 OA
ATOM     23  H   UNL     1       4.083   7.765  17.967  0.00  0.00    +0.000 HD
BRANCH  21  24
ATOM     24  C   UNL     1       4.269   5.230  18.037  0.00  0.00    +0.000 C 
ATOM     25  C   UNL     1       5.199   5.010  19.236  0.00  0.00    +0.000 C 
ATOM     26  C   UNL     1       4.457   3.850  18.656  0.00  0.00    +0.000 C 
BRANCH  24  27
ATOM     27  C   UNL     1       4.891   5.493  16.704  0.00  0.00    +0.000 C 
ATOM     28  O   UNL     1       4.998   6.653  16.330  0.00  0.00    +0.000 OA
ATOM     29  N   UNL     1       5.286   4.350  16.031  0.00  0.00    +0.000 N 
ATOM     30  H   UNL     1       5.076   3.463  16.483  0.00  0.00    +0.000 HD
BRANCH  29  31
ATOM     31  C   UNL     1       5.916   4.298  14.774  0.00  0.00    +0.000 A 
ATOM     32  C   UNL     1       7.096   4.999  14.481  0.00  0.00    +0.000 A 
ATOM     33  C   UNL     1       7.658   4.954  13.202  0.00  0.00    +0.000 A 
ATOM     34  C   UNL     1       7.045   4.203  12.213  0.00  0.00    +0.000 A 
ATOM     35  F   UNL     1       7.568   4.182  10.979  0.00  0.00    +0.000 F 
ATOM     36  C   UNL     1       5.891   3.479  12.497  0.00  0.00    +0.000 A 
ATOM     37  F   UNL     1       5.297   2.759  11.541  0.00  0.00    +0.000 F 
ATOM     38  C   UNL     1       5.330   3.514  13.776  0.00  0.00    +0.000 A 
ENDBRANCH  29  31
ENDBRANCH  24  27
ENDBRANCH  21  24
ENDBRANCH   4  20
TORSDOF 5
ENDMDL
MODEL 2
REMARK VINA RESULT:      -9.4      0.529      1.190
REMARK  Name = 
REMARK  5 active torsions:
REMARK  status: ('A' for Active; 'I' for Inactive)
REMARK    1  A    between atoms: C_9  and  C_10
REMARK    2  A    between atoms: C_13  and  N_14
REMARK    3  A    between atoms: C_15  and  C_17
REMARK    4  A    between atoms: C_17  and  C_18
REMARK    5  A    between atoms: N_20  and  C_21
REMARK                            x       y       z     vdW  Elec       q    Type
REMARK                         _______ _______ _______ _____ _____    ______ ____
ROOT
ATOM      1  C   UNL     1       0.100  10.101  19.485  0.00  0.00    +0.000 A 
ATOM      2  C   UNL     1       0.556  10.082  18.157  0.00  0.00    +0.000 A 
ATOM      3  C   UNL     1       1.535   9.184  17.727  0.00  0.00    +0.000 A 
ATOM      4  C   UNL     1       2.139   8.301  18.618  0.00  0.00    +0.000 A 
ATOM      5  C   UNL     1       1.703   8.296  19.943  0.00  0.00    +0.000 A 
ATOM      6  C   UNL     1       0.683   9.171  20.360  0.00  0.00    +0.000 A 
ENDROOT
BRANCH   1  15
ATOM      7  N   UNL     1      -2.232   9.800  17.034  0.00  0.00    +0.000 N 
ATOM      8  C   UNL     1      -2.735  10.750  17.839  0.00  0.00    +0.000 A 
ATOM      9  N   UNL     1      -3.879  11.353  17.531  0.00  0.00    +0.000 NA
ATOM     10  N   UNL     1      -4.083  12.188  18.552  0.00  0.00    +0.000 N 
ATOM     11  C   UNL     1      -3.119  12.144  19.521  0.00  0.00    +0.000 A 
ATOM     12  C   UNL     1      -3.026  12.850  20.724  0.00  0.00    +0.000 A 
ATOM     13  C   UNL     1      -1.915  12.609  21.517  0.00  0.00    +0.000 A 
ATOM     14  C   UNL     1      -0.931  11.717  21.097  0.00  0.00    +0.000 A 
ATOM     15  C   UNL     1      -1.010  10.998  19.872  0.00  0.00    +0.000 A 
ATOM     16  C   UNL     1      -2.169  11.218  19.073  0.00  0.00    +0.000 A 
ATOM     17  H   UNL     1      -2.854   9.488  16.296  0.00  0.00    +0.000 HD
ATOM     18  H   UNL     1      -1.679   9.053  17.434  0.00  0.00    +0.000 HD
ATOM     19  H   UNL     1      -4.912  12.771  18.537  0.00  0.00    +0.000 HD
ENDBRANCH   1  15
BRANCH   4  20
ATOM     20  N   UNL     1       3.144   7.393  18.222  0.00  0.00    +0.000 N 
ATOM     21  C   UNL     1       2.996   6.022  18.186  0.00  0.00    +0.000 C 
ATOM     22  O   UNL     1       1.972   5.379  18.377  0.00  0.00    +0.000 OA
ATOM     23  H   UNL     1       4.040   7.780  17.953  0.00  0.00    +0.000 HD
BRANCH  21  24
ATOM     24  C   UNL     1       4.241   5.245  17.932  0.00  0.00    +0.000 C 
ATOM     25  C   UNL     1       5.162   5.049  19.143  0.00  0.00    +0.000 C 
ATOM     26  C   UNL     1       4.444   3.873  18.564  0.00  0.00    +0.000 C 
BRANCH  24  27
ATOM     27  C   UNL     1       4.872   5.508  16.604  0.00  0.00    +0.000 C 
ATOM     28  O   UNL     1       5.075   6.669  16.275  0.00  0.00    +0.000 OA
ATOM     29  N   UNL     1       5.163   4.364  15.882  0.00  0.00    +0.000 N 
ATOM     30  H   UNL     1       4.882   3.480  16.301  0.00  0.00    +0.000 HD
BRANCH  29  31
ATOM     31  C   UNL     1       5.777   4.309  14.616  0.00  0.00    +0.000 A 
ATOM     32  C   UNL     1       5.263   3.557  13.550  0.00  0.00    +0.000 A 
ATOM     33  C   UNL     1       5.936   3.495  12.326  0.00  0.00    +0.000 A 
ATOM     34  C   UNL     1       7.123   4.191  12.163  0.00  0.00    +0.000 A 
ATOM     35  F   UNL     1       7.782   4.110  11.000  0.00  0.00    +0.000 F 
ATOM     36  C   UNL     1       7.628   4.965  13.204  0.00  0.00    +0.000 A 
ATOM     37  F   UNL     1       8.776   5.632  13.048  0.00  0.00    +0.000 F 
ATOM     38  C   UNL     1       6.956   5.036  14.425  0.00  0.00    +0.000 A 
ENDBRANCH  29  31
ENDBRANCH  24  27
ENDBRANCH  21  24
ENDBRANCH   4  20
TORSDOF 5
ENDMDL
MODEL 3
REMARK VINA RESULT:      -9.3      1.420      1.676
REMARK  Name = 
REMARK  5 active torsions:
REMARK  status: ('A' for Active; 'I' for Inactive)
REMARK    1  A    between atoms: C_9  and  C_10
REMARK    2  A    between atoms: C_13  and  N_14
REMARK    3  A    between atoms: C_15  and  C_17
REMARK    4  A    between atoms: C_17  and  C_18
REMARK    5  A    between atoms: N_20  and  C_21
REMARK                            x       y       z     vdW  Elec       q    Type
REMARK                         _______ _______ _______ _____ _____    ______ ____
ROOT
ATOM      1  C   UNL     1       0.706   9.240  20.411  0.00  0.00    +0.000 A 
ATOM      2  C   UNL     1       1.431   9.224  19.209  0.00  0.00    +0.000 A 
ATOM      3  C   UNL     1       2.191   8.119  18.823  0.00  0.00    +0.000 A 
ATOM      4  C   UNL     1       2.302   7.002  19.646  0.00  0.00    +0.000 A 
ATOM      5  C   UNL     1       1.589   6.989  20.844  0.00  0.00    +0.000 A 
ATOM      6  C   UNL     1       0.787   8.086  21.207  0.00  0.00    +0.000 A 
ENDROOT
BRANCH   1  15
ATOM      7  N   UNL     1      -0.964   9.964  17.543  0.00  0.00    +0.000 N 
ATOM      8  C   UNL     1      -1.357  10.925  18.393  0.00  0.00    +0.000 A 
ATOM      9  N   UNL     1      -2.179  11.887  17.983  0.00  0.00    +0.000 NA
ATOM     10  N   UNL     1      -2.378  12.623  19.079  0.00  0.00    +0.000 N 
ATOM     11  C   UNL     1      -1.725  12.170  20.192  0.00  0.00    +0.000 A 
ATOM     12  C   UNL     1      -1.727  12.671  21.497  0.00  0.00    +0.000 A 
ATOM     13  C   UNL     1      -0.950  12.006  22.433  0.00  0.00    +0.000 A 
ATOM     14  C   UNL     1      -0.185  10.904  22.058  0.00  0.00    +0.000 A 
ATOM     15  C   UNL     1      -0.168  10.390  20.732  0.00  0.00    +0.000 A 
ATOM     16  C   UNL     1      -0.994  11.050  19.776  0.00  0.00    +0.000 A 
ATOM     17  H   UNL     1      -1.454   9.947  16.654  0.00  0.00    +0.000 HD
ATOM     18  H   UNL     1      -0.754   9.040  17.901  0.00  0.00    +0.000 HD
ATOM     19  H   UNL     1      -2.982  13.434  19.009  0.00  0.00    +0.000 HD
ENDBRANCH   1  15
BRANCH   4  20
ATOM     20  N   UNL     1       3.077   5.875  19.296  0.00  0.00    +0.000 N 
ATOM     21  C   UNL     1       2.568   4.618  19.042  0.00  0.00    +0.000 C 
ATOM     22  O   UNL     1       1.390   4.294  18.968  0.00  0.00    +0.000 OA
ATOM     23  H   UNL     1       4.080   6.001  19.235  0.00  0.00    +0.000 HD
BRANCH  21  24
ATOM     24  C   UNL     1       3.576   3.533  18.887  0.00  0.00    +0.000 C 
ATOM     25  C   UNL     1       3.796   2.649  20.122  0.00  0.00    +0.000 C 
ATOM     26  C   UNL     1       3.151   2.069  18.904  0.00  0.00    +0.000 C 
BRANCH  24  27
ATOM     27  C   UNL     1       4.769   3.909  18.071  0.00  0.00    +0.000 C 
ATOM     28  O   UNL     1       5.822   4.141  18.650  0.00  0.00    +0.000 OA
ATOM     29  N   UNL     1       4.529   3.951  16.708  0.00  0.00    +0.000 N 
ATOM     30  H   UNL     1       3.573   3.768  16.411  0.00  0.00    +0.000 HD
BRANCH  29  31
ATOM     31  C   UNL     1       5.469   4.251  15.704  0.00  0.00    +0.000 A 
ATOM     32  C   UNL     1       6.474   5.217  15.863  0.00  0.00    +0.000 A 
ATOM     33  C   UNL     1       7.354   5.515  14.819  0.00  0.00    +0.000 A 
ATOM     34  C   UNL     1       7.234   4.844  13.614  0.00  0.00    +0.000 A 
ATOM     35  F   UNL     1       8.060   5.148  12.603  0.00  0.00    +0.000 F 
ATOM     36  C   UNL     1       6.261   3.863  13.452  0.00  0.00    +0.000 A 
ATOM     37  F   UNL     1       6.143   3.219  12.287  0.00  0.00    +0.000 F 
ATOM     38  C   UNL     1       5.384   3.556  14.495  0.00  0.00    +0.000 A 
ENDBRANCH  29  31
ENDBRANCH  24  27
ENDBRANCH  21  24
ENDBRANCH   4  20
TORSDOF 5
ENDMDL
MODEL 4
REMARK VINA RESULT:      -9.2      6.097     11.316
REMARK  Name = 
REMARK  5 active torsions:
REMARK  status: ('A' for Active; 'I' for Inactive)
REMARK    1  A    between atoms: C_9  and  C_10
REMARK    2  A    between atoms: C_13  and  N_14
REMARK    3  A    between atoms: C_15  and  C_17
REMARK    4  A    between atoms: C_17  and  C_18
REMARK    5  A    between atoms: N_20  and  C_21
REMARK                            x       y       z     vdW  Elec       q    Type
REMARK                         _______ _______ _______ _____ _____    ______ ____
ROOT
ATOM      1  C   UNL     1       2.016   6.651  19.808  0.00  0.00    +0.000 A 
ATOM      2  C   UNL     1       1.468   7.437  20.834  0.00  0.00    +0.000 A 
ATOM      3  C   UNL     1       1.154   8.783  20.642  0.00  0.00    +0.000 A 
ATOM      4  C   UNL     1       1.423   9.417  19.432  0.00  0.00    +0.000 A 
ATOM      5  C   UNL     1       1.964   8.660  18.394  0.00  0.00    +0.000 A 
ATOM      6  C   UNL     1       2.235   7.291  18.578  0.00  0.00    +0.000 A 
ENDROOT
BRANCH   1  15
ATOM      7  N   UNL     1       5.262   6.078  18.986  0.00  0.00    +0.000 N 
ATOM      8  C   UNL     1       4.782   4.855  19.264  0.00  0.00    +0.000 A 
ATOM      9  N   UNL     1       5.558   3.784  19.127  0.00  0.00    +0.000 NA
ATOM     10  N   UNL     1       4.776   2.774  19.519  0.00  0.00    +0.000 N 
ATOM     11  C   UNL     1       3.523   3.150  19.917  0.00  0.00    +0.000 A 
ATOM     12  C   UNL     1       2.469   2.373  20.406  0.00  0.00    +0.000 A 
ATOM     13  C   UNL     1       1.290   3.030  20.723  0.00  0.00    +0.000 A 
ATOM     14  C   UNL     1       1.176   4.403  20.527  0.00  0.00    +0.000 A 
ATOM     15  C   UNL     1       2.237   5.205  20.023  0.00  0.00    +0.000 A 
ATOM     16  C   UNL     1       3.462   4.536  19.730  0.00  0.00    +0.000 A 
ATOM     17  H   UNL     1       6.264   6.122  18.829  0.00  0.00    +0.000 HD
ATOM     18  H   UNL     1       4.900   6.879  19.489  0.00  0.00    +0.000 HD
ATOM     19  H   UNL     1       5.159   1.836  19.498  0.00  0.00    +0.000 HD
ENDBRANCH   1  15
BRANCH   4  20
ATOM     20  N   UNL     1       1.136  10.781  19.210  0.00  0.00    +0.000 N 
ATOM     21  C   UNL     1       0.986  11.726  20.205  0.00  0.00    +0.000 C 
ATOM     22  O   UNL     1       1.176  11.579  21.405  0.00  0.00    +0.000 OA
ATOM     23  H   UNL     1       1.026  11.083  18.250  0.00  0.00    +0.000 HD
BRANCH  21  24
ATOM     24  C   UNL     1       0.489  13.058  19.760  0.00  0.00    +0.000 C 
ATOM     25  C   UNL     1       1.565  14.129  19.541  0.00  0.00    +0.000 C 
ATOM     26  C   UNL     1       0.816  13.584  18.367  0.00  0.00    +0.000 C 
BRANCH  24  27
ATOM     27  C   UNL     1      -0.802  13.475  20.384  0.00  0.00    +0.000 C 
ATOM     28  O   UNL     1      -1.160  14.639  20.261  0.00  0.00    +0.000 OA
ATOM     29  N   UNL     1      -1.461  12.456  21.049  0.00  0.00    +0.000 N 
ATOM     30  H   UNL     1      -0.988  11.557  21.083  0.00  0.00    +0.000 HD
BRANCH  29  31
ATOM     31  C   UNL     1      -2.702  12.556  21.707  0.00  0.00    +0.000 A 
ATOM     32  C   UNL     1      -3.911  12.777  21.030  0.00  0.00    +0.000 A 
ATOM     33  C   UNL     1      -5.111  12.917  21.732  0.00  0.00    +0.000 A 
ATOM     34  C   UNL     1      -5.108  12.831  23.114  0.00  0.00    +0.000 A 
ATOM     35  F   UNL     1      -6.254  12.992  23.789  0.00  0.00    +0.000 F 
ATOM     36  C   UNL     1      -3.921  12.582  23.797  0.00  0.00    +0.000 A 
ATOM     37  F   UNL     1      -3.917  12.505  25.131  0.00  0.00    +0.000 F 
ATOM     38  C   UNL     1      -2.720  12.434  23.099  0.00  0.00    +0.000 A 
ENDBRANCH  29  31
ENDBRANCH  24  27
ENDBRANCH  21  24
ENDBRANCH   4  20
TORSDOF 5
ENDMDL
MODEL 5
REMARK VINA RESULT:      -9.2      5.972     11.424
REMARK  Name = 
REMARK  5 active torsions:
REMARK  status: ('A' for Active; 'I' for Inactive)
REMARK    1  A    between atoms: C_9  and  C_10
REMARK    2  A    between atoms: C_13  and  N_14
REMARK    3  A    between atoms: C_15  and  C_17
REMARK    4  A    between atoms: C_17  and  C_18
REMARK    5  A    between atoms: N_20  and  C_21
REMARK                            x       y       z     vdW  Elec       q    Type
REMARK                         _______ _______ _______ _____ _____    ______ ____
ROOT
ATOM      1  C   UNL     1       2.156   6.710  19.802  0.00  0.00    +0.000 A 
ATOM      2  C   UNL     1       1.550   7.445  20.833  0.00  0.00    +0.000 A 
ATOM      3  C   UNL     1       1.097   8.751  20.637  0.00  0.00    +0.000 A 
ATOM      4  C   UNL     1       1.277   9.397  19.417  0.00  0.00    +0.000 A 
ATOM      5  C   UNL     1       1.873   8.689  18.375  0.00  0.00    +0.000 A 
ATOM      6  C   UNL     1       2.286   7.357  18.564  0.00  0.00    +0.000 A 
ENDROOT
BRANCH   1  15
ATOM      7  N   UNL     1       5.289   6.365  18.533  0.00  0.00    +0.000 N 
ATOM      8  C   UNL     1       4.959   5.120  18.913  0.00  0.00    +0.000 A 
ATOM      9  N   UNL     1       5.795   4.110  18.695  0.00  0.00    +0.000 NA
ATOM     10  N   UNL     1       5.166   3.057  19.225  0.00  0.00    +0.000 N 
ATOM     11  C   UNL     1       3.956   3.348  19.791  0.00  0.00    +0.000 A 
ATOM     12  C   UNL     1       3.052   2.509  20.450  0.00  0.00    +0.000 A 
ATOM     13  C   UNL     1       1.879   3.082  20.917  0.00  0.00    +0.000 A 
ATOM     14  C   UNL     1       1.622   4.433  20.701  0.00  0.00    +0.000 A 
ATOM     15  C   UNL     1       2.528   5.295  20.024  0.00  0.00    +0.000 A 
ATOM     16  C   UNL     1       3.751   4.716  19.576  0.00  0.00    +0.000 A 
ATOM     17  H   UNL     1       6.250   6.483  18.231  0.00  0.00    +0.000 HD
ATOM     18  H   UNL     1       4.935   7.154  19.060  0.00  0.00    +0.000 HD
ATOM     19  H   UNL     1       5.620   2.153  19.175  0.00  0.00    +0.000 HD
ENDBRANCH   1  15
BRANCH   4  20
ATOM     20  N   UNL     1       0.848  10.723  19.190  0.00  0.00    +0.000 N 
ATOM     21  C   UNL     1       0.791  11.707  20.155  0.00  0.00    +0.000 C 
ATOM     22  O   UNL     1       1.191  11.641  21.310  0.00  0.00    +0.000 OA
ATOM     23  H   UNL     1       0.555  10.963  18.251  0.00  0.00    +0.000 HD
BRANCH  21  24
ATOM     24  C   UNL     1       0.122  12.974  19.746  0.00  0.00    +0.000 C 
ATOM     25  C   UNL     1       1.031  14.027  19.101  0.00  0.00    +0.000 C 
ATOM     26  C   UNL     1      -0.009  13.343  18.273  0.00  0.00    +0.000 C 
BRANCH  24  27
ATOM     27  C   UNL     1      -0.940  13.441  20.686  0.00  0.00    +0.000 C 
ATOM     28  O   UNL     1      -0.987  14.632  20.967  0.00  0.00    +0.000 OA
ATOM     29  N   UNL     1      -1.774  12.435  21.141  0.00  0.00    +0.000 N 
ATOM     30  H   UNL     1      -1.556  11.491  20.830  0.00  0.00    +0.000 HD
BRANCH  29  31
ATOM     31  C   UNL     1      -2.869  12.588  22.012  0.00  0.00    +0.000 A 
ATOM     32  C   UNL     1      -2.782  12.363  23.395  0.00  0.00    +0.000 A 
ATOM     33  C   UNL     1      -3.910  12.481  24.212  0.00  0.00    +0.000 A 
ATOM     34  C   UNL     1      -5.127  12.829  23.651  0.00  0.00    +0.000 A 
ATOM     35  F   UNL     1      -6.214  12.915  24.429  0.00  0.00    +0.000 F 
ATOM     36  C   UNL     1      -5.221  13.083  22.286  0.00  0.00    +0.000 A 
ATOM     37  F   UNL     1      -6.396  13.414  21.743  0.00  0.00    +0.000 F 
ATOM     38  C   UNL     1      -4.096  12.974  21.466  0.00  0.00    +0.000 A 
ENDBRANCH  29  31
ENDBRANCH  24  27
ENDBRANCH  21  24
ENDBRANCH   4  20
TORSDOF 5
ENDMDL
MODEL 6
REMARK VINA RESULT:      -9.2      5.315      9.998
REMARK  Name = 
REMARK  5 active torsions:
REMARK  status: ('A' for Active; 'I' for Inactive)
REMARK    1  A    between atoms: C_9  and  C_10
REMARK    2  A    between atoms: C_13  and  N_14
REMARK    3  A    between atoms: C_15  and  C_17
REMARK    4  A    between atoms: C_17  and  C_18
REMARK    5  A    between atoms: N_20  and  C_21
REMARK                            x       y       z     vdW  Elec       q    Type
REMARK                         _______ _______ _______ _____ _____    ______ ____
ROOT
ATOM      1  C   UNL     1       2.318   6.495  18.998  0.00  0.00    +0.000 A 
ATOM      2  C   UNL     1       2.139   7.718  18.333  0.00  0.00    +0.000 A 
ATOM      3  C   UNL     1       1.657   8.850  18.993  0.00  0.00    +0.000 A 
ATOM      4  C   UNL     1       1.284   8.795  20.333  0.00  0.00    +0.000 A 
ATOM      5  C   UNL     1       1.455   7.593  21.019  0.00  0.00    +0.000 A 
ATOM      6  C   UNL     1       1.985   6.468  20.361  0.00  0.00    +0.000 A 
ENDROOT
BRANCH   1  15
ATOM      7  N   UNL     1       0.543   3.760  19.952  0.00  0.00    +0.000 N 
ATOM      8  C   UNL     1       1.517   3.255  19.177  0.00  0.00    +0.000 A 
ATOM      9  N   UNL     1       1.618   1.941  19.000  0.00  0.00    +0.000 NA
ATOM     10  N   UNL     1       2.650   1.813  18.162  0.00  0.00    +0.000 N 
ATOM     11  C   UNL     1       3.217   2.996  17.777  0.00  0.00    +0.000 A 
ATOM     12  C   UNL     1       4.282   3.235  16.903  0.00  0.00    +0.000 A 
ATOM     13  C   UNL     1       4.657   4.555  16.707  0.00  0.00    +0.000 A 
ATOM     14  C   UNL     1       4.005   5.580  17.388  0.00  0.00    +0.000 A 
ATOM     15  C   UNL     1       2.927   5.350  18.286  0.00  0.00    +0.000 A 
ATOM     16  C   UNL     1       2.515   3.996  18.461  0.00  0.00    +0.000 A 
ATOM     17  H   UNL     1      -0.167   3.094  20.240  0.00  0.00    +0.000 HD
ATOM     18  H   UNL     1       0.170   4.678  19.744  0.00  0.00    +0.000 HD
ATOM     19  H   UNL     1       2.924   0.879  17.878  0.00  0.00    +0.000 HD
ENDBRANCH   1  15
BRANCH   4  20
ATOM     20  N   UNL     1       0.775   9.915  21.026  0.00  0.00    +0.000 N 
ATOM     21  C   UNL     1      -0.284  10.689  20.600  0.00  0.00    +0.000 C 
ATOM     22  O   UNL     1      -1.015  10.486  19.639  0.00  0.00    +0.000 OA
ATOM     23  H   UNL     1       1.229  10.169  21.895  0.00  0.00    +0.000 HD
BRANCH  21  24
ATOM     24  C   UNL     1      -0.526  11.936  21.377  0.00  0.00    +0.000 C 
ATOM     25  C   UNL     1      -1.992  12.236  21.713  0.00  0.00    +0.000 C 
ATOM     26  C   UNL     1      -1.043  11.872  22.810  0.00  0.00    +0.000 C 
BRANCH  24  27
ATOM     27  C   UNL     1       0.358  13.080  21.000  0.00  0.00    +0.000 C 
ATOM     28  O   UNL     1       0.874  13.738  21.894  0.00  0.00    +0.000 OA
ATOM     29  N   UNL     1       0.490  13.263  19.634  0.00  0.00    +0.000 N 
ATOM     30  H   UNL     1      -0.051  12.641  19.039  0.00  0.00    +0.000 HD
BRANCH  29  31
ATOM     31  C   UNL     1       1.274  14.243  18.996  0.00  0.00    +0.000 A 
ATOM     32  C   UNL     1       2.516  13.964  18.406  0.00  0.00    +0.000 A 
ATOM     33  C   UNL     1       3.279  14.981  17.827  0.00  0.00    +0.000 A 
ATOM     34  C   UNL     1       2.800  16.280  17.830  0.00  0.00    +0.000 A 
ATOM     35  F   UNL     1       3.544  17.261  17.300  0.00  0.00    +0.000 F 
ATOM     36  C   UNL     1       1.557  16.567  18.386  0.00  0.00    +0.000 A 
ATOM     37  F   UNL     1       1.098  17.822  18.393  0.00  0.00    +0.000 F 
ATOM     38  C   UNL     1       0.787  15.553  18.959  0.00  0.00    +0.000 A 
ENDBRANCH  29  31
ENDBRANCH  24  27
ENDBRANCH  21  24
ENDBRANCH   4  20
TORSDOF 5
ENDMDL
MODEL 7
REMARK VINA RESULT:      -9.2      1.059      1.418
REMARK  Name = 
REMARK  5 active torsions:
REMARK  status: ('A' for Active; 'I' for Inactive)
REMARK    1  A    between atoms: C_9  and  C_10
REMARK    2  A    between atoms: C_13  and  N_14
REMARK    3  A    between atoms: C_15  and  C_17
REMARK    4  A    between atoms: C_17  and  C_18
REMARK    5  A    between atoms: N_20  and  C_21
REMARK                            x       y       z     vdW  Elec       q    Type
REMARK                         _______ _______ _______ _____ _____    ______ ____
ROOT
ATOM      1  C   UNL     1       0.820   9.530  19.692  0.00  0.00    +0.000 A 
ATOM      2  C   UNL     1       1.029   8.529  20.655  0.00  0.00    +0.000 A 
ATOM      3  C   UNL     1       1.878   7.446  20.418  0.00  0.00    +0.000 A 
ATOM      4  C   UNL     1       2.514   7.288  19.190  0.00  0.00    +0.000 A 
ATOM      5  C   UNL     1       2.327   8.269  18.217  0.00  0.00    +0.000 A 
ATOM      6  C   UNL     1       1.508   9.383  18.477  0.00  0.00    +0.000 A 
ENDROOT
BRANCH   1  15
ATOM      7  N   UNL     1      -1.664   9.601  17.376  0.00  0.00    +0.000 N 
ATOM      8  C   UNL     1      -1.863  10.718  18.094  0.00  0.00    +0.000 A 
ATOM      9  N   UNL     1      -2.839  11.560  17.765  0.00  0.00    +0.000 NA
ATOM     10  N   UNL     1      -2.764  12.512  18.699  0.00  0.00    +0.000 N 
ATOM     11  C   UNL     1      -1.783  12.315  19.630  0.00  0.00    +0.000 A 
ATOM     12  C   UNL     1      -1.442  13.085  20.746  0.00  0.00    +0.000 A 
ATOM     13  C   UNL     1      -0.377  12.646  21.519  0.00  0.00    +0.000 A 
ATOM     14  C   UNL     1       0.325  11.499  21.160  0.00  0.00    +0.000 A 
ATOM     15  C   UNL     1      -0.006  10.711  20.023  0.00  0.00    +0.000 A 
ATOM     16  C   UNL     1      -1.123  11.141  19.248  0.00  0.00    +0.000 A 
ATOM     17  H   UNL     1      -2.389   9.388  16.699  0.00  0.00    +0.000 HD
ATOM     18  H   UNL     1      -1.289   8.779  17.833  0.00  0.00    +0.000 HD
ATOM     19  H   UNL     1      -3.422  13.281  18.652  0.00  0.00    +0.000 HD
ENDBRANCH   1  15
BRANCH   4  20
ATOM     20  N   UNL     1       3.363   6.196  18.910  0.00  0.00    +0.000 N 
ATOM     21  C   UNL     1       2.955   5.009  18.337  0.00  0.00    +0.000 C 
ATOM     22  O   UNL     1       1.849   4.743  17.884  0.00  0.00    +0.000 OA
ATOM     23  H   UNL     1       4.340   6.291  19.157  0.00  0.00    +0.000 HD
BRANCH  21  24
ATOM     24  C   UNL     1       3.971   3.920  18.315  0.00  0.00    +0.000 C 
ATOM     25  C   UNL     1       4.308   3.298  19.676  0.00  0.00    +0.000 C 
ATOM     26  C   UNL     1       3.581   2.486  18.654  0.00  0.00    +0.000 C 
BRANCH  24  27
ATOM     27  C   UNL     1       5.086   4.136  17.345  0.00  0.00    +0.000 C 
ATOM     28  O   UNL     1       6.206   4.361  17.785  0.00  0.00    +0.000 OA
ATOM     29  N   UNL     1       4.703   4.049  16.018  0.00  0.00    +0.000 N 
ATOM     30  H   UNL     1       3.713   3.895  15.842  0.00  0.00    +0.000 HD
BRANCH  29  31
ATOM     31  C   UNL     1       5.543   4.185  14.896  0.00  0.00    +0.000 A 
ATOM     32  C   UNL     1       6.630   5.071  14.859  0.00  0.00    +0.000 A 
ATOM     33  C   UNL     1       7.405   5.206  13.704  0.00  0.00    +0.000 A 
ATOM     34  C   UNL     1       7.099   4.451  12.584  0.00  0.00    +0.000 A 
ATOM     35  F   UNL     1       7.825   4.600  11.468  0.00  0.00    +0.000 F 
ATOM     36  C   UNL     1       6.042   3.547  12.617  0.00  0.00    +0.000 A 
ATOM     37  F   UNL     1       5.744   2.822  11.535  0.00  0.00    +0.000 F 
ATOM     38  C   UNL     1       5.269   3.403  13.771  0.00  0.00    +0.000 A 
ENDBRANCH  29  31
ENDBRANCH  24  27
ENDBRANCH  21  24
ENDBRANCH   4  20
TORSDOF 5
ENDMDL
MODEL 8
REMARK VINA RESULT:      -9.1      1.039      1.726
REMARK  Name = 
REMARK  5 active torsions:
REMARK  status: ('A' for Active; 'I' for Inactive)
REMARK    1  A    between atoms: C_9  and  C_10
REMARK    2  A    between atoms: C_13  and  N_14
REMARK    3  A    between atoms: C_15  and  C_17
REMARK    4  A    between atoms: C_17  and  C_18
REMARK    5  A    between atoms: N_20  and  C_21
REMARK                            x       y       z     vdW  Elec       q    Type
REMARK                         _______ _______ _______ _____ _____    ______ ____
ROOT
ATOM      1  C   UNL     1       0.776   9.637  19.575  0.00  0.00    +0.000 A 
ATOM      2  C   UNL     1       1.073   8.619  20.495  0.00  0.00    +0.000 A 
ATOM      3  C   UNL     1       1.940   7.571  20.179  0.00  0.00    +0.000 A 
ATOM      4  C   UNL     1       2.507   7.466  18.912  0.00  0.00    +0.000 A 
ATOM      5  C   UNL     1       2.233   8.466  17.980  0.00  0.00    +0.000 A 
ATOM      6  C   UNL     1       1.395   9.545  18.318  0.00  0.00    +0.000 A 
ENDROOT
BRANCH   1  15
ATOM      7  N   UNL     1      -1.857   9.668  17.428  0.00  0.00    +0.000 N 
ATOM      8  C   UNL     1      -2.046  10.762  18.183  0.00  0.00    +0.000 A 
ATOM      9  N   UNL     1      -3.070  11.575  17.939  0.00  0.00    +0.000 NA
ATOM     10  N   UNL     1      -2.966  12.510  18.887  0.00  0.00    +0.000 N 
ATOM     11  C   UNL     1      -1.919  12.329  19.747  0.00  0.00    +0.000 A 
ATOM     12  C   UNL     1      -1.530  13.087  20.856  0.00  0.00    +0.000 A 
ATOM     13  C   UNL     1      -0.403  12.670  21.547  0.00  0.00    +0.000 A 
ATOM     14  C   UNL     1       0.313  11.556  21.117  0.00  0.00    +0.000 A 
ATOM     15  C   UNL     1      -0.066  10.781  19.986  0.00  0.00    +0.000 A 
ATOM     16  C   UNL     1      -1.246  11.187  19.296  0.00  0.00    +0.000 A 
ATOM     17  H   UNL     1      -2.618   9.444  16.795  0.00  0.00    +0.000 HD
ATOM     18  H   UNL     1      -1.425   8.850  17.841  0.00  0.00    +0.000 HD
ATOM     19  H   UNL     1      -3.651  13.256  18.901  0.00  0.00    +0.000 HD
ENDBRANCH   1  15
BRANCH   4  20
ATOM     20  N   UNL     1       3.372   6.410  18.553  0.00  0.00    +0.000 N 
ATOM     21  C   UNL     1       2.960   5.150  18.173  0.00  0.00    +0.000 C 
ATOM     22  O   UNL     1       1.812   4.770  17.979  0.00  0.00    +0.000 OA
ATOM     23  H   UNL     1       4.367   6.593  18.585  0.00  0.00    +0.000 HD
BRANCH  21  24
ATOM     24  C   UNL     1       4.039   4.133  18.031  0.00  0.00    +0.000 C 
ATOM     25  C   UNL     1       4.546   3.516  19.340  0.00  0.00    +0.000 C 
ATOM     26  C   UNL     1       3.779   2.671  18.374  0.00  0.00    +0.000 C 
BRANCH  24  27
ATOM     27  C   UNL     1       5.038   4.438  16.963  0.00  0.00    +0.000 C 
ATOM     28  O   UNL     1       6.052   5.049  17.272  0.00  0.00    +0.000 OA
ATOM     29  N   UNL     1       4.681   3.974  15.709  0.00  0.00    +0.000 N 
ATOM     30  H   UNL     1       3.774   3.521  15.635  0.00  0.00    +0.000 HD
BRANCH  29  31
ATOM     31  C   UNL     1       5.437   4.098  14.528  0.00  0.00    +0.000 A 
ATOM     32  C   UNL     1       5.095   3.451  13.331  0.00  0.00    +0.000 A 
ATOM     33  C   UNL     1       5.905   3.566  12.197  0.00  0.00    +0.000 A 
ATOM     34  C   UNL     1       7.057   4.332  12.256  0.00  0.00    +0.000 A 
ATOM     35  F   UNL     1       7.848   4.420  11.178  0.00  0.00    +0.000 F 
ATOM     36  C   UNL     1       7.393   5.003  13.428  0.00  0.00    +0.000 A 
ATOM     37  F   UNL     1       8.507   5.738  13.486  0.00  0.00    +0.000 F 
ATOM     38  C   UNL     1       6.583   4.897  14.561  0.00  0.00    +0.000 A 
ENDBRANCH  29  31
ENDBRANCH  24  27
ENDBRANCH  21  24
ENDBRANCH   4  20
TORSDOF 5
ENDMDL
MODEL 9
REMARK VINA RESULT:      -9.1      5.656     11.560
REMARK  Name = 
REMARK  5 active torsions:
REMARK  status: ('A' for Active; 'I' for Inactive)
REMARK    1  A    between atoms: C_9  and  C_10
REMARK    2  A    between atoms: C_13  and  N_14
REMARK    3  A    between atoms: C_15  and  C_17
REMARK    4  A    between atoms: C_17  and  C_18
REMARK    5  A    between atoms: N_20  and  C_21
REMARK                            x       y       z     vdW  Elec       q    Type
REMARK                         _______ _______ _______ _____ _____    ______ ____
ROOT
ATOM      1  C   UNL     1       2.484   6.433  18.516  0.00  0.00    +0.000 A 
ATOM      2  C   UNL     1       2.163   6.778  19.839  0.00  0.00    +0.000 A 
ATOM      3  C   UNL     1       1.731   8.060  20.182  0.00  0.00    +0.000 A 
ATOM      4  C   UNL     1       1.651   9.069  19.226  0.00  0.00    +0.000 A 
ATOM      5  C   UNL     1       1.960   8.754  17.903  0.00  0.00    +0.000 A 
ATOM      6  C   UNL     1       2.350   7.448  17.555  0.00  0.00    +0.000 A 
ENDROOT
BRANCH   1  15
ATOM      7  N   UNL     1       5.626   6.558  17.229  0.00  0.00    +0.000 N 
ATOM      8  C   UNL     1       5.278   5.267  17.101  0.00  0.00    +0.000 A 
ATOM      9  N   UNL     1       6.106   4.405  16.518  0.00  0.00    +0.000 NA
ATOM     10  N   UNL     1       5.461   3.239  16.601  0.00  0.00    +0.000 N 
ATOM     11  C   UNL     1       4.248   3.307  17.228  0.00  0.00    +0.000 A 
ATOM     12  C   UNL     1       3.328   2.293  17.511  0.00  0.00    +0.000 A 
ATOM     13  C   UNL     1       2.157   2.659  18.155  0.00  0.00    +0.000 A 
ATOM     14  C   UNL     1       1.916   3.994  18.471  0.00  0.00    +0.000 A 
ATOM     15  C   UNL     1       2.839   5.037  18.182  0.00  0.00    +0.000 A 
ATOM     16  C   UNL     1       4.060   4.657  17.552  0.00  0.00    +0.000 A 
ATOM     17  H   UNL     1       6.591   6.769  17.000  0.00  0.00    +0.000 HD
ATOM     18  H   UNL     1       5.275   7.090  18.016  0.00  0.00    +0.000 HD
ATOM     19  H   UNL     1       5.905   2.416  16.211  0.00  0.00    +0.000 HD
ENDBRANCH   1  15
BRANCH   4  20
ATOM     20  N   UNL     1       1.237  10.381  19.541  0.00  0.00    +0.000 N 
ATOM     21  C   UNL     1       0.124  11.003  19.012  0.00  0.00    +0.000 C 
ATOM     22  O   UNL     1      -0.732  10.508  18.290  0.00  0.00    +0.000 OA
ATOM     23  H   UNL     1       1.804  10.904  20.196  0.00  0.00    +0.000 HD
BRANCH  21  24
ATOM     24  C   UNL     1      -0.015  12.452  19.326  0.00  0.00    +0.000 C 
ATOM     25  C   UNL     1       0.910  13.393  18.545  0.00  0.00    +0.000 C 
ATOM     26  C   UNL     1      -0.562  13.424  18.285  0.00  0.00    +0.000 C 
BRANCH  24  27
ATOM     27  C   UNL     1      -0.268  12.750  20.767  0.00  0.00    +0.000 C 
ATOM     28  O   UNL     1       0.546  12.360  21.594  0.00  0.00    +0.000 OA
ATOM     29  N   UNL     1      -1.433  13.459  21.001  0.00  0.00    +0.000 N 
ATOM     30  H   UNL     1      -2.010  13.663  20.188  0.00  0.00    +0.000 HD
BRANCH  29  31
ATOM     31  C   UNL     1      -1.908  13.895  22.252  0.00  0.00    +0.000 A 
ATOM     32  C   UNL     1      -1.551  15.128  22.818  0.00  0.00    +0.000 A 
ATOM     33  C   UNL     1      -2.010  15.495  24.086  0.00  0.00    +0.000 A 
ATOM     34  C   UNL     1      -2.834  14.633  24.790  0.00  0.00    +0.000 A 
ATOM     35  F   UNL     1      -3.252  14.972  26.017  0.00  0.00    +0.000 F 
ATOM     36  C   UNL     1      -3.220  13.420  24.228  0.00  0.00    +0.000 A 
ATOM     37  F   UNL     1      -4.011  12.586  24.910  0.00  0.00    +0.000 F 
ATOM     38  C   UNL     1      -2.770  13.052  22.958  0.00  0.00    +0.000 A 
ENDBRANCH  29  31
ENDBRANCH  24  27
ENDBRANCH  21  24
ENDBRANCH   4  20
TORSDOF 5
ENDMDL
