MODEL 1
REMARK VINA RESULT:      -8.1      0.000      0.000
REMARK  Name = 
REMARK  7 active torsions:
REMARK  status: ('A' for Active; 'I' for Inactive)
REMARK    1  A    between atoms: C_1  and  C_2
REMARK    2  A    between atoms: N_8  and  C_9
REMARK    3  A    between atoms: C_9  and  C_10
REMARK    4  A    between atoms: C_13  and  O_14
REMARK    5  A    between atoms: O_14  and  C_15
REMARK    6  A    between atoms: C_23  and  C_24
REMARK    7  A    between atoms: C_26  and  C_27
REMARK                            x       y       z     vdW  Elec       q    Type
REMARK                         _______ _______ _______ _____ _____    ______ ____
ROOT
ATOM      1  C   UNL     1      -5.128  12.334  17.560  0.00  0.00    +0.000 C 
ATOM      2  C   UNL     1      -4.184  11.225  17.180  0.00  0.00    +0.000 C 
ATOM      3  O   UNL     1      -4.485  10.407  16.310  0.00  0.00    +0.000 OA
ATOM      4  N   UNL     1      -2.984  11.170  17.854  0.00  0.00    +0.000 N 
ATOM      5  C   UNL     1      -2.119  10.052  17.675  0.00  0.00    +0.000 C 
ATOM      6  C   UNL     1      -1.090  10.103  18.811  0.00  0.00    +0.000 C 
ATOM      7  C   UNL     1       0.248   9.816  18.095  0.00  0.00    +0.000 C 
ATOM      8  N   UNL     1       1.396  10.081  18.936  0.00  0.00    +0.000 NA
ATOM      9  C   UNL     1       1.436  11.510  19.264  0.00  0.00    +0.000 C 
ATOM     10  C   UNL     1       0.104  12.322  19.160  0.00  0.00    +0.000 C 
ATOM     11  C   UNL     1      -1.181  11.513  19.484  0.00  0.00    +0.000 C 
ATOM     12  C   UNL     1      -2.539  12.047  18.913  0.00  0.00    +0.000 C 
ENDROOT
BRANCH  11  13
ATOM     13  C   UNL     1      -1.409  11.690  20.988  0.00  0.00    +0.000 A 
ATOM     14  N   UNL     1      -2.479  12.294  21.471  0.00  0.00    +0.000 NA
ATOM     15  C   UNL     1      -2.392  12.132  22.828  0.00  0.00    +0.000 A 
ATOM     16  C   UNL     1      -3.484  12.541  23.743  0.00  0.00    +0.000 C 
ATOM     17  N   UNL     1      -1.266  11.523  23.217  0.00  0.00    +0.000 NA
ATOM     18  N   UNL     1      -0.671  11.255  22.039  0.00  0.00    +0.000 N 
ATOM     19  H   UNL     1       0.216  10.760  22.050  0.00  0.00    +0.000 HD
ENDBRANCH  11  13
BRANCH   8  20
ATOM     20  C   UNL     1       1.462   9.104  20.021  0.00  0.00    +0.000 C 
BRANCH  20  21
ATOM     21  C   UNL     1       1.951   7.731  19.649  0.00  0.00    +0.000 A 
ATOM     22  C   UNL     1       1.742   6.657  20.524  0.00  0.00    +0.000 A 
ATOM     23  C   UNL     1       2.120   5.372  20.161  0.00  0.00    +0.000 A 
ATOM     24  C   UNL     1       2.703   5.123  18.918  0.00  0.00    +0.000 A 
ATOM     25  C   UNL     1       2.956   6.192  18.058  0.00  0.00    +0.000 A 
ATOM     26  C   UNL     1       2.573   7.490  18.418  0.00  0.00    +0.000 A 
BRANCH  24  27
ATOM     27  O   UNL     1       3.037   3.824  18.703  0.00  0.00    +0.000 OA
BRANCH  27  28
ATOM     28  C   UNL     1       2.027   2.878  18.390  0.00  0.00    +0.000 C 
ATOM     29  F   UNL     1       0.847   3.418  18.022  0.00  0.00    +0.000 F 
ATOM     30  F   UNL     1       2.467   2.079  17.394  0.00  0.00    +0.000 F 
ATOM     31  F   UNL     1       1.808   2.107  19.480  0.00  0.00    +0.000 F 
ENDBRANCH  27  28
ENDBRANCH  24  27
ENDBRANCH  20  21
ENDBRANCH   8  20
TORSDOF 5
ENDMDL
MODEL 2
REMARK VINA RESULT:      -7.9      0.412      1.233
REMARK  Name = 
REMARK  7 active torsions:
REMARK  status: ('A' for Active; 'I' for Inactive)
REMARK    1  A    between atoms: C_1  and  C_2
REMARK    2  A    between atoms: N_8  and  C_9
REMARK    3  A    between atoms: C_9  and  C_10
REMARK    4  A    between atoms: C_13  and  O_14
REMARK    5  A    between atoms: O_14  and  C_15
REMARK    6  A    between atoms: C_23  and  C_24
REMARK    7  A    between atoms: C_26  and  C_27
REMARK                            x       y       z     vdW  Elec       q    Type
REMARK                         _______ _______ _______ _____ _____    ______ ____
ROOT
ATOM      1  C   UNL     1      -5.129  12.338  17.675  0.00  0.00    +0.000 C 
ATOM      2  C   UNL     1      -4.189  11.229  17.285  0.00  0.00    +0.000 C 
ATOM      3  O   UNL     1      -4.498  10.413  16.416  0.00  0.00    +0.000 OA
ATOM      4  N   UNL     1      -2.982  11.174  17.947  0.00  0.00    +0.000 N 
ATOM      5  C   UNL     1      -2.119  10.056  17.757  0.00  0.00    +0.000 C 
ATOM      6  C   UNL     1      -1.079  10.105  18.884  0.00  0.00    +0.000 C 
ATOM      7  C   UNL     1       0.252   9.820  18.155  0.00  0.00    +0.000 C 
ATOM      8  N   UNL     1       1.408  10.083  18.985  0.00  0.00    +0.000 NA
ATOM      9  C   UNL     1       1.451  11.512  19.315  0.00  0.00    +0.000 C 
ATOM     10  C   UNL     1       0.118  12.323  19.225  0.00  0.00    +0.000 C 
ATOM     11  C   UNL     1      -1.164  11.514  19.560  0.00  0.00    +0.000 C 
ATOM     12  C   UNL     1      -2.527  12.049  19.002  0.00  0.00    +0.000 C 
ENDROOT
BRANCH  11  13
ATOM     13  C   UNL     1      -1.377  11.689  21.066  0.00  0.00    +0.000 A 
ATOM     14  N   UNL     1      -2.384  12.388  21.558  0.00  0.00    +0.000 NA
ATOM     15  C   UNL     1      -2.317  12.197  22.912  0.00  0.00    +0.000 A 
ATOM     16  C   UNL     1      -3.367  12.698  23.832  0.00  0.00    +0.000 C 
ATOM     17  N   UNL     1      -1.258  11.474  23.293  0.00  0.00    +0.000 NA
ATOM     18  N   UNL     1      -0.689  11.167  22.111  0.00  0.00    +0.000 N 
ATOM     19  H   UNL     1       0.145  10.587  22.116  0.00  0.00    +0.000 HD
ENDBRANCH  11  13
BRANCH   8  20
ATOM     20  C   UNL     1       1.484   9.105  20.068  0.00  0.00    +0.000 C 
BRANCH  20  21
ATOM     21  C   UNL     1       1.900   7.713  19.677  0.00  0.00    +0.000 A 
ATOM     22  C   UNL     1       2.582   7.504  18.472  0.00  0.00    +0.000 A 
ATOM     23  C   UNL     1       3.038   6.237  18.133  0.00  0.00    +0.000 A 
ATOM     24  C   UNL     1       2.835   5.153  18.989  0.00  0.00    +0.000 A 
ATOM     25  C   UNL     1       2.119   5.343  20.170  0.00  0.00    +0.000 A 
ATOM     26  C   UNL     1       1.661   6.619  20.518  0.00  0.00    +0.000 A 
BRANCH  24  27
ATOM     27  O   UNL     1       3.319   3.972  18.524  0.00  0.00    +0.000 OA
BRANCH  27  28
ATOM     28  C   UNL     1       2.473   3.105  17.784  0.00  0.00    +0.000 C 
ATOM     29  F   UNL     1       2.771   1.795  17.902  0.00  0.00    +0.000 F 
ATOM     30  F   UNL     1       1.196   3.297  18.177  0.00  0.00    +0.000 F 
ATOM     31  F   UNL     1       2.563   3.433  16.474  0.00  0.00    +0.000 F 
ENDBRANCH  27  28
ENDBRANCH  24  27
ENDBRANCH  20  21
ENDBRANCH   8  20
TORSDOF 5
ENDMDL
MODEL 3
REMARK VINA RESULT:      -7.7      8.462     11.119
REMARK  Name = 
REMARK  7 active torsions:
REMARK  status: ('A' for Active; 'I' for Inactive)
REMARK    1  A    between atoms: C_1  and  C_2
REMARK    2  A    between atoms: N_8  and  C_9
REMARK    3  A    between atoms: C_9  and  C_10
REMARK    4  A    between atoms: C_13  and  O_14
REMARK    5  A    between atoms: O_14  and  C_15
REMARK    6  A    between atoms: C_23  and  C_24
REMARK    7  A    between atoms: C_26  and  C_27
REMARK                            x       y       z     vdW  Elec       q    Type
REMARK                         _______ _______ _______ _____ _____    ______ ____
ROOT
ATOM      1  C   UNL     1       2.307   2.303  17.458  0.00  0.00    +0.000 C 
ATOM      2  C   UNL     1       2.568   3.617  18.143  0.00  0.00    +0.000 C 
ATOM      3  O   UNL     1       1.697   4.163  18.820  0.00  0.00    +0.000 OA
ATOM      4  N   UNL     1       3.817   4.172  17.969  0.00  0.00    +0.000 N 
ATOM      5  C   UNL     1       4.079   5.492  18.439  0.00  0.00    +0.000 C 
ATOM      6  C   UNL     1       5.385   5.945  17.775  0.00  0.00    +0.000 C 
ATOM      7  C   UNL     1       6.170   6.593  18.935  0.00  0.00    +0.000 C 
ATOM      8  N   UNL     1       7.553   6.854  18.593  0.00  0.00    +0.000 NA
ATOM      9  C   UNL     1       8.235   5.582  18.333  0.00  0.00    +0.000 C 
ATOM     10  C   UNL     1       7.358   4.348  17.944  0.00  0.00    +0.000 C 
ATOM     11  C   UNL     1       6.071   4.687  17.144  0.00  0.00    +0.000 C 
ATOM     12  C   UNL     1       4.902   3.644  17.173  0.00  0.00    +0.000 C 
ENDROOT
BRANCH  11  13
ATOM     13  C   UNL     1       6.477   4.628  15.669  0.00  0.00    +0.000 A 
ATOM     14  N   UNL     1       5.978   3.731  14.838  0.00  0.00    +0.000 NA
ATOM     15  C   UNL     1       6.465   4.082  13.607  0.00  0.00    +0.000 A 
ATOM     16  C   UNL     1       6.023   3.410  12.362  0.00  0.00    +0.000 C 
ATOM     17  N   UNL     1       7.316   5.114  13.650  0.00  0.00    +0.000 NA
ATOM     18  N   UNL     1       7.300   5.436  14.957  0.00  0.00    +0.000 N 
ATOM     19  H   UNL     1       7.861   6.226  15.265  0.00  0.00    +0.000 HD
ENDBRANCH  11  13
BRANCH   8  20
ATOM     20  C   UNL     1       7.633   7.918  17.593  0.00  0.00    +0.000 C 
BRANCH  20  21
ATOM     21  C   UNL     1       8.264   9.207  18.045  0.00  0.00    +0.000 A 
ATOM     22  C   UNL     1       8.007  10.391  17.342  0.00  0.00    +0.000 A 
ATOM     23  C   UNL     1       8.522  11.599  17.791  0.00  0.00    +0.000 A 
ATOM     24  C   UNL     1       9.293  11.660  18.951  0.00  0.00    +0.000 A 
ATOM     25  C   UNL     1       9.592  10.480  19.633  0.00  0.00    +0.000 A 
ATOM     26  C   UNL     1       9.072   9.259  19.187  0.00  0.00    +0.000 A 
BRANCH  24  27
ATOM     27  O   UNL     1       9.744  12.903  19.263  0.00  0.00    +0.000 OA
BRANCH  27  28
ATOM     28  C   UNL     1      10.888  13.424  18.606  0.00  0.00    +0.000 C 
ATOM     29  F   UNL     1      11.668  12.495  18.014  0.00  0.00    +0.000 F 
ATOM     30  F   UNL     1      10.491  14.315  17.671  0.00  0.00    +0.000 F 
ATOM     31  F   UNL     1      11.645  14.080  19.516  0.00  0.00    +0.000 F 
ENDBRANCH  27  28
ENDBRANCH  24  27
ENDBRANCH  20  21
ENDBRANCH   8  20
TORSDOF 5
ENDMDL
MODEL 4
REMARK VINA RESULT:      -7.6      1.030      1.177
REMARK  Name = 
REMARK  7 active torsions:
REMARK  status: ('A' for Active; 'I' for Inactive)
REMARK    1  A    between atoms: C_1  and  C_2
REMARK    2  A    between atoms: N_8  and  C_9
REMARK    3  A    between atoms: C_9  and  C_10
REMARK    4  A    between atoms: C_13  and  O_14
REMARK    5  A    between atoms: O_14  and  C_15
REMARK    6  A    between atoms: C_23  and  C_24
REMARK    7  A    between atoms: C_26  and  C_27
REMARK                            x       y       z     vdW  Elec       q    Type
REMARK                         _______ _______ _______ _____ _____    ______ ____
ROOT
ATOM      1  C   UNL     1      -5.292  12.449  17.781  0.00  0.00    +0.000 C 
ATOM      2  C   UNL     1      -4.336  11.358  17.378  0.00  0.00    +0.000 C 
ATOM      3  O   UNL     1      -4.633  10.547  16.501  0.00  0.00    +0.000 OA
ATOM      4  N   UNL     1      -3.128  11.314  18.040  0.00  0.00    +0.000 N 
ATOM      5  C   UNL     1      -2.249  10.211  17.838  0.00  0.00    +0.000 C 
ATOM      6  C   UNL     1      -1.209  10.263  18.965  0.00  0.00    +0.000 C 
ATOM      7  C   UNL     1       0.125  10.005  18.234  0.00  0.00    +0.000 C 
ATOM      8  N   UNL     1       1.277  10.277  19.067  0.00  0.00    +0.000 NA
ATOM      9  C   UNL     1       1.299  11.702  19.412  0.00  0.00    +0.000 C 
ATOM     10  C   UNL     1      -0.045  12.495  19.331  0.00  0.00    +0.000 C 
ATOM     11  C   UNL     1      -1.315  11.663  19.657  0.00  0.00    +0.000 C 
ATOM     12  C   UNL     1      -2.686  12.184  19.105  0.00  0.00    +0.000 C 
ENDROOT
BRANCH  11  13
ATOM     13  C   UNL     1      -1.531  11.818  21.165  0.00  0.00    +0.000 A 
ATOM     14  N   UNL     1      -2.611  12.391  21.666  0.00  0.00    +0.000 NA
ATOM     15  C   UNL     1      -2.505  12.217  23.020  0.00  0.00    +0.000 A 
ATOM     16  C   UNL     1      -3.597  12.589  23.951  0.00  0.00    +0.000 C 
ATOM     17  N   UNL     1      -1.361  11.631  23.391  0.00  0.00    +0.000 NA
ATOM     18  N   UNL     1      -0.772  11.390  22.204  0.00  0.00    +0.000 N 
ATOM     19  H   UNL     1       0.127  10.917  22.200  0.00  0.00    +0.000 HD
ENDBRANCH  11  13
BRANCH   8  20
ATOM     20  C   UNL     1       1.368   9.287  20.140  0.00  0.00    +0.000 C 
BRANCH  20  21
ATOM     21  C   UNL     1       1.826   7.912  19.737  0.00  0.00    +0.000 A 
ATOM     22  C   UNL     1       1.586   6.823  20.584  0.00  0.00    +0.000 A 
ATOM     23  C   UNL     1       1.936   5.538  20.192  0.00  0.00    +0.000 A 
ATOM     24  C   UNL     1       2.522   5.306  18.947  0.00  0.00    +0.000 A 
ATOM     25  C   UNL     1       2.805   6.389  18.115  0.00  0.00    +0.000 A 
ATOM     26  C   UNL     1       2.451   7.686  18.504  0.00  0.00    +0.000 A 
BRANCH  24  27
ATOM     27  O   UNL     1       2.826   4.004  18.703  0.00  0.00    +0.000 OA
BRANCH  27  28
ATOM     28  C   UNL     1       3.961   3.417  19.319  0.00  0.00    +0.000 C 
ATOM     29  F   UNL     1       3.724   2.873  20.530  0.00  0.00    +0.000 F 
ATOM     30  F   UNL     1       4.458   2.462  18.504  0.00  0.00    +0.000 F 
ATOM     31  F   UNL     1       4.908   4.371  19.473  0.00  0.00    +0.000 F 
ENDBRANCH  27  28
ENDBRANCH  24  27
ENDBRANCH  20  21
ENDBRANCH   8  20
TORSDOF 5
ENDMDL
MODEL 5
REMARK VINA RESULT:      -7.5      2.413      3.917
REMARK  Name = 
REMARK  7 active torsions:
REMARK  status: ('A' for Active; 'I' for Inactive)
REMARK    1  A    between atoms: C_1  and  C_2
REMARK    2  A    between atoms: N_8  and  C_9
REMARK    3  A    between atoms: C_9  and  C_10
REMARK    4  A    between atoms: C_13  and  O_14
REMARK    5  A    between atoms: O_14  and  C_15
REMARK    6  A    between atoms: C_23  and  C_24
REMARK    7  A    between atoms: C_26  and  C_27
REMARK                            x       y       z     vdW  Elec       q    Type
REMARK                         _______ _______ _______ _____ _____    ______ ____
ROOT
ATOM      1  C   UNL     1      -1.320  17.055  19.287  0.00  0.00    +0.000 C 
ATOM      2  C   UNL     1      -0.025  16.296  19.393  0.00  0.00    +0.000 C 
ATOM      3  O   UNL     1       1.057  16.883  19.382  0.00  0.00    +0.000 OA
ATOM      4  N   UNL     1      -0.115  14.925  19.497  0.00  0.00    +0.000 N 
ATOM      5  C   UNL     1       1.066  14.129  19.426  0.00  0.00    +0.000 C 
ATOM      6  C   UNL     1       0.609  12.683  19.192  0.00  0.00    +0.000 C 
ATOM      7  C   UNL     1       1.482  11.870  20.172  0.00  0.00    +0.000 C 
ATOM      8  N   UNL     1       1.030  10.502  20.313  0.00  0.00    +0.000 NA
ATOM      9  C   UNL     1      -0.314  10.494  20.900  0.00  0.00    +0.000 C 
ATOM     10  C   UNL     1      -1.178  11.789  20.765  0.00  0.00    +0.000 C 
ATOM     11  C   UNL     1      -0.929  12.610  19.470  0.00  0.00    +0.000 C 
ATOM     12  C   UNL     1      -1.319  14.127  19.485  0.00  0.00    +0.000 C 
ENDROOT
BRANCH  11  13
ATOM     13  C   UNL     1      -1.923  12.063  18.442  0.00  0.00    +0.000 A 
ATOM     14  N   UNL     1      -3.182  11.807  18.747  0.00  0.00    +0.000 NA
ATOM     15  C   UNL     1      -3.773  11.476  17.557  0.00  0.00    +0.000 A 
ATOM     16  C   UNL     1      -5.234  11.258  17.436  0.00  0.00    +0.000 C 
ATOM     17  N   UNL     1      -2.913  11.436  16.533  0.00  0.00    +0.000 NA
ATOM     18  N   UNL     1      -1.761  11.812  17.119  0.00  0.00    +0.000 N 
ATOM     19  H   UNL     1      -0.929  11.888  16.540  0.00  0.00    +0.000 HD
ENDBRANCH  11  13
BRANCH   8  20
ATOM     20  C   UNL     1       1.266   9.762  19.075  0.00  0.00    +0.000 C 
BRANCH  20  21
ATOM     21  C   UNL     1       1.723   8.337  19.229  0.00  0.00    +0.000 A 
ATOM     22  C   UNL     1       1.581   7.691  20.463  0.00  0.00    +0.000 A 
ATOM     23  C   UNL     1       1.928   6.354  20.600  0.00  0.00    +0.000 A 
ATOM     24  C   UNL     1       2.414   5.628  19.512  0.00  0.00    +0.000 A 
ATOM     25  C   UNL     1       2.601   6.274  18.291  0.00  0.00    +0.000 A 
ATOM     26  C   UNL     1       2.248   7.621  18.146  0.00  0.00    +0.000 A 
BRANCH  24  27
ATOM     27  O   UNL     1       2.730   4.337  19.794  0.00  0.00    +0.000 OA
BRANCH  27  28
ATOM     28  C   UNL     1       1.771   3.313  19.578  0.00  0.00    +0.000 C 
ATOM     29  F   UNL     1       2.296   2.098  19.316  0.00  0.00    +0.000 F 
ATOM     30  F   UNL     1       0.978   3.217  20.667  0.00  0.00    +0.000 F 
ATOM     31  F   UNL     1       0.998   3.664  18.525  0.00  0.00    +0.000 F 
ENDBRANCH  27  28
ENDBRANCH  24  27
ENDBRANCH  20  21
ENDBRANCH   8  20
TORSDOF 5
ENDMDL
MODEL 6
REMARK VINA RESULT:      -7.5      2.602      4.090
REMARK  Name = 
REMARK  7 active torsions:
REMARK  status: ('A' for Active; 'I' for Inactive)
REMARK    1  A    between atoms: C_1  and  C_2
REMARK    2  A    between atoms: N_8  and  C_9
REMARK    3  A    between atoms: C_9  and  C_10
REMARK    4  A    between atoms: C_13  and  O_14
REMARK    5  A    between atoms: O_14  and  C_15
REMARK    6  A    between atoms: C_23  and  C_24
REMARK    7  A    between atoms: C_26  and  C_27
REMARK                            x       y       z     vdW  Elec       q    Type
REMARK                         _______ _______ _______ _____ _____    ______ ____
ROOT
ATOM      1  C   UNL     1       0.037  16.964  18.650  0.00  0.00    +0.000 C 
ATOM      2  C   UNL     1       1.121  15.921  18.632  0.00  0.00    +0.000 C 
ATOM      3  O   UNL     1       2.278  16.214  18.330  0.00  0.00    +0.000 OA
ATOM      4  N   UNL     1       0.753  14.635  18.962  0.00  0.00    +0.000 N 
ATOM      5  C   UNL     1       1.681  13.566  18.798  0.00  0.00    +0.000 C 
ATOM      6  C   UNL     1       0.875  12.264  18.880  0.00  0.00    +0.000 C 
ATOM      7  C   UNL     1       1.735  11.368  19.796  0.00  0.00    +0.000 C 
ATOM      8  N   UNL     1       1.031  10.179  20.229  0.00  0.00    +0.000 NA
ATOM      9  C   UNL     1      -0.121  10.570  21.048  0.00  0.00    +0.000 C 
ATOM     10  C   UNL     1      -0.682  12.018  20.876  0.00  0.00    +0.000 C 
ATOM     11  C   UNL     1      -0.543  12.607  19.446  0.00  0.00    +0.000 C 
ATOM     12  C   UNL     1      -0.573  14.167  19.297  0.00  0.00    +0.000 C 
ENDROOT
BRANCH  11  13
ATOM     13  C   UNL     1      -1.833  12.221  18.717  0.00  0.00    +0.000 A 
ATOM     14  N   UNL     1      -1.824  11.666  17.518  0.00  0.00    +0.000 NA
ATOM     15  C   UNL     1      -3.132  11.346  17.268  0.00  0.00    +0.000 A 
ATOM     16  C   UNL     1      -3.539  10.565  16.076  0.00  0.00    +0.000 C 
ATOM     17  N   UNL     1      -3.969  11.755  18.229  0.00  0.00    +0.000 NA
ATOM     18  N   UNL     1      -3.123  12.298  19.125  0.00  0.00    +0.000 N 
ATOM     19  H   UNL     1      -3.511  12.673  19.986  0.00  0.00    +0.000 HD
ENDBRANCH  11  13
BRANCH   8  20
ATOM     20  C   UNL     1       0.822   9.277  19.098  0.00  0.00    +0.000 C 
BRANCH  20  21
ATOM     21  C   UNL     1       1.893   8.247  18.863  0.00  0.00    +0.000 A 
ATOM     22  C   UNL     1       2.059   7.195  19.773  0.00  0.00    +0.000 A 
ATOM     23  C   UNL     1       2.993   6.197  19.530  0.00  0.00    +0.000 A 
ATOM     24  C   UNL     1       3.774   6.217  18.374  0.00  0.00    +0.000 A 
ATOM     25  C   UNL     1       3.648   7.283  17.485  0.00  0.00    +0.000 A 
ATOM     26  C   UNL     1       2.705   8.290  17.723  0.00  0.00    +0.000 A 
BRANCH  24  27
ATOM     27  O   UNL     1       4.657   5.188  18.275  0.00  0.00    +0.000 OA
BRANCH  27  28
ATOM     28  C   UNL     1       4.257   3.973  17.661  0.00  0.00    +0.000 C 
ATOM     29  F   UNL     1       5.109   3.512  16.722  0.00  0.00    +0.000 F 
ATOM     30  F   UNL     1       4.110   3.027  18.615  0.00  0.00    +0.000 F 
ATOM     31  F   UNL     1       3.055   4.164  17.072  0.00  0.00    +0.000 F 
ENDBRANCH  27  28
ENDBRANCH  24  27
ENDBRANCH  20  21
ENDBRANCH   8  20
TORSDOF 5
ENDMDL
MODEL 7
REMARK VINA RESULT:      -7.4      3.153      4.577
REMARK  Name = 
REMARK  7 active torsions:
REMARK  status: ('A' for Active; 'I' for Inactive)
REMARK    1  A    between atoms: C_1  and  C_2
REMARK    2  A    between atoms: N_8  and  C_9
REMARK    3  A    between atoms: C_9  and  C_10
REMARK    4  A    between atoms: C_13  and  O_14
REMARK    5  A    between atoms: O_14  and  C_15
REMARK    6  A    between atoms: C_23  and  C_24
REMARK    7  A    between atoms: C_26  and  C_27
REMARK                            x       y       z     vdW  Elec       q    Type
REMARK                         _______ _______ _______ _____ _____    ______ ____
ROOT
ATOM      1  C   UNL     1      -0.175  16.752  18.603  0.00  0.00    +0.000 C 
ATOM      2  C   UNL     1       0.953  15.761  18.696  0.00  0.00    +0.000 C 
ATOM      3  O   UNL     1       2.126  16.123  18.594  0.00  0.00    +0.000 OA
ATOM      4  N   UNL     1       0.608  14.441  18.893  0.00  0.00    +0.000 N 
ATOM      5  C   UNL     1       1.607  13.427  18.816  0.00  0.00    +0.000 C 
ATOM      6  C   UNL     1       0.868  12.088  18.700  0.00  0.00    +0.000 C 
ATOM      7  C   UNL     1       1.625  11.175  19.688  0.00  0.00    +0.000 C 
ATOM      8  N   UNL     1       0.927   9.931  19.940  0.00  0.00    +0.000 NA
ATOM      9  C   UNL     1      -0.355  10.219  20.591  0.00  0.00    +0.000 C 
ATOM     10  C   UNL     1      -0.960  11.649  20.413  0.00  0.00    +0.000 C 
ATOM     11  C   UNL     1      -0.636  12.332  19.057  0.00  0.00    +0.000 C 
ATOM     12  C   UNL     1      -0.726  13.895  18.992  0.00  0.00    +0.000 C 
ENDROOT
BRANCH  11  13
ATOM     13  C   UNL     1      -1.777  11.936  18.116  0.00  0.00    +0.000 A 
ATOM     14  N   UNL     1      -1.574  11.216  17.028  0.00  0.00    +0.000 NA
ATOM     15  C   UNL     1      -2.826  10.955  16.539  0.00  0.00    +0.000 A 
ATOM     16  C   UNL     1      -3.051  10.042  15.394  0.00  0.00    +0.000 C 
ATOM     17  N   UNL     1      -3.800  11.554  17.233  0.00  0.00    +0.000 NA
ATOM     18  N   UNL     1      -3.111  12.160  18.219  0.00  0.00    +0.000 N 
ATOM     19  H   UNL     1      -3.631  12.680  18.920  0.00  0.00    +0.000 HD
ENDBRANCH  11  13
BRANCH   8  20
ATOM     20  C   UNL     1       0.941   9.093  18.742  0.00  0.00    +0.000 C 
BRANCH  20  21
ATOM     21  C   UNL     1       2.058   8.089  18.647  0.00  0.00    +0.000 A 
ATOM     22  C   UNL     1       2.187   7.098  19.627  0.00  0.00    +0.000 A 
ATOM     23  C   UNL     1       3.166   6.120  19.512  0.00  0.00    +0.000 A 
ATOM     24  C   UNL     1       4.030   6.100  18.417  0.00  0.00    +0.000 A 
ATOM     25  C   UNL     1       3.938   7.109  17.458  0.00  0.00    +0.000 A 
ATOM     26  C   UNL     1       2.950   8.095  17.567  0.00  0.00    +0.000 A 
BRANCH  24  27
ATOM     27  O   UNL     1       4.948   5.099  18.443  0.00  0.00    +0.000 OA
BRANCH  27  28
ATOM     28  C   UNL     1       6.328   5.409  18.555  0.00  0.00    +0.000 C 
ATOM     29  F   UNL     1       6.666   6.637  18.112  0.00  0.00    +0.000 F 
ATOM     30  F   UNL     1       6.699   5.298  19.849  0.00  0.00    +0.000 F 
ATOM     31  F   UNL     1       7.031   4.503  17.838  0.00  0.00    +0.000 F 
ENDBRANCH  27  28
ENDBRANCH  24  27
ENDBRANCH  20  21
ENDBRANCH   8  20
TORSDOF 5
ENDMDL
MODEL 8
REMARK VINA RESULT:      -7.4      8.211     10.980
REMARK  Name = 
REMARK  7 active torsions:
REMARK  status: ('A' for Active; 'I' for Inactive)
REMARK    1  A    between atoms: C_1  and  C_2
REMARK    2  A    between atoms: N_8  and  C_9
REMARK    3  A    between atoms: C_9  and  C_10
REMARK    4  A    between atoms: C_13  and  O_14
REMARK    5  A    between atoms: O_14  and  C_15
REMARK    6  A    between atoms: C_23  and  C_24
REMARK    7  A    between atoms: C_26  and  C_27
REMARK                            x       y       z     vdW  Elec       q    Type
REMARK                         _______ _______ _______ _____ _____    ______ ____
ROOT
ATOM      1  C   UNL     1       2.263   2.403  17.270  0.00  0.00    +0.000 C 
ATOM      2  C   UNL     1       2.509   3.718  17.960  0.00  0.00    +0.000 C 
ATOM      3  O   UNL     1       1.618   4.272  18.603  0.00  0.00    +0.000 OA
ATOM      4  N   UNL     1       3.768   4.263  17.829  0.00  0.00    +0.000 N 
ATOM      5  C   UNL     1       4.022   5.582  18.304  0.00  0.00    +0.000 C 
ATOM      6  C   UNL     1       5.355   6.024  17.686  0.00  0.00    +0.000 C 
ATOM      7  C   UNL     1       6.102   6.671  18.872  0.00  0.00    +0.000 C 
ATOM      8  N   UNL     1       7.498   6.921  18.579  0.00  0.00    +0.000 NA
ATOM      9  C   UNL     1       8.180   5.643  18.347  0.00  0.00    +0.000 C 
ATOM     10  C   UNL     1       7.308   4.414  17.931  0.00  0.00    +0.000 C 
ATOM     11  C   UNL     1       6.053   4.759  17.085  0.00  0.00    +0.000 C 
ATOM     12  C   UNL     1       4.876   3.725  17.075  0.00  0.00    +0.000 C 
ENDROOT
BRANCH  11  13
ATOM     13  C   UNL     1       6.512   4.692  15.626  0.00  0.00    +0.000 A 
ATOM     14  N   UNL     1       6.044   3.790  14.782  0.00  0.00    +0.000 NA
ATOM     15  C   UNL     1       6.575   4.134  13.568  0.00  0.00    +0.000 A 
ATOM     16  C   UNL     1       6.178   3.454  12.312  0.00  0.00    +0.000 C 
ATOM     17  N   UNL     1       7.422   5.167  13.634  0.00  0.00    +0.000 NA
ATOM     18  N   UNL     1       7.359   5.497  14.939  0.00  0.00    +0.000 N 
ATOM     19  H   UNL     1       7.907   6.290  15.261  0.00  0.00    +0.000 HD
ENDBRANCH  11  13
BRANCH   8  20
ATOM     20  C   UNL     1       7.622   7.980  17.579  0.00  0.00    +0.000 C 
BRANCH  20  21
ATOM     21  C   UNL     1       8.278   9.253  18.039  0.00  0.00    +0.000 A 
ATOM     22  C   UNL     1       8.051  10.445  17.340  0.00  0.00    +0.000 A 
ATOM     23  C   UNL     1       8.589  11.641  17.796  0.00  0.00    +0.000 A 
ATOM     24  C   UNL     1       9.356  11.680  18.961  0.00  0.00    +0.000 A 
ATOM     25  C   UNL     1       9.625  10.491  19.640  0.00  0.00    +0.000 A 
ATOM     26  C   UNL     1       9.081   9.284  19.186  0.00  0.00    +0.000 A 
BRANCH  24  27
ATOM     27  O   UNL     1       9.832  12.912  19.280  0.00  0.00    +0.000 OA
BRANCH  27  28
ATOM     28  C   UNL     1       9.552  13.469  20.555  0.00  0.00    +0.000 C 
ATOM     29  F   UNL     1      10.227  12.901  21.576  0.00  0.00    +0.000 F 
ATOM     30  F   UNL     1       9.836  14.789  20.529  0.00  0.00    +0.000 F 
ATOM     31  F   UNL     1       8.230  13.328  20.804  0.00  0.00    +0.000 F 
ENDBRANCH  27  28
ENDBRANCH  24  27
ENDBRANCH  20  21
ENDBRANCH   8  20
TORSDOF 5
ENDMDL
MODEL 9
REMARK VINA RESULT:      -7.3      3.354      4.558
REMARK  Name = 
REMARK  7 active torsions:
REMARK  status: ('A' for Active; 'I' for Inactive)
REMARK    1  A    between atoms: C_1  and  C_2
REMARK    2  A    between atoms: N_8  and  C_9
REMARK    3  A    between atoms: C_9  and  C_10
REMARK    4  A    between atoms: C_13  and  O_14
REMARK    5  A    between atoms: O_14  and  C_15
REMARK    6  A    between atoms: C_23  and  C_24
REMARK    7  A    between atoms: C_26  and  C_27
REMARK                            x       y       z     vdW  Elec       q    Type
REMARK                         _______ _______ _______ _____ _____    ______ ____
ROOT
ATOM      1  C   UNL     1      -0.290  15.963  19.009  0.00  0.00    +0.000 C 
ATOM      2  C   UNL     1       0.910  15.056  19.037  0.00  0.00    +0.000 C 
ATOM      3  O   UNL     1       2.052  15.512  18.975  0.00  0.00    +0.000 OA
ATOM      4  N   UNL     1       0.665  13.703  19.130  0.00  0.00    +0.000 N 
ATOM      5  C   UNL     1       1.738  12.776  18.985  0.00  0.00    +0.000 C 
ATOM      6  C   UNL     1       1.103  11.398  18.760  0.00  0.00    +0.000 C 
ATOM      7  C   UNL     1       1.923  10.471  19.682  0.00  0.00    +0.000 C 
ATOM      8  N   UNL     1       1.321   9.162  19.831  0.00  0.00    +0.000 NA
ATOM      9  C   UNL     1       0.018   9.302  20.489  0.00  0.00    +0.000 C 
ATOM     10  C   UNL     1      -0.693  10.691  20.416  0.00  0.00    +0.000 C 
ATOM     11  C   UNL     1      -0.417  11.500  19.120  0.00  0.00    +0.000 C 
ATOM     12  C   UNL     1      -0.624  13.052  19.173  0.00  0.00    +0.000 C 
ENDROOT
BRANCH  11  13
ATOM     13  C   UNL     1      -1.520  11.093  18.140  0.00  0.00    +0.000 A 
ATOM     14  N   UNL     1      -2.742  11.589  18.210  0.00  0.00    +0.000 NA
ATOM     15  C   UNL     1      -3.385  11.102  17.104  0.00  0.00    +0.000 A 
ATOM     16  C   UNL     1      -4.749  11.543  16.725  0.00  0.00    +0.000 C 
ATOM     17  N   UNL     1      -2.638  10.253  16.389  0.00  0.00    +0.000 NA
ATOM     18  N   UNL     1      -1.472  10.270  17.063  0.00  0.00    +0.000 N 
ATOM     19  H   UNL     1      -0.702   9.711  16.706  0.00  0.00    +0.000 HD
ENDBRANCH  11  13
BRANCH   8  20
ATOM     20  C   UNL     1       1.403   8.423  18.573  0.00  0.00    +0.000 C 
BRANCH  20  21
ATOM     21  C   UNL     1       2.616   7.551  18.393  0.00  0.00    +0.000 A 
ATOM     22  C   UNL     1       2.889   6.538  19.320  0.00  0.00    +0.000 A 
ATOM     23  C   UNL     1       3.962   5.679  19.126  0.00  0.00    +0.000 A 
ATOM     24  C   UNL     1       4.780   5.801  18.003  0.00  0.00    +0.000 A 
ATOM     25  C   UNL     1       4.544   6.834  17.097  0.00  0.00    +0.000 A 
ATOM     26  C   UNL     1       3.461   7.701  17.286  0.00  0.00    +0.000 A 
BRANCH  24  27
ATOM     27  O   UNL     1       5.800   4.905  17.951  0.00  0.00    +0.000 OA
BRANCH  27  28
ATOM     28  C   UNL     1       7.131   5.335  18.190  0.00  0.00    +0.000 C 
ATOM     29  F   UNL     1       8.060   4.361  18.108  0.00  0.00    +0.000 F 
ATOM     30  F   UNL     1       7.444   6.308  17.307  0.00  0.00    +0.000 F 
ATOM     31  F   UNL     1       7.194   5.863  19.434  0.00  0.00    +0.000 F 
ENDBRANCH  27  28
ENDBRANCH  24  27
ENDBRANCH  20  21
ENDBRANCH   8  20
TORSDOF 5
ENDMDL
