MODEL 1
REMARK VINA RESULT:      -7.1      0.000      0.000
REMARK  Name = 
REMARK  6 active torsions:
REMARK  status: ('A' for Active; 'I' for Inactive)
REMARK    1  A    between atoms: C_1  and  S_2
REMARK    2  A    between atoms: S_2  and  N_5
REMARK    3  A    between atoms: N_5  and  C_6
REMARK    4  A    between atoms: N_9  and  C_10
REMARK    5  A    between atoms: C_12  and  C_13
REMARK    6  A    between atoms: C_22  and  C_23
REMARK                            x       y       z     vdW  Elec       q    Type
REMARK                         _______ _______ _______ _____ _____    ______ ____
ROOT
ATOM      1  C   UNL     1      -1.092  13.023  20.151  0.00  0.00    +0.000 A 
ATOM      2  N   UNL     1      -0.932  14.280  19.672  0.00  0.00    +0.000 NA
ATOM      3  C   UNL     1       0.138  14.609  18.916  0.00  0.00    +0.000 A 
ATOM      4  N   UNL     1       1.113  13.761  18.542  0.00  0.00    +0.000 NA
ATOM      5  C   UNL     1       0.923  12.513  18.991  0.00  0.00    +0.000 A 
ATOM      6  S   UNL     1       2.045  11.283  18.613  0.00  0.00    +0.000 S 
ATOM      7  C   UNL     1       1.135  10.090  19.434  0.00  0.00    +0.000 A 
ATOM      8  C   UNL     1      -0.006  10.649  19.974  0.00  0.00    +0.000 A 
ATOM      9  C   UNL     1      -0.126  12.064  19.770  0.00  0.00    +0.000 A 
ENDROOT
BRANCH   1  13
ATOM     10  C   UNL     1      -4.314  13.509  22.694  0.00  0.00    +0.000 C 
ATOM     11  C   UNL     1      -4.411  13.663  21.163  0.00  0.00    +0.000 C 
ATOM     12  C   UNL     1      -3.547  12.627  20.444  0.00  0.00    +0.000 C 
ATOM     13  N   UNL     1      -2.188  12.747  20.940  0.00  0.00    +0.000 N 
ATOM     14  C   UNL     1      -2.018  12.440  22.357  0.00  0.00    +0.000 C 
ATOM     15  C   UNL     1      -2.846  13.461  23.141  0.00  0.00    +0.000 C 
BRANCH  10  16
ATOM     16  N   UNL     1      -5.129  12.309  23.094  0.00  0.00    +0.000 NA
ATOM     17  H   UNL     1      -4.937  11.545  22.442  0.00  0.00    +0.000 HD
BRANCH  16  19
ATOM     18  C   UNL     1      -6.927  14.137  23.888  0.00  0.00    +0.000 C 
ATOM     19  S   UNL     1      -6.816  12.522  23.156  0.00  0.00    +0.000 S 
ATOM     20  O   UNL     1      -7.311  11.554  24.108  0.00  0.00    +0.000 OA
ATOM     21  O   UNL     1      -7.324  12.613  21.809  0.00  0.00    +0.000 OA
ENDBRANCH  16  19
ENDBRANCH  10  16
ENDBRANCH   1  13
BRANCH   3  22
ATOM     22  C   UNL     1       0.278  16.027  18.479  0.00  0.00    +0.000 A 
ATOM     23  C   UNL     1      -0.838  16.840  18.239  0.00  0.00    +0.000 A 
ATOM     24  C   UNL     1      -0.660  18.150  17.794  0.00  0.00    +0.000 A 
ATOM     25  C   UNL     1       0.626  18.631  17.597  0.00  0.00    +0.000 A 
ATOM     26  C   UNL     1       1.684  17.781  17.861  0.00  0.00    +0.000 A 
ATOM     27  N   UNL     1       1.540  16.510  18.293  0.00  0.00    +0.000 NA
ENDBRANCH   3  22
BRANCH   7  28
ATOM     28  C   UNL     1       1.543   8.679  19.482  0.00  0.00    +0.000 A 
ATOM     29  C   UNL     1       1.306   7.873  20.604  0.00  0.00    +0.000 A 
ATOM     30  C   UNL     1       1.718   6.537  20.619  0.00  0.00    +0.000 A 
ATOM     31  C   UNL     1       2.357   5.988  19.511  0.00  0.00    +0.000 A 
ATOM     32  C   UNL     1       2.573   6.764  18.377  0.00  0.00    +0.000 A 
ATOM     33  C   UNL     1       2.167   8.098  18.363  0.00  0.00    +0.000 A 
ENDBRANCH   7  28
TORSDOF 5
ENDMDL
MODEL 2
REMARK VINA RESULT:      -6.8      0.831      1.313
REMARK  Name = 
REMARK  6 active torsions:
REMARK  status: ('A' for Active; 'I' for Inactive)
REMARK    1  A    between atoms: C_1  and  S_2
REMARK    2  A    between atoms: S_2  and  N_5
REMARK    3  A    between atoms: N_5  and  C_6
REMARK    4  A    between atoms: N_9  and  C_10
REMARK    5  A    between atoms: C_12  and  C_13
REMARK    6  A    between atoms: C_22  and  C_23
REMARK                            x       y       z     vdW  Elec       q    Type
REMARK                         _______ _______ _______ _____ _____    ______ ____
ROOT
ATOM      1  C   UNL     1      -1.087  13.031  19.813  0.00  0.00    +0.000 A 
ATOM      2  N   UNL     1      -0.871  14.289  19.359  0.00  0.00    +0.000 NA
ATOM      3  C   UNL     1       0.265  14.609  18.701  0.00  0.00    +0.000 A 
ATOM      4  N   UNL     1       1.257  13.751  18.406  0.00  0.00    +0.000 NA
ATOM      5  C   UNL     1       1.014  12.502  18.826  0.00  0.00    +0.000 A 
ATOM      6  S   UNL     1       2.148  11.259  18.537  0.00  0.00    +0.000 S 
ATOM      7  C   UNL     1       1.155  10.073  19.267  0.00  0.00    +0.000 A 
ATOM      8  C   UNL     1      -0.021  10.644  19.711  0.00  0.00    +0.000 A 
ATOM      9  C   UNL     1      -0.105  12.062  19.509  0.00  0.00    +0.000 A 
ENDROOT
BRANCH   1  13
ATOM     10  C   UNL     1      -4.730  13.538  21.698  0.00  0.00    +0.000 C 
ATOM     11  C   UNL     1      -4.587  13.286  20.183  0.00  0.00    +0.000 C 
ATOM     12  C   UNL     1      -3.474  12.279  19.889  0.00  0.00    +0.000 C 
ATOM     13  N   UNL     1      -2.250  12.765  20.502  0.00  0.00    +0.000 N 
ATOM     14  C   UNL     1      -2.282  12.856  21.958  0.00  0.00    +0.000 C 
ATOM     15  C   UNL     1      -3.368  13.871  22.322  0.00  0.00    +0.000 C 
BRANCH  10  16
ATOM     16  N   UNL     1      -5.422  12.346  22.304  0.00  0.00    +0.000 NA
ATOM     17  H   UNL     1      -6.045  11.933  21.606  0.00  0.00    +0.000 HD
BRANCH  16  19
ATOM     18  C   UNL     1      -7.893  11.903  23.256  0.00  0.00    +0.000 C 
ATOM     19  S   UNL     1      -6.339  12.633  23.708  0.00  0.00    +0.000 S 
ATOM     20  O   UNL     1      -6.513  14.066  23.792  0.00  0.00    +0.000 OA
ATOM     21  O   UNL     1      -5.786  11.857  24.792  0.00  0.00    +0.000 OA
ENDBRANCH  16  19
ENDBRANCH  10  16
ENDBRANCH   1  13
BRANCH   3  22
ATOM     22  C   UNL     1       0.460  16.028  18.288  0.00  0.00    +0.000 A 
ATOM     23  C   UNL     1      -0.621  16.902  18.112  0.00  0.00    +0.000 A 
ATOM     24  C   UNL     1      -0.393  18.211  17.688  0.00  0.00    +0.000 A 
ATOM     25  C   UNL     1       0.907  18.630  17.448  0.00  0.00    +0.000 A 
ATOM     26  C   UNL     1       1.929  17.722  17.651  0.00  0.00    +0.000 A 
ATOM     27  N   UNL     1       1.737  16.450  18.061  0.00  0.00    +0.000 NA
ENDBRANCH   3  22
BRANCH   7  28
ATOM     28  C   UNL     1       1.540   8.657  19.339  0.00  0.00    +0.000 A 
ATOM     29  C   UNL     1       2.090   7.979  18.242  0.00  0.00    +0.000 A 
ATOM     30  C   UNL     1       2.436   6.628  18.342  0.00  0.00    +0.000 A 
ATOM     31  C   UNL     1       2.249   5.943  19.540  0.00  0.00    +0.000 A 
ATOM     32  C   UNL     1       1.733   6.608  20.647  0.00  0.00    +0.000 A 
ATOM     33  C   UNL     1       1.384   7.954  20.547  0.00  0.00    +0.000 A 
ENDBRANCH   7  28
TORSDOF 5
ENDMDL
MODEL 3
REMARK VINA RESULT:      -6.6      2.548      7.070
REMARK  Name = 
REMARK  6 active torsions:
REMARK  status: ('A' for Active; 'I' for Inactive)
REMARK    1  A    between atoms: C_1  and  S_2
REMARK    2  A    between atoms: S_2  and  N_5
REMARK    3  A    between atoms: N_5  and  C_6
REMARK    4  A    between atoms: N_9  and  C_10
REMARK    5  A    between atoms: C_12  and  C_13
REMARK    6  A    between atoms: C_22  and  C_23
REMARK                            x       y       z     vdW  Elec       q    Type
REMARK                         _______ _______ _______ _____ _____    ______ ____
ROOT
ATOM      1  C   UNL     1      -0.571  10.878  18.743  0.00  0.00    +0.000 A 
ATOM      2  N   UNL     1       0.149   9.730  18.743  0.00  0.00    +0.000 NA
ATOM      3  C   UNL     1       1.496   9.751  18.649  0.00  0.00    +0.000 A 
ATOM      4  N   UNL     1       2.251  10.861  18.578  0.00  0.00    +0.000 NA
ATOM      5  C   UNL     1       1.530  11.989  18.619  0.00  0.00    +0.000 A 
ATOM      6  S   UNL     1       2.305  13.509  18.554  0.00  0.00    +0.000 S 
ATOM      7  C   UNL     1       0.827  14.359  18.701  0.00  0.00    +0.000 A 
ATOM      8  C   UNL     1      -0.225  13.471  18.803  0.00  0.00    +0.000 A 
ATOM      9  C   UNL     1       0.154  12.090  18.709  0.00  0.00    +0.000 A 
ENDROOT
BRANCH   1  13
ATOM     10  C   UNL     1      -4.577  11.810  18.332  0.00  0.00    +0.000 C 
ATOM     11  C   UNL     1      -3.759  11.085  17.244  0.00  0.00    +0.000 C 
ATOM     12  C   UNL     1      -2.777  10.088  17.859  0.00  0.00    +0.000 C 
ATOM     13  N   UNL     1      -1.945  10.800  18.814  0.00  0.00    +0.000 N 
ATOM     14  C   UNL     1      -2.658  11.360  19.957  0.00  0.00    +0.000 C 
ATOM     15  C   UNL     1      -3.650  12.389  19.410  0.00  0.00    +0.000 C 
BRANCH  10  16
ATOM     16  N   UNL     1      -5.617  10.853  18.848  0.00  0.00    +0.000 NA
ATOM     17  H   UNL     1      -6.155  10.489  18.059  0.00  0.00    +0.000 HD
BRANCH  16  19
ATOM     18  C   UNL     1      -7.642  10.008  20.395  0.00  0.00    +0.000 C 
ATOM     19  S   UNL     1      -6.722  11.471  19.985  0.00  0.00    +0.000 S 
ATOM     20  O   UNL     1      -7.590  12.369  19.258  0.00  0.00    +0.000 OA
ATOM     21  O   UNL     1      -5.997  11.880  21.164  0.00  0.00    +0.000 OA
ENDBRANCH  16  19
ENDBRANCH  10  16
ENDBRANCH   1  13
BRANCH   3  22
ATOM     22  C   UNL     1       2.215   8.446  18.590  0.00  0.00    +0.000 A 
ATOM     23  C   UNL     1       3.070   8.121  17.529  0.00  0.00    +0.000 A 
ATOM     24  C   UNL     1       3.692   6.872  17.495  0.00  0.00    +0.000 A 
ATOM     25  C   UNL     1       3.455   5.969  18.521  0.00  0.00    +0.000 A 
ATOM     26  C   UNL     1       2.609   6.355  19.543  0.00  0.00    +0.000 A 
ATOM     27  N   UNL     1       1.995   7.557  19.600  0.00  0.00    +0.000 NA
ENDBRANCH   3  22
BRANCH   7  28
ATOM     28  C   UNL     1       0.761  15.826  18.751  0.00  0.00    +0.000 A 
ATOM     29  C   UNL     1       1.829  16.603  19.220  0.00  0.00    +0.000 A 
ATOM     30  C   UNL     1       1.730  17.996  19.264  0.00  0.00    +0.000 A 
ATOM     31  C   UNL     1       0.569  18.630  18.828  0.00  0.00    +0.000 A 
ATOM     32  C   UNL     1      -0.489  17.877  18.331  0.00  0.00    +0.000 A 
ATOM     33  C   UNL     1      -0.392  16.486  18.290  0.00  0.00    +0.000 A 
ENDBRANCH   7  28
TORSDOF 5
ENDMDL
MODEL 4
REMARK VINA RESULT:      -6.5      7.785     10.049
REMARK  Name = 
REMARK  6 active torsions:
REMARK  status: ('A' for Active; 'I' for Inactive)
REMARK    1  A    between atoms: C_1  and  S_2
REMARK    2  A    between atoms: S_2  and  N_5
REMARK    3  A    between atoms: N_5  and  C_6
REMARK    4  A    between atoms: N_9  and  C_10
REMARK    5  A    between atoms: C_12  and  C_13
REMARK    6  A    between atoms: C_22  and  C_23
REMARK                            x       y       z     vdW  Elec       q    Type
REMARK                         _______ _______ _______ _____ _____    ______ ____
ROOT
ATOM      1  C   UNL     1       5.889  13.651  22.590  0.00  0.00    +0.000 A 
ATOM      2  N   UNL     1       5.590  13.038  23.761  0.00  0.00    +0.000 NA
ATOM      3  C   UNL     1       6.425  12.127  24.307  0.00  0.00    +0.000 A 
ATOM      4  N   UNL     1       7.612  11.759  23.793  0.00  0.00    +0.000 NA
ATOM      5  C   UNL     1       7.913  12.400  22.655  0.00  0.00    +0.000 A 
ATOM      6  S   UNL     1       9.385  12.081  21.852  0.00  0.00    +0.000 S 
ATOM      7  C   UNL     1       9.062  13.237  20.632  0.00  0.00    +0.000 A 
ATOM      8  C   UNL     1       7.845  13.846  20.864  0.00  0.00    +0.000 A 
ATOM      9  C   UNL     1       7.138  13.343  22.006  0.00  0.00    +0.000 A 
ENDROOT
BRANCH   1  13
ATOM     10  C   UNL     1       4.187  16.521  20.151  0.00  0.00    +0.000 C 
ATOM     11  C   UNL     1       4.115  15.008  19.858  0.00  0.00    +0.000 C 
ATOM     12  C   UNL     1       3.921  14.202  21.143  0.00  0.00    +0.000 C 
ATOM     13  N   UNL     1       4.989  14.552  22.063  0.00  0.00    +0.000 N 
ATOM     14  C   UNL     1       4.994  15.942  22.505  0.00  0.00    +0.000 C 
ATOM     15  C   UNL     1       5.207  16.809  21.261  0.00  0.00    +0.000 C 
BRANCH  10  16
ATOM     16  N   UNL     1       2.793  17.006  20.440  0.00  0.00    +0.000 NA
ATOM     17  H   UNL     1       2.347  16.363  21.099  0.00  0.00    +0.000 HD
BRANCH  16  19
ATOM     18  C   UNL     1       0.843  18.630  19.563  0.00  0.00    +0.000 C 
ATOM     19  S   UNL     1       1.755  17.177  19.103  0.00  0.00    +0.000 S 
ATOM     20  O   UNL     1       0.859  16.044  19.139  0.00  0.00    +0.000 OA
ATOM     21  O   UNL     1       2.544  17.502  17.940  0.00  0.00    +0.000 OA
ENDBRANCH  16  19
ENDBRANCH  10  16
ENDBRANCH   1  13
BRANCH   3  22
ATOM     22  C   UNL     1       5.998  11.449  25.564  0.00  0.00    +0.000 A 
ATOM     23  C   UNL     1       6.756  11.527  26.740  0.00  0.00    +0.000 A 
ATOM     24  C   UNL     1       6.338  10.844  27.882  0.00  0.00    +0.000 A 
ATOM     25  C   UNL     1       5.170  10.097  27.836  0.00  0.00    +0.000 A 
ATOM     26  C   UNL     1       4.463  10.069  26.648  0.00  0.00    +0.000 A 
ATOM     27  N   UNL     1       4.845  10.721  25.529  0.00  0.00    +0.000 NA
ENDBRANCH   3  22
BRANCH   7  28
ATOM     28  C   UNL     1      10.009  13.524  19.546  0.00  0.00    +0.000 A 
ATOM     29  C   UNL     1      11.104  14.381  19.721  0.00  0.00    +0.000 A 
ATOM     30  C   UNL     1      11.980  14.640  18.663  0.00  0.00    +0.000 A 
ATOM     31  C   UNL     1      11.781  14.036  17.424  0.00  0.00    +0.000 A 
ATOM     32  C   UNL     1      10.717  13.160  17.241  0.00  0.00    +0.000 A 
ATOM     33  C   UNL     1       9.840  12.904  18.295  0.00  0.00    +0.000 A 
ENDBRANCH   7  28
TORSDOF 5
ENDMDL
MODEL 5
REMARK VINA RESULT:      -6.5      4.680      7.908
REMARK  Name = 
REMARK  6 active torsions:
REMARK  status: ('A' for Active; 'I' for Inactive)
REMARK    1  A    between atoms: C_1  and  S_2
REMARK    2  A    between atoms: S_2  and  N_5
REMARK    3  A    between atoms: N_5  and  C_6
REMARK    4  A    between atoms: N_9  and  C_10
REMARK    5  A    between atoms: C_12  and  C_13
REMARK    6  A    between atoms: C_22  and  C_23
REMARK                            x       y       z     vdW  Elec       q    Type
REMARK                         _______ _______ _______ _____ _____    ______ ____
ROOT
ATOM      1  C   UNL     1       0.778  11.067  19.603  0.00  0.00    +0.000 A 
ATOM      2  N   UNL     1       1.872  11.788  19.950  0.00  0.00    +0.000 NA
ATOM      3  C   UNL     1       1.772  13.093  20.284  0.00  0.00    +0.000 A 
ATOM      4  N   UNL     1       0.625  13.793  20.337  0.00  0.00    +0.000 NA
ATOM      5  C   UNL     1      -0.453  13.059  20.029  0.00  0.00    +0.000 A 
ATOM      6  S   UNL     1      -2.008  13.763  20.052  0.00  0.00    +0.000 S 
ATOM      7  C   UNL     1      -2.769  12.288  19.635  0.00  0.00    +0.000 A 
ATOM      8  C   UNL     1      -1.826  11.289  19.494  0.00  0.00    +0.000 A 
ATOM      9  C   UNL     1      -0.471  11.724  19.671  0.00  0.00    +0.000 A 
ENDROOT
BRANCH   1  13
ATOM     10  C   UNL     1       2.524   7.405  18.813  0.00  0.00    +0.000 C 
ATOM     11  C   UNL     1       2.047   7.831  20.216  0.00  0.00    +0.000 C 
ATOM     12  C   UNL     1       0.740   8.622  20.143  0.00  0.00    +0.000 C 
ATOM     13  N   UNL     1       0.940   9.746  19.245  0.00  0.00    +0.000 N 
ATOM     14  C   UNL     1       1.226   9.387  17.860  0.00  0.00    +0.000 C 
ATOM     15  C   UNL     1       2.542   8.606  17.858  0.00  0.00    +0.000 C 
BRANCH  10  16
ATOM     16  N   UNL     1       1.663   6.257  18.358  0.00  0.00    +0.000 NA
ATOM     17  H   UNL     1       0.976   6.048  19.086  0.00  0.00    +0.000 HD
BRANCH  16  19
ATOM     18  C   UNL     1       2.905   4.224  19.596  0.00  0.00    +0.000 C 
ATOM     19  S   UNL     1       2.468   4.808  17.977  0.00  0.00    +0.000 S 
ATOM     20  O   UNL     1       3.679   5.188  17.285  0.00  0.00    +0.000 OA
ATOM     21  O   UNL     1       1.516   3.880  17.416  0.00  0.00    +0.000 OA
ENDBRANCH  16  19
ENDBRANCH  10  16
ENDBRANCH   1  13
BRANCH   3  22
ATOM     22  C   UNL     1       3.027  13.836  20.592  0.00  0.00    +0.000 A 
ATOM     23  C   UNL     1       3.664  14.638  19.636  0.00  0.00    +0.000 A 
ATOM     24  C   UNL     1       4.858  15.285  19.957  0.00  0.00    +0.000 A 
ATOM     25  C   UNL     1       5.396  15.125  21.225  0.00  0.00    +0.000 A 
ATOM     26  C   UNL     1       4.713  14.328  22.125  0.00  0.00    +0.000 A 
ATOM     27  N   UNL     1       3.556  13.692  21.840  0.00  0.00    +0.000 NA
ENDBRANCH   3  22
BRANCH   7  28
ATOM     28  C   UNL     1      -4.227  12.160  19.507  0.00  0.00    +0.000 A 
ATOM     29  C   UNL     1      -5.102  12.571  20.522  0.00  0.00    +0.000 A 
ATOM     30  C   UNL     1      -6.484  12.426  20.371  0.00  0.00    +0.000 A 
ATOM     31  C   UNL     1      -7.008  11.883  19.201  0.00  0.00    +0.000 A 
ATOM     32  C   UNL     1      -6.157  11.498  18.171  0.00  0.00    +0.000 A 
ATOM     33  C   UNL     1      -4.778  11.639  18.322  0.00  0.00    +0.000 A 
ENDBRANCH   7  28
TORSDOF 5
ENDMDL
MODEL 6
REMARK VINA RESULT:      -6.5      0.939      1.237
REMARK  Name = 
REMARK  6 active torsions:
REMARK  status: ('A' for Active; 'I' for Inactive)
REMARK    1  A    between atoms: C_1  and  S_2
REMARK    2  A    between atoms: S_2  and  N_5
REMARK    3  A    between atoms: N_5  and  C_6
REMARK    4  A    between atoms: N_9  and  C_10
REMARK    5  A    between atoms: C_12  and  C_13
REMARK    6  A    between atoms: C_22  and  C_23
REMARK                            x       y       z     vdW  Elec       q    Type
REMARK                         _______ _______ _______ _____ _____    ______ ____
ROOT
ATOM      1  C   UNL     1      -1.143  12.842  19.594  0.00  0.00    +0.000 A 
ATOM      2  N   UNL     1      -0.919  14.121  19.206  0.00  0.00    +0.000 NA
ATOM      3  C   UNL     1       0.267  14.493  18.678  0.00  0.00    +0.000 A 
ATOM      4  N   UNL     1       1.308  13.672  18.457  0.00  0.00    +0.000 NA
ATOM      5  C   UNL     1       1.060  12.403  18.808  0.00  0.00    +0.000 A 
ATOM      6  S   UNL     1       2.254  11.201  18.593  0.00  0.00    +0.000 S 
ATOM      7  C   UNL     1       1.227   9.964  19.180  0.00  0.00    +0.000 A 
ATOM      8  C   UNL     1      -0.004  10.488  19.521  0.00  0.00    +0.000 A 
ATOM      9  C   UNL     1      -0.108  11.910  19.359  0.00  0.00    +0.000 A 
ENDROOT
BRANCH   1  13
ATOM     10  C   UNL     1      -5.017  13.161  21.000  0.00  0.00    +0.000 C 
ATOM     11  C   UNL     1      -4.672  12.853  19.529  0.00  0.00    +0.000 C 
ATOM     12  C   UNL     1      -3.465  11.920  19.425  0.00  0.00    +0.000 C 
ATOM     13  N   UNL     1      -2.362  12.521  20.152  0.00  0.00    +0.000 N 
ATOM     14  C   UNL     1      -2.579  12.675  21.587  0.00  0.00    +0.000 C 
ATOM     15  C   UNL     1      -3.768  13.622  21.764  0.00  0.00    +0.000 C 
BRANCH  10  16
ATOM     16  N   UNL     1      -5.695  11.950  21.582  0.00  0.00    +0.000 NA
ATOM     17  H   UNL     1      -5.732  11.216  20.871  0.00  0.00    +0.000 HD
BRANCH  16  19
ATOM     18  C   UNL     1      -6.945  12.644  23.855  0.00  0.00    +0.000 C 
ATOM     19  S   UNL     1      -7.274  12.175  22.174  0.00  0.00    +0.000 S 
ATOM     20  O   UNL     1      -7.895  10.869  22.176  0.00  0.00    +0.000 OA
ATOM     21  O   UNL     1      -7.864  13.310  21.507  0.00  0.00    +0.000 OA
ENDBRANCH  16  19
ENDBRANCH  10  16
ENDBRANCH   1  13
BRANCH   3  22
ATOM     22  C   UNL     1       0.461  15.931  18.335  0.00  0.00    +0.000 A 
ATOM     23  C   UNL     1       1.687  16.419  17.863  0.00  0.00    +0.000 A 
ATOM     24  C   UNL     1       1.835  17.779  17.591  0.00  0.00    +0.000 A 
ATOM     25  C   UNL     1       0.759  18.631  17.790  0.00  0.00    +0.000 A 
ATOM     26  C   UNL     1      -0.426  18.085  18.248  0.00  0.00    +0.000 A 
ATOM     27  N   UNL     1      -0.595  16.773  18.518  0.00  0.00    +0.000 NA
ENDBRANCH   3  22
BRANCH   7  28
ATOM     28  C   UNL     1       1.644   8.557  19.242  0.00  0.00    +0.000 A 
ATOM     29  C   UNL     1       1.480   7.783  20.399  0.00  0.00    +0.000 A 
ATOM     30  C   UNL     1       1.897   6.449  20.427  0.00  0.00    +0.000 A 
ATOM     31  C   UNL     1       2.469   5.869  19.298  0.00  0.00    +0.000 A 
ATOM     32  C   UNL     1       2.611   6.613  18.131  0.00  0.00    +0.000 A 
ATOM     33  C   UNL     1       2.199   7.945  18.104  0.00  0.00    +0.000 A 
ENDBRANCH   7  28
TORSDOF 5
ENDMDL
MODEL 7
REMARK VINA RESULT:      -6.5      4.628      7.965
REMARK  Name = 
REMARK  6 active torsions:
REMARK  status: ('A' for Active; 'I' for Inactive)
REMARK    1  A    between atoms: C_1  and  S_2
REMARK    2  A    between atoms: S_2  and  N_5
REMARK    3  A    between atoms: N_5  and  C_6
REMARK    4  A    between atoms: N_9  and  C_10
REMARK    5  A    between atoms: C_12  and  C_13
REMARK    6  A    between atoms: C_22  and  C_23
REMARK                            x       y       z     vdW  Elec       q    Type
REMARK                         _______ _______ _______ _____ _____    ______ ____
ROOT
ATOM      1  C   UNL     1       0.769  11.034  19.541  0.00  0.00    +0.000 A 
ATOM      2  N   UNL     1       1.856  11.758  19.900  0.00  0.00    +0.000 NA
ATOM      3  C   UNL     1       1.747  13.063  20.234  0.00  0.00    +0.000 A 
ATOM      4  N   UNL     1       0.597  13.758  20.278  0.00  0.00    +0.000 NA
ATOM      5  C   UNL     1      -0.475  13.020  19.958  0.00  0.00    +0.000 A 
ATOM      6  S   UNL     1      -2.033  13.716  19.967  0.00  0.00    +0.000 S 
ATOM      7  C   UNL     1      -2.784  12.239  19.541  0.00  0.00    +0.000 A 
ATOM      8  C   UNL     1      -1.835  11.244  19.407  0.00  0.00    +0.000 A 
ATOM      9  C   UNL     1      -0.483  11.685  19.598  0.00  0.00    +0.000 A 
ENDROOT
BRANCH   1  13
ATOM     10  C   UNL     1       2.539   7.382  18.756  0.00  0.00    +0.000 C 
ATOM     11  C   UNL     1       2.054   7.805  20.158  0.00  0.00    +0.000 C 
ATOM     12  C   UNL     1       0.743   8.588  20.079  0.00  0.00    +0.000 C 
ATOM     13  N   UNL     1       0.940   9.714  19.183  0.00  0.00    +0.000 N 
ATOM     14  C   UNL     1       1.234   9.358  17.799  0.00  0.00    +0.000 C 
ATOM     15  C   UNL     1       2.554   8.585  17.803  0.00  0.00    +0.000 C 
BRANCH  10  16
ATOM     16  N   UNL     1       1.687   6.230  18.296  0.00  0.00    +0.000 NA
ATOM     17  H   UNL     1       0.878   6.147  18.917  0.00  0.00    +0.000 HD
BRANCH  16  19
ATOM     18  C   UNL     1       3.953   5.115  17.385  0.00  0.00    +0.000 C 
ATOM     19  S   UNL     1       2.442   4.707  18.226  0.00  0.00    +0.000 S 
ATOM     20  O   UNL     1       1.633   3.895  17.345  0.00  0.00    +0.000 OA
ATOM     21  O   UNL     1       2.781   4.293  19.566  0.00  0.00    +0.000 OA
ENDBRANCH  16  19
ENDBRANCH  10  16
ENDBRANCH   1  13
BRANCH   3  22
ATOM     22  C   UNL     1       2.996  13.811  20.556  0.00  0.00    +0.000 A 
ATOM     23  C   UNL     1       3.660  14.587  19.597  0.00  0.00    +0.000 A 
ATOM     24  C   UNL     1       4.847  15.239  19.932  0.00  0.00    +0.000 A 
ATOM     25  C   UNL     1       5.351  15.111  21.217  0.00  0.00    +0.000 A 
ATOM     26  C   UNL     1       4.643  14.339  22.119  0.00  0.00    +0.000 A 
ATOM     27  N   UNL     1       3.492  13.698  21.821  0.00  0.00    +0.000 NA
ENDBRANCH   3  22
BRANCH   7  28
ATOM     28  C   UNL     1      -4.240  12.105  19.398  0.00  0.00    +0.000 A 
ATOM     29  C   UNL     1      -4.827  11.538  18.259  0.00  0.00    +0.000 A 
ATOM     30  C   UNL     1      -6.217  11.436  18.152  0.00  0.00    +0.000 A 
ATOM     31  C   UNL     1      -7.035  11.885  19.186  0.00  0.00    +0.000 A 
ATOM     32  C   UNL     1      -6.468  12.423  20.337  0.00  0.00    +0.000 A 
ATOM     33  C   UNL     1      -5.082  12.529  20.442  0.00  0.00    +0.000 A 
ENDBRANCH   7  28
TORSDOF 5
ENDMDL
MODEL 8
REMARK VINA RESULT:      -6.5      4.494      7.315
REMARK  Name = 
REMARK  6 active torsions:
REMARK  status: ('A' for Active; 'I' for Inactive)
REMARK    1  A    between atoms: C_1  and  S_2
REMARK    2  A    between atoms: S_2  and  N_5
REMARK    3  A    between atoms: N_5  and  C_6
REMARK    4  A    between atoms: N_9  and  C_10
REMARK    5  A    between atoms: C_12  and  C_13
REMARK    6  A    between atoms: C_22  and  C_23
REMARK                            x       y       z     vdW  Elec       q    Type
REMARK                         _______ _______ _______ _____ _____    ______ ____
ROOT
ATOM      1  C   UNL     1       1.080  12.199  21.059  0.00  0.00    +0.000 A 
ATOM      2  N   UNL     1       0.204  12.870  21.843  0.00  0.00    +0.000 NA
ATOM      3  C   UNL     1      -0.794  12.226  22.487  0.00  0.00    +0.000 A 
ATOM      4  N   UNL     1      -1.009  10.899  22.452  0.00  0.00    +0.000 NA
ATOM      5  C   UNL     1      -0.112  10.242  21.704  0.00  0.00    +0.000 A 
ATOM      6  S   UNL     1      -0.205   8.545  21.543  0.00  0.00    +0.000 S 
ATOM      7  C   UNL     1       1.200   8.481  20.567  0.00  0.00    +0.000 A 
ATOM      8  C   UNL     1       1.714   9.750  20.389  0.00  0.00    +0.000 A 
ATOM      9  C   UNL     1       0.942  10.794  21.000  0.00  0.00    +0.000 A 
ENDROOT
BRANCH   1  13
ATOM     10  C   UNL     1       3.058  15.232  19.066  0.00  0.00    +0.000 C 
ATOM     11  C   UNL     1       2.999  15.125  20.604  0.00  0.00    +0.000 C 
ATOM     12  C   UNL     1       3.105  13.671  21.064  0.00  0.00    +0.000 C 
ATOM     13  N   UNL     1       2.062  12.908  20.402  0.00  0.00    +0.000 N 
ATOM     14  C   UNL     1       2.176  12.838  18.949  0.00  0.00    +0.000 C 
ATOM     15  C   UNL     1       2.055  14.268  18.418  0.00  0.00    +0.000 C 
BRANCH  10  16
ATOM     16  N   UNL     1       4.487  15.029  18.641  0.00  0.00    +0.000 NA
ATOM     17  H   UNL     1       4.783  14.089  18.909  0.00  0.00    +0.000 HD
BRANCH  16  19
ATOM     18  C   UNL     1       6.981  15.888  18.136  0.00  0.00    +0.000 C 
ATOM     19  S   UNL     1       5.628  16.128  19.262  0.00  0.00    +0.000 S 
ATOM     20  O   UNL     1       6.015  15.618  20.558  0.00  0.00    +0.000 OA
ATOM     21  O   UNL     1       5.132  17.470  19.076  0.00  0.00    +0.000 OA
ENDBRANCH  16  19
ENDBRANCH  10  16
ENDBRANCH   1  13
BRANCH   3  22
ATOM     22  C   UNL     1      -1.758  13.041  23.281  0.00  0.00    +0.000 A 
ATOM     23  C   UNL     1      -1.416  14.302  23.789  0.00  0.00    +0.000 A 
ATOM     24  C   UNL     1      -2.337  15.013  24.559  0.00  0.00    +0.000 A 
ATOM     25  C   UNL     1      -3.584  14.459  24.808  0.00  0.00    +0.000 A 
ATOM     26  C   UNL     1      -3.862  13.216  24.269  0.00  0.00    +0.000 A 
ATOM     27  N   UNL     1      -2.989  12.507  23.521  0.00  0.00    +0.000 NA
ENDBRANCH   3  22
BRANCH   7  28
ATOM     28  C   UNL     1       1.752   7.218  20.061  0.00  0.00    +0.000 A 
ATOM     29  C   UNL     1       2.488   7.151  18.871  0.00  0.00    +0.000 A 
ATOM     30  C   UNL     1       2.991   5.930  18.413  0.00  0.00    +0.000 A 
ATOM     31  C   UNL     1       2.777   4.765  19.145  0.00  0.00    +0.000 A 
ATOM     32  C   UNL     1       2.075   4.817  20.344  0.00  0.00    +0.000 A 
ATOM     33  C   UNL     1       1.569   6.034  20.799  0.00  0.00    +0.000 A 
ENDBRANCH   7  28
TORSDOF 5
ENDMDL
MODEL 9
REMARK VINA RESULT:      -6.5      4.455      7.744
REMARK  Name = 
REMARK  6 active torsions:
REMARK  status: ('A' for Active; 'I' for Inactive)
REMARK    1  A    between atoms: C_1  and  S_2
REMARK    2  A    between atoms: S_2  and  N_5
REMARK    3  A    between atoms: N_5  and  C_6
REMARK    4  A    between atoms: N_9  and  C_10
REMARK    5  A    between atoms: C_12  and  C_13
REMARK    6  A    between atoms: C_22  and  C_23
REMARK                            x       y       z     vdW  Elec       q    Type
REMARK                         _______ _______ _______ _____ _____    ______ ____
ROOT
ATOM      1  C   UNL     1       0.953  11.327  19.338  0.00  0.00    +0.000 A 
ATOM      2  N   UNL     1       2.097  12.053  19.306  0.00  0.00    +0.000 NA
ATOM      3  C   UNL     1       2.081  13.391  19.489  0.00  0.00    +0.000 A 
ATOM      4  N   UNL     1       0.983  14.125  19.743  0.00  0.00    +0.000 NA
ATOM      5  C   UNL     1      -0.135  13.391  19.811  0.00  0.00    +0.000 A 
ATOM      6  S   UNL     1      -1.636  14.136  20.138  0.00  0.00    +0.000 S 
ATOM      7  C   UNL     1      -2.473  12.644  20.113  0.00  0.00    +0.000 A 
ATOM      8  C   UNL     1      -1.595  11.609  19.863  0.00  0.00    +0.000 A 
ATOM      9  C   UNL     1      -0.240  12.023  19.637  0.00  0.00    +0.000 A 
ENDROOT
BRANCH   1  13
ATOM     10  C   UNL     1       2.436   7.489  18.950  0.00  0.00    +0.000 C 
ATOM     11  C   UNL     1       1.978   8.089  20.295  0.00  0.00    +0.000 C 
ATOM     12  C   UNL     1       0.732   8.958  20.120  0.00  0.00    +0.000 C 
ATOM     13  N   UNL     1       1.022   9.969  19.117  0.00  0.00    +0.000 N 
ATOM     14  C   UNL     1       1.295   9.452  17.780  0.00  0.00    +0.000 C 
ATOM     15  C   UNL     1       2.551   8.583  17.881  0.00  0.00    +0.000 C 
BRANCH  10  16
ATOM     16  N   UNL     1       1.499   6.365  18.599  0.00  0.00    +0.000 NA
ATOM     17  H   UNL     1       0.909   6.160  19.407  0.00  0.00    +0.000 HD
BRANCH  16  19
ATOM     18  C   UNL     1       2.515   4.119  19.664  0.00  0.00    +0.000 C 
ATOM     19  S   UNL     1       2.217   4.906  18.099  0.00  0.00    +0.000 S 
ATOM     20  O   UNL     1       3.491   5.261  17.515  0.00  0.00    +0.000 OA
ATOM     21  O   UNL     1       1.233   4.122  17.392  0.00  0.00    +0.000 OA
ENDBRANCH  16  19
ENDBRANCH  10  16
ENDBRANCH   1  13
BRANCH   3  22
ATOM     22  C   UNL     1       3.371  14.130  19.376  0.00  0.00    +0.000 A 
ATOM     23  C   UNL     1       4.028  14.646  20.501  0.00  0.00    +0.000 A 
ATOM     24  C   UNL     1       5.213  15.364  20.344  0.00  0.00    +0.000 A 
ATOM     25  C   UNL     1       5.727  15.554  19.070  0.00  0.00    +0.000 A 
ATOM     26  C   UNL     1       5.036  15.010  18.003  0.00  0.00    +0.000 A 
ATOM     27  N   UNL     1       3.887  14.311  18.127  0.00  0.00    +0.000 NA
ENDBRANCH   3  22
BRANCH   7  28
ATOM     28  C   UNL     1      -3.916  12.544  20.374  0.00  0.00    +0.000 A 
ATOM     29  C   UNL     1      -4.466  12.825  21.632  0.00  0.00    +0.000 A 
ATOM     30  C   UNL     1      -5.842  12.710  21.849  0.00  0.00    +0.000 A 
ATOM     31  C   UNL     1      -6.685  12.327  20.809  0.00  0.00    +0.000 A 
ATOM     32  C   UNL     1      -6.161  12.074  19.546  0.00  0.00    +0.000 A 
ATOM     33  C   UNL     1      -4.788  12.184  19.331  0.00  0.00    +0.000 A 
ENDBRANCH   7  28
TORSDOF 5
ENDMDL
