MODEL 1
REMARK VINA RESULT:      -6.6      0.000      0.000
REMARK  Name = 
REMARK  8 active torsions:
REMARK  status: ('A' for Active; 'I' for Inactive)
REMARK    1  A    between atoms: C_1  and  C_2
REMARK    2  A    between atoms: C_2  and  C_3
REMARK    3  A    between atoms: C_3  and  O_4
REMARK    4  A    between atoms: O_4  and  C_5
REMARK    5  A    between atoms: C_10  and  C_11
REMARK    6  A    between atoms: C_11  and  C_12
REMARK    7  A    between atoms: C_11  and  C_13
REMARK    8  A    between atoms: C_14  and  O_15
REMARK                            x       y       z     vdW  Elec       q    Type
REMARK                         _______ _______ _______ _____ _____    ______ ____
ROOT
ATOM      1  C   UNL     1       6.078   4.926  17.038  0.00  0.00    +0.000 C 
ATOM      2  C   UNL     1       4.939   5.593  16.120  0.00  0.00    +0.000 C 
ATOM      3  C   UNL     1       4.114   5.226  17.310  0.00  0.00    +0.000 A 
ATOM      4  C   UNL     1       3.568   5.847  18.421  0.00  0.00    +0.000 A 
ATOM      5  C   UNL     1       3.247   5.061  19.519  0.00  0.00    +0.000 A 
ATOM      6  C   UNL     1       3.313   3.687  19.428  0.00  0.00    +0.000 A 
ATOM      7  C   UNL     1       4.127   3.179  18.364  0.00  0.00    +0.000 A 
ATOM      8  C   UNL     1       4.733   3.990  17.385  0.00  0.00    +0.000 A 
ENDROOT
BRANCH   6   9
ATOM      9  C   UNL     1       2.274   2.860  20.207  0.00  0.00    +0.000 C 
ATOM     10  C   UNL     1       2.143   3.163  21.700  0.00  0.00    +0.000 C 
ATOM     11  C   UNL     1       0.854   2.862  19.594  0.00  0.00    +0.000 C 
ENDBRANCH   6   9
BRANCH   1  13
ATOM     12  C   UNL     1       6.747   4.682  14.500  0.00  0.00    +0.000 C 
ATOM     13  C   UNL     1       7.122   4.543  15.967  0.00  0.00    +0.000 C 
ENDBRANCH   1  13
BRANCH   1  14
ATOM     14  O   UNL     1       6.463   5.986  17.982  0.00  0.00    +0.000 OA
ATOM     15  C   UNL     1       7.462   6.953  17.799  0.00  0.00    +0.000 C 
ENDBRANCH   1  14
BRANCH   7  16
ATOM     16  O   UNL     1       3.764   1.906  17.881  0.00  0.00    +0.000 OA
ATOM     17  H   UNL     1       3.707   1.999  16.922  0.00  0.00    +0.000 HD
ENDBRANCH   7  16
TORSDOF 4
ENDMDL
MODEL 2
REMARK VINA RESULT:      -6.5      1.533      5.471
REMARK  Name = 
REMARK  8 active torsions:
REMARK  status: ('A' for Active; 'I' for Inactive)
REMARK    1  A    between atoms: C_1  and  C_2
REMARK    2  A    between atoms: C_2  and  C_3
REMARK    3  A    between atoms: C_3  and  O_4
REMARK    4  A    between atoms: O_4  and  C_5
REMARK    5  A    between atoms: C_10  and  C_11
REMARK    6  A    between atoms: C_11  and  C_12
REMARK    7  A    between atoms: C_11  and  C_13
REMARK    8  A    between atoms: C_14  and  O_15
REMARK                            x       y       z     vdW  Elec       q    Type
REMARK                         _______ _______ _______ _____ _____    ______ ____
ROOT
ATOM      1  C   UNL     1       2.481   4.614  19.915  0.00  0.00    +0.000 C 
ATOM      2  C   UNL     1       2.252   6.193  20.117  0.00  0.00    +0.000 C 
ATOM      3  C   UNL     1       3.285   6.228  19.039  0.00  0.00    +0.000 A 
ATOM      4  C   UNL     1       3.343   6.423  17.668  0.00  0.00    +0.000 A 
ATOM      5  C   UNL     1       4.445   5.931  16.984  0.00  0.00    +0.000 A 
ATOM      6  C   UNL     1       5.522   5.423  17.680  0.00  0.00    +0.000 A 
ATOM      7  C   UNL     1       5.249   5.028  19.030  0.00  0.00    +0.000 A 
ATOM      8  C   UNL     1       4.016   5.241  19.676  0.00  0.00    +0.000 A 
ENDROOT
BRANCH   6   9
ATOM      9  C   UNL     1       6.930   5.649  17.101  0.00  0.00    +0.000 C 
ATOM     10  C   UNL     1       7.150   5.207  15.654  0.00  0.00    +0.000 C 
ATOM     11  C   UNL     1       7.464   7.093  17.245  0.00  0.00    +0.000 C 
ENDBRANCH   6   9
BRANCH   1  13
ATOM     12  C   UNL     1       2.323   2.643  21.657  0.00  0.00    +0.000 C 
ATOM     13  C   UNL     1       1.990   4.076  21.276  0.00  0.00    +0.000 C 
ENDBRANCH   1  13
BRANCH   1  14
ATOM     14  O   UNL     1       1.669   4.268  18.739  0.00  0.00    +0.000 OA
ATOM     15  C   UNL     1       1.767   3.105  17.962  0.00  0.00    +0.000 C 
ENDBRANCH   1  14
BRANCH   7  16
ATOM     16  O   UNL     1       6.350   5.080  19.908  0.00  0.00    +0.000 OA
ATOM     17  H   UNL     1       6.106   4.530  20.662  0.00  0.00    +0.000 HD
ENDBRANCH   7  16
TORSDOF 4
ENDMDL
MODEL 3
REMARK VINA RESULT:      -6.4      1.240      1.369
REMARK  Name = 
REMARK  8 active torsions:
REMARK  status: ('A' for Active; 'I' for Inactive)
REMARK    1  A    between atoms: C_1  and  C_2
REMARK    2  A    between atoms: C_2  and  C_3
REMARK    3  A    between atoms: C_3  and  O_4
REMARK    4  A    between atoms: O_4  and  C_5
REMARK    5  A    between atoms: C_10  and  C_11
REMARK    6  A    between atoms: C_11  and  C_12
REMARK    7  A    between atoms: C_11  and  C_13
REMARK    8  A    between atoms: C_14  and  O_15
REMARK                            x       y       z     vdW  Elec       q    Type
REMARK                         _______ _______ _______ _____ _____    ______ ____
ROOT
ATOM      1  C   UNL     1       5.870   4.989  16.351  0.00  0.00    +0.000 C 
ATOM      2  C   UNL     1       5.131   6.354  15.930  0.00  0.00    +0.000 C 
ATOM      3  C   UNL     1       4.286   5.963  17.098  0.00  0.00    +0.000 A 
ATOM      4  C   UNL     1       4.141   6.308  18.432  0.00  0.00    +0.000 A 
ATOM      5  C   UNL     1       3.542   5.391  19.284  0.00  0.00    +0.000 A 
ATOM      6  C   UNL     1       2.957   4.252  18.773  0.00  0.00    +0.000 A 
ATOM      7  C   UNL     1       3.393   3.872  17.461  0.00  0.00    +0.000 A 
ATOM      8  C   UNL     1       4.262   4.648  16.669  0.00  0.00    +0.000 A 
ENDROOT
BRANCH   6   9
ATOM      9  C   UNL     1       1.689   3.717  19.463  0.00  0.00    +0.000 C 
ATOM     10  C   UNL     1       1.762   2.292  20.011  0.00  0.00    +0.000 C 
ATOM     11  C   UNL     1       1.127   4.629  20.578  0.00  0.00    +0.000 C 
ENDBRANCH   6   9
BRANCH   1  13
ATOM     12  C   UNL     1       5.741   3.972  13.922  0.00  0.00    +0.000 C 
ATOM     13  C   UNL     1       6.566   4.618  15.023  0.00  0.00    +0.000 C 
ENDBRANCH   1  13
BRANCH   1  14
ATOM     14  O   UNL     1       6.746   5.368  17.469  0.00  0.00    +0.000 OA
ATOM     15  C   UNL     1       7.804   4.618  18.001  0.00  0.00    +0.000 C 
ENDBRANCH   1  14
BRANCH   7  16
ATOM     16  O   UNL     1       2.459   3.139  16.704  0.00  0.00    +0.000 OA
ATOM     17  H   UNL     1       2.680   2.211  16.846  0.00  0.00    +0.000 HD
ENDBRANCH   7  16
TORSDOF 4
ENDMDL
MODEL 4
REMARK VINA RESULT:      -6.3      0.560      1.011
REMARK  Name = 
REMARK  8 active torsions:
REMARK  status: ('A' for Active; 'I' for Inactive)
REMARK    1  A    between atoms: C_1  and  C_2
REMARK    2  A    between atoms: C_2  and  C_3
REMARK    3  A    between atoms: C_3  and  O_4
REMARK    4  A    between atoms: O_4  and  C_5
REMARK    5  A    between atoms: C_10  and  C_11
REMARK    6  A    between atoms: C_11  and  C_12
REMARK    7  A    between atoms: C_11  and  C_13
REMARK    8  A    between atoms: C_14  and  O_15
REMARK                            x       y       z     vdW  Elec       q    Type
REMARK                         _______ _______ _______ _____ _____    ______ ____
ROOT
ATOM      1  C   UNL     1       5.954   5.012  17.258  0.00  0.00    +0.000 C 
ATOM      2  C   UNL     1       4.890   5.589  16.199  0.00  0.00    +0.000 C 
ATOM      3  C   UNL     1       4.012   5.486  17.404  0.00  0.00    +0.000 A 
ATOM      4  C   UNL     1       3.485   6.323  18.374  0.00  0.00    +0.000 A 
ATOM      5  C   UNL     1       3.081   5.759  19.575  0.00  0.00    +0.000 A 
ATOM      6  C   UNL     1       3.048   4.388  19.720  0.00  0.00    +0.000 A 
ATOM      7  C   UNL     1       3.849   3.652  18.786  0.00  0.00    +0.000 A 
ATOM      8  C   UNL     1       4.537   4.242  17.707  0.00  0.00    +0.000 A 
ENDROOT
BRANCH   6   9
ATOM      9  C   UNL     1       1.933   3.778  20.587  0.00  0.00    +0.000 C 
ATOM     10  C   UNL     1       0.708   3.243  19.844  0.00  0.00    +0.000 C 
ATOM     11  C   UNL     1       2.406   2.686  21.575  0.00  0.00    +0.000 C 
ENDBRANCH   6   9
BRANCH   1  13
ATOM     12  C   UNL     1       6.708   4.380  14.812  0.00  0.00    +0.000 C 
ATOM     13  C   UNL     1       6.993   4.382  16.305  0.00  0.00    +0.000 C 
ENDBRANCH   1  13
BRANCH   1  14
ATOM     14  O   UNL     1       6.393   6.189  18.024  0.00  0.00    +0.000 OA
ATOM     15  C   UNL     1       7.458   7.046  17.713  0.00  0.00    +0.000 C 
ENDBRANCH   1  14
BRANCH   7  16
ATOM     16  O   UNL     1       3.406   2.344  18.511  0.00  0.00    +0.000 OA
ATOM     17  H   UNL     1       2.669   2.444  17.895  0.00  0.00    +0.000 HD
ENDBRANCH   7  16
TORSDOF 4
ENDMDL
MODEL 5
REMARK VINA RESULT:      -6.3      1.624      2.838
REMARK  Name = 
REMARK  8 active torsions:
REMARK  status: ('A' for Active; 'I' for Inactive)
REMARK    1  A    between atoms: C_1  and  C_2
REMARK    2  A    between atoms: C_2  and  C_3
REMARK    3  A    between atoms: C_3  and  O_4
REMARK    4  A    between atoms: O_4  and  C_5
REMARK    5  A    between atoms: C_10  and  C_11
REMARK    6  A    between atoms: C_11  and  C_12
REMARK    7  A    between atoms: C_11  and  C_13
REMARK    8  A    between atoms: C_14  and  O_15
REMARK                            x       y       z     vdW  Elec       q    Type
REMARK                         _______ _______ _______ _____ _____    ______ ____
ROOT
ATOM      1  C   UNL     1       5.899   5.760  17.562  0.00  0.00    +0.000 C 
ATOM      2  C   UNL     1       6.557   5.563  19.016  0.00  0.00    +0.000 C 
ATOM      3  C   UNL     1       5.333   4.723  19.182  0.00  0.00    +0.000 A 
ATOM      4  C   UNL     1       4.989   3.381  19.167  0.00  0.00    +0.000 A 
ATOM      5  C   UNL     1       3.665   3.047  18.919  0.00  0.00    +0.000 A 
ATOM      6  C   UNL     1       2.702   4.032  18.863  0.00  0.00    +0.000 A 
ATOM      7  C   UNL     1       3.191   5.358  18.623  0.00  0.00    +0.000 A 
ATOM      8  C   UNL     1       4.559   5.690  18.565  0.00  0.00    +0.000 A 
ENDROOT
BRANCH   6   9
ATOM      9  C   UNL     1       1.297   3.702  19.398  0.00  0.00    +0.000 C 
ATOM     10  C   UNL     1       0.602   2.488  18.780  0.00  0.00    +0.000 C 
ATOM     11  C   UNL     1       1.204   3.573  20.936  0.00  0.00    +0.000 C 
ENDBRANCH   6   9
BRANCH   1  13
ATOM     12  C   UNL     1       7.773   7.583  17.893  0.00  0.00    +0.000 C 
ATOM     13  C   UNL     1       6.560   7.084  17.125  0.00  0.00    +0.000 C 
ENDBRANCH   1  13
BRANCH   1  14
ATOM     14  O   UNL     1       6.284   4.554  16.813  0.00  0.00    +0.000 OA
ATOM     15  C   UNL     1       5.888   4.209  15.513  0.00  0.00    +0.000 C 
ENDBRANCH   1  14
BRANCH   7  16
ATOM     16  O   UNL     1       2.390   6.398  19.132  0.00  0.00    +0.000 OA
ATOM     17  H   UNL     1       2.951   6.877  19.754  0.00  0.00    +0.000 HD
ENDBRANCH   7  16
TORSDOF 4
ENDMDL
MODEL 6
REMARK VINA RESULT:      -6.3      1.459      1.796
REMARK  Name = 
REMARK  8 active torsions:
REMARK  status: ('A' for Active; 'I' for Inactive)
REMARK    1  A    between atoms: C_1  and  C_2
REMARK    2  A    between atoms: C_2  and  C_3
REMARK    3  A    between atoms: C_3  and  O_4
REMARK    4  A    between atoms: O_4  and  C_5
REMARK    5  A    between atoms: C_10  and  C_11
REMARK    6  A    between atoms: C_11  and  C_12
REMARK    7  A    between atoms: C_11  and  C_13
REMARK    8  A    between atoms: C_14  and  O_15
REMARK                            x       y       z     vdW  Elec       q    Type
REMARK                         _______ _______ _______ _____ _____    ______ ____
ROOT
ATOM      1  C   UNL     1       5.223   5.013  16.760  0.00  0.00    +0.000 C 
ATOM      2  C   UNL     1       4.921   6.515  17.248  0.00  0.00    +0.000 C 
ATOM      3  C   UNL     1       4.113   5.760  18.252  0.00  0.00    +0.000 A 
ATOM      4  C   UNL     1       4.217   5.362  19.575  0.00  0.00    +0.000 A 
ATOM      5  C   UNL     1       3.443   4.292  19.999  0.00  0.00    +0.000 A 
ATOM      6  C   UNL     1       2.478   3.763  19.168  0.00  0.00    +0.000 A 
ATOM      7  C   UNL     1       2.640   4.057  17.774  0.00  0.00    +0.000 A 
ATOM      8  C   UNL     1       3.629   4.920  17.265  0.00  0.00    +0.000 A 
ENDROOT
BRANCH   6   9
ATOM      9  C   UNL     1       1.180   3.239  19.807  0.00  0.00    +0.000 C 
ATOM     10  C   UNL     1       0.494   2.072  19.095  0.00  0.00    +0.000 C 
ATOM     11  C   UNL     1       1.296   2.881  21.306  0.00  0.00    +0.000 C 
ENDBRANCH   6   9
BRANCH   1  13
ATOM     12  C   UNL     1       5.806   4.070  14.368  0.00  0.00    +0.000 C 
ATOM     13  C   UNL     1       5.633   5.265  15.293  0.00  0.00    +0.000 C 
ENDBRANCH   1  13
BRANCH   1  14
ATOM     14  O   UNL     1       6.280   4.533  17.664  0.00  0.00    +0.000 OA
ATOM     15  C   UNL     1       7.664   4.615  17.458  0.00  0.00    +0.000 C 
ENDBRANCH   1  14
BRANCH   7  16
ATOM     16  O   UNL     1       1.452   4.068  17.018  0.00  0.00    +0.000 OA
ATOM     17  H   UNL     1       0.734   4.021  17.662  0.00  0.00    +0.000 HD
ENDBRANCH   7  16
TORSDOF 4
ENDMDL
MODEL 7
REMARK VINA RESULT:      -6.3      1.726      5.479
REMARK  Name = 
REMARK  8 active torsions:
REMARK  status: ('A' for Active; 'I' for Inactive)
REMARK    1  A    between atoms: C_1  and  C_2
REMARK    2  A    between atoms: C_2  and  C_3
REMARK    3  A    between atoms: C_3  and  O_4
REMARK    4  A    between atoms: O_4  and  C_5
REMARK    5  A    between atoms: C_10  and  C_11
REMARK    6  A    between atoms: C_11  and  C_12
REMARK    7  A    between atoms: C_11  and  C_13
REMARK    8  A    between atoms: C_14  and  O_15
REMARK                            x       y       z     vdW  Elec       q    Type
REMARK                         _______ _______ _______ _____ _____    ______ ____
ROOT
ATOM      1  C   UNL     1       2.120   3.365  19.607  0.00  0.00    +0.000 C 
ATOM      2  C   UNL     1       1.183   3.166  18.315  0.00  0.00    +0.000 C 
ATOM      3  C   UNL     1       2.352   3.840  17.673  0.00  0.00    +0.000 A 
ATOM      4  C   UNL     1       3.457   3.492  16.913  0.00  0.00    +0.000 A 
ATOM      5  C   UNL     1       4.540   4.360  16.897  0.00  0.00    +0.000 A 
ATOM      6  C   UNL     1       4.438   5.604  17.483  0.00  0.00    +0.000 A 
ATOM      7  C   UNL     1       3.387   5.746  18.447  0.00  0.00    +0.000 A 
ATOM      8  C   UNL     1       2.429   4.748  18.714  0.00  0.00    +0.000 A 
ENDROOT
BRANCH   6   9
ATOM      9  C   UNL     1       5.186   6.777  16.825  0.00  0.00    +0.000 C 
ATOM     10  C   UNL     1       6.611   7.037  17.314  0.00  0.00    +0.000 C 
ATOM     11  C   UNL     1       5.212   6.741  15.279  0.00  0.00    +0.000 C 
ENDBRANCH   6   9
BRANCH   1  13
ATOM     12  C   UNL     1       1.403   2.532  22.003  0.00  0.00    +0.000 C 
ATOM     13  C   UNL     1       1.069   3.304  20.736  0.00  0.00    +0.000 C 
ENDBRANCH   1  13
BRANCH   1  14
ATOM     14  O   UNL     1       3.082   2.254  19.544  0.00  0.00    +0.000 OA
ATOM     15  C   UNL     1       4.370   2.224  20.097  0.00  0.00    +0.000 C 
ENDBRANCH   1  14
BRANCH   7  16
ATOM     16  O   UNL     1       2.884   7.052  18.604  0.00  0.00    +0.000 OA
ATOM     17  H   UNL     1       3.424   7.608  18.029  0.00  0.00    +0.000 HD
ENDBRANCH   7  16
TORSDOF 4
ENDMDL
MODEL 8
REMARK VINA RESULT:      -6.2      1.570      5.322
REMARK  Name = 
REMARK  8 active torsions:
REMARK  status: ('A' for Active; 'I' for Inactive)
REMARK    1  A    between atoms: C_1  and  C_2
REMARK    2  A    between atoms: C_2  and  C_3
REMARK    3  A    between atoms: C_3  and  O_4
REMARK    4  A    between atoms: O_4  and  C_5
REMARK    5  A    between atoms: C_10  and  C_11
REMARK    6  A    between atoms: C_11  and  C_12
REMARK    7  A    between atoms: C_11  and  C_13
REMARK    8  A    between atoms: C_14  and  O_15
REMARK                            x       y       z     vdW  Elec       q    Type
REMARK                         _______ _______ _______ _____ _____    ______ ____
ROOT
ATOM      1  C   UNL     1       2.185   3.098  18.975  0.00  0.00    +0.000 C 
ATOM      2  C   UNL     1       1.458   3.944  17.816  0.00  0.00    +0.000 C 
ATOM      3  C   UNL     1       2.873   4.359  17.576  0.00  0.00    +0.000 A 
ATOM      4  C   UNL     1       3.903   4.062  16.699  0.00  0.00    +0.000 A 
ATOM      5  C   UNL     1       5.202   4.343  17.096  0.00  0.00    +0.000 A 
ATOM      6  C   UNL     1       5.433   5.054  18.254  0.00  0.00    +0.000 A 
ATOM      7  C   UNL     1       4.350   5.069  19.193  0.00  0.00    +0.000 A 
ATOM      8  C   UNL     1       3.082   4.512  18.935  0.00  0.00    +0.000 A 
ENDROOT
BRANCH   6   9
ATOM      9  C   UNL     1       6.629   6.023  18.283  0.00  0.00    +0.000 C 
ATOM     10  C   UNL     1       7.763   5.677  19.248  0.00  0.00    +0.000 C 
ATOM     11  C   UNL     1       7.253   6.320  16.900  0.00  0.00    +0.000 C 
ENDBRANCH   6   9
BRANCH   1  13
ATOM     12  C   UNL     1       1.299   2.768  21.435  0.00  0.00    +0.000 C 
ATOM     13  C   UNL     1       1.007   2.871  19.947  0.00  0.00    +0.000 C 
ENDBRANCH   1  13
BRANCH   1  14
ATOM     14  O   UNL     1       2.713   1.907  18.292  0.00  0.00    +0.000 OA
ATOM     15  C   UNL     1       3.785   1.106  18.706  0.00  0.00    +0.000 C 
ENDBRANCH   1  14
BRANCH   7  16
ATOM     16  O   UNL     1       4.299   6.194  20.039  0.00  0.00    +0.000 OA
ATOM     17  H   UNL     1       4.496   6.951  19.474  0.00  0.00    +0.000 HD
ENDBRANCH   7  16
TORSDOF 4
ENDMDL
MODEL 9
REMARK VINA RESULT:      -6.2      1.430      2.115
REMARK  Name = 
REMARK  8 active torsions:
REMARK  status: ('A' for Active; 'I' for Inactive)
REMARK    1  A    between atoms: C_1  and  C_2
REMARK    2  A    between atoms: C_2  and  C_3
REMARK    3  A    between atoms: C_3  and  O_4
REMARK    4  A    between atoms: O_4  and  C_5
REMARK    5  A    between atoms: C_10  and  C_11
REMARK    6  A    between atoms: C_11  and  C_12
REMARK    7  A    between atoms: C_11  and  C_13
REMARK    8  A    between atoms: C_14  and  O_15
REMARK                            x       y       z     vdW  Elec       q    Type
REMARK                         _______ _______ _______ _____ _____    ______ ____
ROOT
ATOM      1  C   UNL     1       5.893   5.576  17.644  0.00  0.00    +0.000 C 
ATOM      2  C   UNL     1       6.183   4.463  16.519  0.00  0.00    +0.000 C 
ATOM      3  C   UNL     1       4.865   3.971  17.021  0.00  0.00    +0.000 A 
ATOM      4  C   UNL     1       3.535   4.000  16.635  0.00  0.00    +0.000 A 
ATOM      5  C   UNL     1       2.566   3.811  17.611  0.00  0.00    +0.000 A 
ATOM      6  C   UNL     1       2.932   3.434  18.886  0.00  0.00    +0.000 A 
ATOM      7  C   UNL     1       4.297   3.696  19.236  0.00  0.00    +0.000 A 
ATOM      8  C   UNL     1       5.258   4.187  18.331  0.00  0.00    +0.000 A 
ENDROOT
BRANCH   6   9
ATOM      9  C   UNL     1       1.997   2.486  19.657  0.00  0.00    +0.000 C 
ATOM     10  C   UNL     1       1.598   2.921  21.067  0.00  0.00    +0.000 C 
ATOM     11  C   UNL     1       0.709   2.089  18.898  0.00  0.00    +0.000 C 
ENDBRANCH   6   9
BRANCH   1  13
ATOM     12  C   UNL     1       7.663   7.529  17.610  0.00  0.00    +0.000 C 
ATOM     13  C   UNL     1       7.325   6.080  17.924  0.00  0.00    +0.000 C 
ENDBRANCH   1  13
BRANCH   1  14
ATOM     14  O   UNL     1       4.975   6.527  16.998  0.00  0.00    +0.000 OA
ATOM     15  C   UNL     1       3.977   7.288  17.622  0.00  0.00    +0.000 C 
ENDBRANCH   1  14
BRANCH   7  16
ATOM     16  O   UNL     1       4.843   2.842  20.214  0.00  0.00    +0.000 OA
ATOM     17  H   UNL     1       5.793   3.012  20.205  0.00  0.00    +0.000 HD
ENDBRANCH   7  16
TORSDOF 4
ENDMDL
