MODEL 1
REMARK VINA RESULT:      -6.3      0.000      0.000
REMARK  Name = 
REMARK  6 active torsions:
REMARK  status: ('A' for Active; 'I' for Inactive)
REMARK    1  A    between atoms: C_1  and  O_2
REMARK    2  A    between atoms: O_2  and  N_3
REMARK    3  A    between atoms: C_13  and  S_14
REMARK    4  A    between atoms: S_14  and  C_15
REMARK    5  A    between atoms: C_17  and  O_18
REMARK    6  A    between atoms: O_18  and  C_19
REMARK                            x       y       z     vdW  Elec       q    Type
REMARK                         _______ _______ _______ _____ _____    ______ ____
ROOT
ATOM      1  N   UNL     1       0.368   9.964  21.400  0.00  0.00    +0.000 N 
ATOM      2  C   UNL     1       0.966   9.417  20.257  0.00  0.00    +0.000 A 
ATOM      3  C   UNL     1       1.482   8.140  20.129  0.00  0.00    +0.000 A 
ATOM      4  C   UNL     1       2.166   7.801  18.961  0.00  0.00    +0.000 A 
ATOM      5  C   UNL     1       2.316   8.738  17.932  0.00  0.00    +0.000 A 
ATOM      6  C   UNL     1       1.769  10.017  18.053  0.00  0.00    +0.000 A 
ATOM      7  C   UNL     1       1.089  10.344  19.222  0.00  0.00    +0.000 A 
ATOM      8  C   UNL     1       0.444  11.648  19.626  0.00  0.00    +0.000 C 
ATOM      9  C   UNL     1      -0.557  12.153  18.572  0.00  0.00    +0.000 C 
ATOM     10  N   UNL     1      -0.501  13.628  18.432  0.00  0.00    +0.000 NA
ATOM     11  C   UNL     1       0.597  14.077  18.929  0.00  0.00    +0.000 C 
ATOM     12  S   UNL     1       1.693  12.974  19.695  0.00  0.00    +0.000 S 
ATOM     13  C   UNL     1      -0.255  11.253  21.001  0.00  0.00    +0.000 C 
ENDROOT
BRANCH   1  15
ATOM     14  C   UNL     1       0.279   9.325  23.556  0.00  0.00    +0.000 C 
ATOM     15  O   UNL     1      -0.362   9.178  22.289  0.00  0.00    +0.000 OA
ENDBRANCH   1  15
BRANCH  11  16
ATOM     16  S   UNL     1       1.077  15.744  18.891  0.00  0.00    +0.000 S 
ATOM     17  C   UNL     1       2.799  15.617  18.379  0.00  0.00    +0.000 C 
ENDBRANCH  11  16
BRANCH  13  18
ATOM     18  O   UNL     1      -0.020  12.156  22.080  0.00  0.00    +0.000 OA
BRANCH  18  19
ATOM     19  C   UNL     1      -1.043  12.767  22.732  0.00  0.00    +0.000 A 
ATOM     20  C   UNL     1      -1.033  14.031  23.312  0.00  0.00    +0.000 A 
ATOM     21  C   UNL     1      -2.142  14.471  24.042  0.00  0.00    +0.000 A 
ATOM     22  C   UNL     1      -3.274  13.665  24.165  0.00  0.00    +0.000 A 
ATOM     23  C   UNL     1      -3.307  12.423  23.541  0.00  0.00    +0.000 A 
ATOM     24  C   UNL     1      -2.195  11.980  22.826  0.00  0.00    +0.000 A 
ENDBRANCH  18  19
ENDBRANCH  13  18
TORSDOF 4
ENDMDL
MODEL 2
REMARK VINA RESULT:      -6.2      0.601      1.143
REMARK  Name = 
REMARK  6 active torsions:
REMARK  status: ('A' for Active; 'I' for Inactive)
REMARK    1  A    between atoms: C_1  and  O_2
REMARK    2  A    between atoms: O_2  and  N_3
REMARK    3  A    between atoms: C_13  and  S_14
REMARK    4  A    between atoms: S_14  and  C_15
REMARK    5  A    between atoms: C_17  and  O_18
REMARK    6  A    between atoms: O_18  and  C_19
REMARK                            x       y       z     vdW  Elec       q    Type
REMARK                         _______ _______ _______ _____ _____    ______ ____
ROOT
ATOM      1  N   UNL     1       0.353   9.876  21.361  0.00  0.00    +0.000 N 
ATOM      2  C   UNL     1       0.975   9.342  20.224  0.00  0.00    +0.000 A 
ATOM      3  C   UNL     1       1.514   8.074  20.099  0.00  0.00    +0.000 A 
ATOM      4  C   UNL     1       2.218   7.750  18.939  0.00  0.00    +0.000 A 
ATOM      5  C   UNL     1       2.367   8.693  17.915  0.00  0.00    +0.000 A 
ATOM      6  C   UNL     1       1.798   9.963  18.033  0.00  0.00    +0.000 A 
ATOM      7  C   UNL     1       1.098  10.275  19.194  0.00  0.00    +0.000 A 
ATOM      8  C   UNL     1       0.427  11.568  19.593  0.00  0.00    +0.000 C 
ATOM      9  C   UNL     1      -0.567  12.060  18.528  0.00  0.00    +0.000 C 
ATOM     10  N   UNL     1      -0.534  13.536  18.393  0.00  0.00    +0.000 NA
ATOM     11  C   UNL     1       0.551  14.001  18.906  0.00  0.00    +0.000 C 
ATOM     12  S   UNL     1       1.654  12.912  19.684  0.00  0.00    +0.000 S 
ATOM     13  C   UNL     1      -0.284  11.156  20.957  0.00  0.00    +0.000 C 
ENDROOT
BRANCH   1  15
ATOM     14  C   UNL     1       0.233   9.246  23.518  0.00  0.00    +0.000 C 
ATOM     15  O   UNL     1      -0.376   9.075  22.237  0.00  0.00    +0.000 OA
ENDBRANCH   1  15
BRANCH  11  16
ATOM     16  S   UNL     1       1.005  15.675  18.880  0.00  0.00    +0.000 S 
ATOM     17  C   UNL     1       1.140  16.045  20.636  0.00  0.00    +0.000 C 
ENDBRANCH  11  16
BRANCH  13  18
ATOM     18  O   UNL     1      -0.078  12.059  22.042  0.00  0.00    +0.000 OA
BRANCH  18  19
ATOM     19  C   UNL     1      -1.119  12.580  22.743  0.00  0.00    +0.000 A 
ATOM     20  C   UNL     1      -2.299  11.935  23.096  0.00  0.00    +0.000 A 
ATOM     21  C   UNL     1      -3.321  12.649  23.729  0.00  0.00    +0.000 A 
ATOM     22  C   UNL     1      -3.154  13.998  24.040  0.00  0.00    +0.000 A 
ATOM     23  C   UNL     1      -1.954  14.633  23.736  0.00  0.00    +0.000 A 
ATOM     24  C   UNL     1      -0.942  13.922  23.092  0.00  0.00    +0.000 A 
ENDBRANCH  18  19
ENDBRANCH  13  18
TORSDOF 4
ENDMDL
MODEL 3
REMARK VINA RESULT:      -5.9      2.865      5.977
REMARK  Name = 
REMARK  6 active torsions:
REMARK  status: ('A' for Active; 'I' for Inactive)
REMARK    1  A    between atoms: C_1  and  O_2
REMARK    2  A    between atoms: O_2  and  N_3
REMARK    3  A    between atoms: C_13  and  S_14
REMARK    4  A    between atoms: S_14  and  C_15
REMARK    5  A    between atoms: C_17  and  O_18
REMARK    6  A    between atoms: O_18  and  C_19
REMARK                            x       y       z     vdW  Elec       q    Type
REMARK                         _______ _______ _______ _____ _____    ______ ____
ROOT
ATOM      1  N   UNL     1      -2.561  10.922  18.441  0.00  0.00    +0.000 N 
ATOM      2  C   UNL     1      -3.597  11.737  18.918  0.00  0.00    +0.000 A 
ATOM      3  C   UNL     1      -4.886  11.808  18.419  0.00  0.00    +0.000 A 
ATOM      4  C   UNL     1      -5.755  12.773  18.927  0.00  0.00    +0.000 A 
ATOM      5  C   UNL     1      -5.330  13.649  19.933  0.00  0.00    +0.000 A 
ATOM      6  C   UNL     1      -4.038  13.557  20.454  0.00  0.00    +0.000 A 
ATOM      7  C   UNL     1      -3.179  12.590  19.940  0.00  0.00    +0.000 A 
ATOM      8  C   UNL     1      -1.738  12.302  20.288  0.00  0.00    +0.000 C 
ATOM      9  C   UNL     1      -1.538  12.078  21.797  0.00  0.00    +0.000 C 
ATOM     10  N   UNL     1      -0.263  12.669  22.270  0.00  0.00    +0.000 NA
ATOM     11  C   UNL     1       0.169  13.527  21.414  0.00  0.00    +0.000 C 
ATOM     12  S   UNL     1      -0.701  13.758  19.933  0.00  0.00    +0.000 S 
ATOM     13  C   UNL     1      -1.452  10.993  19.428  0.00  0.00    +0.000 C 
ENDROOT
BRANCH   1  15
ATOM     14  C   UNL     1      -2.538   9.795  16.494  0.00  0.00    +0.000 C 
ATOM     15  O   UNL     1      -2.814   9.669  17.890  0.00  0.00    +0.000 OA
ENDBRANCH   1  15
BRANCH  11  16
ATOM     16  S   UNL     1       1.593  14.494  21.635  0.00  0.00    +0.000 S 
ATOM     17  C   UNL     1       1.731  15.310  20.036  0.00  0.00    +0.000 C 
ENDBRANCH  11  16
BRANCH  13  18
ATOM     18  O   UNL     1      -0.247  11.024  18.664  0.00  0.00    +0.000 OA
BRANCH  18  19
ATOM     19  C   UNL     1       0.659  10.013  18.724  0.00  0.00    +0.000 A 
ATOM     20  C   UNL     1       1.445   9.527  17.685  0.00  0.00    +0.000 A 
ATOM     21  C   UNL     1       2.253   8.405  17.888  0.00  0.00    +0.000 A 
ATOM     22  C   UNL     1       2.304   7.786  19.137  0.00  0.00    +0.000 A 
ATOM     23  C   UNL     1       1.560   8.301  20.193  0.00  0.00    +0.000 A 
ATOM     24  C   UNL     1       0.743   9.411  19.984  0.00  0.00    +0.000 A 
ENDBRANCH  18  19
ENDBRANCH  13  18
TORSDOF 4
ENDMDL
MODEL 4
REMARK VINA RESULT:      -5.9      2.238      5.967
REMARK  Name = 
REMARK  6 active torsions:
REMARK  status: ('A' for Active; 'I' for Inactive)
REMARK    1  A    between atoms: C_1  and  O_2
REMARK    2  A    between atoms: O_2  and  N_3
REMARK    3  A    between atoms: C_13  and  S_14
REMARK    4  A    between atoms: S_14  and  C_15
REMARK    5  A    between atoms: C_17  and  O_18
REMARK    6  A    between atoms: O_18  and  C_19
REMARK                            x       y       z     vdW  Elec       q    Type
REMARK                         _______ _______ _______ _____ _____    ______ ____
ROOT
ATOM      1  N   UNL     1      -0.767  11.100  22.092  0.00  0.00    +0.000 N 
ATOM      2  C   UNL     1      -1.613  12.199  22.298  0.00  0.00    +0.000 A 
ATOM      3  C   UNL     1      -2.039  12.693  23.518  0.00  0.00    +0.000 A 
ATOM      4  C   UNL     1      -2.991  13.713  23.539  0.00  0.00    +0.000 A 
ATOM      5  C   UNL     1      -3.496  14.234  22.343  0.00  0.00    +0.000 A 
ATOM      6  C   UNL     1      -3.043  13.752  21.113  0.00  0.00    +0.000 A 
ATOM      7  C   UNL     1      -2.094  12.735  21.103  0.00  0.00    +0.000 A 
ATOM      8  C   UNL     1      -1.471  12.013  19.933  0.00  0.00    +0.000 C 
ATOM      9  C   UNL     1      -0.846  12.984  18.916  0.00  0.00    +0.000 C 
ATOM     10  N   UNL     1      -1.058  12.524  17.522  0.00  0.00    +0.000 NA
ATOM     11  C   UNL     1      -2.008  11.657  17.485  0.00  0.00    +0.000 C 
ATOM     12  S   UNL     1      -2.754  11.153  18.966  0.00  0.00    +0.000 S 
ATOM     13  C   UNL     1      -0.387  11.097  20.656  0.00  0.00    +0.000 C 
ENDROOT
BRANCH   1  15
ATOM     14  C   UNL     1      -0.070   9.470  23.478  0.00  0.00    +0.000 C 
ATOM     15  O   UNL     1       0.242  10.778  22.996  0.00  0.00    +0.000 OA
ENDBRANCH   1  15
BRANCH  11  16
ATOM     16  S   UNL     1      -2.613  10.934  16.028  0.00  0.00    +0.000 S 
ATOM     17  C   UNL     1      -4.391  11.132  16.234  0.00  0.00    +0.000 C 
ENDBRANCH  11  16
BRANCH  13  18
ATOM     18  O   UNL     1      -0.385   9.729  20.251  0.00  0.00    +0.000 OA
BRANCH  18  19
ATOM     19  C   UNL     1       0.652   9.194  19.556  0.00  0.00    +0.000 A 
ATOM     20  C   UNL     1       1.083   9.550  18.283  0.00  0.00    +0.000 A 
ATOM     21  C   UNL     1       2.105   8.824  17.665  0.00  0.00    +0.000 A 
ATOM     22  C   UNL     1       2.721   7.763  18.328  0.00  0.00    +0.000 A 
ATOM     23  C   UNL     1       2.330   7.438  19.622  0.00  0.00    +0.000 A 
ATOM     24  C   UNL     1       1.300   8.154  20.231  0.00  0.00    +0.000 A 
ENDBRANCH  18  19
ENDBRANCH  13  18
TORSDOF 4
ENDMDL
MODEL 5
REMARK VINA RESULT:      -5.9      2.779      6.104
REMARK  Name = 
REMARK  6 active torsions:
REMARK  status: ('A' for Active; 'I' for Inactive)
REMARK    1  A    between atoms: C_1  and  O_2
REMARK    2  A    between atoms: O_2  and  N_3
REMARK    3  A    between atoms: C_13  and  S_14
REMARK    4  A    between atoms: S_14  and  C_15
REMARK    5  A    between atoms: C_17  and  O_18
REMARK    6  A    between atoms: O_18  and  C_19
REMARK                            x       y       z     vdW  Elec       q    Type
REMARK                         _______ _______ _______ _____ _____    ______ ____
ROOT
ATOM      1  N   UNL     1      -3.805  13.070  22.035  0.00  0.00    +0.000 N 
ATOM      2  C   UNL     1      -3.219  13.708  23.137  0.00  0.00    +0.000 A 
ATOM      3  C   UNL     1      -3.877  14.194  24.252  0.00  0.00    +0.000 A 
ATOM      4  C   UNL     1      -3.156  14.925  25.197  0.00  0.00    +0.000 A 
ATOM      5  C   UNL     1      -1.786  15.151  25.022  0.00  0.00    +0.000 A 
ATOM      6  C   UNL     1      -1.119  14.634  23.909  0.00  0.00    +0.000 A 
ATOM      7  C   UNL     1      -1.848  13.908  22.973  0.00  0.00    +0.000 A 
ATOM      8  C   UNL     1      -1.392  13.280  21.677  0.00  0.00    +0.000 C 
ATOM      9  C   UNL     1      -0.186  12.346  21.876  0.00  0.00    +0.000 C 
ATOM     10  N   UNL     1       0.774  12.449  20.750  0.00  0.00    +0.000 NA
ATOM     11  C   UNL     1       0.564  13.534  20.091  0.00  0.00    +0.000 C 
ATOM     12  S   UNL     1      -0.757  14.560  20.546  0.00  0.00    +0.000 S 
ATOM     13  C   UNL     1      -2.703  12.503  21.214  0.00  0.00    +0.000 C 
ENDROOT
BRANCH   1  15
ATOM     14  C   UNL     1      -5.998  12.997  21.537  0.00  0.00    +0.000 C 
ATOM     15  O   UNL     1      -4.941  12.276  22.171  0.00  0.00    +0.000 OA
ENDBRANCH   1  15
BRANCH  11  16
ATOM     16  S   UNL     1       1.526  14.061  18.747  0.00  0.00    +0.000 S 
ATOM     17  C   UNL     1       2.401  12.550  18.309  0.00  0.00    +0.000 C 
ENDBRANCH  11  16
BRANCH  13  18
ATOM     18  O   UNL     1      -3.078  12.710  19.853  0.00  0.00    +0.000 OA
BRANCH  18  19
ATOM     19  C   UNL     1      -2.896  11.749  18.911  0.00  0.00    +0.000 A 
ATOM     20  C   UNL     1      -1.744  11.005  18.682  0.00  0.00    +0.000 A 
ATOM     21  C   UNL     1      -1.686  10.125  17.597  0.00  0.00    +0.000 A 
ATOM     22  C   UNL     1      -2.789   9.961  16.759  0.00  0.00    +0.000 A 
ATOM     23  C   UNL     1      -3.962  10.663  17.017  0.00  0.00    +0.000 A 
ATOM     24  C   UNL     1      -4.012  11.551  18.091  0.00  0.00    +0.000 A 
ENDBRANCH  18  19
ENDBRANCH  13  18
TORSDOF 4
ENDMDL
MODEL 6
REMARK VINA RESULT:      -5.5      2.777      6.245
REMARK  Name = 
REMARK  6 active torsions:
REMARK  status: ('A' for Active; 'I' for Inactive)
REMARK    1  A    between atoms: C_1  and  O_2
REMARK    2  A    between atoms: O_2  and  N_3
REMARK    3  A    between atoms: C_13  and  S_14
REMARK    4  A    between atoms: S_14  and  C_15
REMARK    5  A    between atoms: C_17  and  O_18
REMARK    6  A    between atoms: O_18  and  C_19
REMARK                            x       y       z     vdW  Elec       q    Type
REMARK                         _______ _______ _______ _____ _____    ______ ____
ROOT
ATOM      1  N   UNL     1      -3.743  13.373  21.537  0.00  0.00    +0.000 N 
ATOM      2  C   UNL     1      -3.334  13.886  22.776  0.00  0.00    +0.000 A 
ATOM      3  C   UNL     1      -4.140  14.496  23.721  0.00  0.00    +0.000 A 
ATOM      4  C   UNL     1      -3.546  15.073  24.843  0.00  0.00    +0.000 A 
ATOM      5  C   UNL     1      -2.158  15.026  25.013  0.00  0.00    +0.000 A 
ATOM      6  C   UNL     1      -1.350  14.385  24.071  0.00  0.00    +0.000 A 
ATOM      7  C   UNL     1      -1.953  13.813  22.955  0.00  0.00    +0.000 A 
ATOM      8  C   UNL     1      -1.322  13.104  21.780  0.00  0.00    +0.000 C 
ATOM      9  C   UNL     1      -0.402  11.952  22.221  0.00  0.00    +0.000 C 
ATOM     10  N   UNL     1       0.805  11.862  21.364  0.00  0.00    +0.000 NA
ATOM     11  C   UNL     1       0.974  12.965  20.724  0.00  0.00    +0.000 C 
ATOM     12  S   UNL     1      -0.197  14.231  20.894  0.00  0.00    +0.000 S 
ATOM     13  C   UNL     1      -2.603  12.599  20.981  0.00  0.00    +0.000 C 
ENDROOT
BRANCH   1  15
ATOM     14  C   UNL     1      -5.696  13.694  20.467  0.00  0.00    +0.000 C 
ATOM     15  O   UNL     1      -5.008  12.817  21.360  0.00  0.00    +0.000 OA
ENDBRANCH   1  15
BRANCH  11  16
ATOM     16  S   UNL     1       2.318  13.289  19.676  0.00  0.00    +0.000 S 
ATOM     17  C   UNL     1       3.409  14.225  20.760  0.00  0.00    +0.000 C 
ENDBRANCH  11  16
BRANCH  13  18
ATOM     18  O   UNL     1      -2.587  12.872  19.580  0.00  0.00    +0.000 OA
BRANCH  18  19
ATOM     19  C   UNL     1      -2.641  11.873  18.660  0.00  0.00    +0.000 A 
ATOM     20  C   UNL     1      -3.747  11.474  17.918  0.00  0.00    +0.000 A 
ATOM     21  C   UNL     1      -3.660  10.353  17.087  0.00  0.00    +0.000 A 
ATOM     22  C   UNL     1      -2.462   9.650  16.969  0.00  0.00    +0.000 A 
ATOM     23  C   UNL     1      -1.339  10.079  17.669  0.00  0.00    +0.000 A 
ATOM     24  C   UNL     1      -1.431  11.188  18.508  0.00  0.00    +0.000 A 
ENDBRANCH  18  19
ENDBRANCH  13  18
TORSDOF 4
ENDMDL
MODEL 7
REMARK VINA RESULT:      -5.4      3.166      5.266
REMARK  Name = 
REMARK  6 active torsions:
REMARK  status: ('A' for Active; 'I' for Inactive)
REMARK    1  A    between atoms: C_1  and  O_2
REMARK    2  A    between atoms: O_2  and  N_3
REMARK    3  A    between atoms: C_13  and  S_14
REMARK    4  A    between atoms: S_14  and  C_15
REMARK    5  A    between atoms: C_17  and  O_18
REMARK    6  A    between atoms: O_18  and  C_19
REMARK                            x       y       z     vdW  Elec       q    Type
REMARK                         _______ _______ _______ _____ _____    ______ ____
ROOT
ATOM      1  N   UNL     1       0.355  12.379  20.325  0.00  0.00    +0.000 N 
ATOM      2  C   UNL     1       0.273  11.329  21.249  0.00  0.00    +0.000 A 
ATOM      3  C   UNL     1       0.960  10.130  21.197  0.00  0.00    +0.000 A 
ATOM      4  C   UNL     1       0.658   9.136  22.128  0.00  0.00    +0.000 A 
ATOM      5  C   UNL     1      -0.319   9.356  23.106  0.00  0.00    +0.000 A 
ATOM      6  C   UNL     1      -0.991  10.578  23.173  0.00  0.00    +0.000 A 
ATOM      7  C   UNL     1      -0.682  11.562  22.239  0.00  0.00    +0.000 A 
ATOM      8  C   UNL     1      -1.276  12.939  22.061  0.00  0.00    +0.000 C 
ATOM      9  C   UNL     1      -1.232  13.764  23.359  0.00  0.00    +0.000 C 
ATOM     10  N   UNL     1      -2.453  14.588  23.523  0.00  0.00    +0.000 NA
ATOM     11  C   UNL     1      -3.390  14.142  22.762  0.00  0.00    +0.000 C 
ATOM     12  S   UNL     1      -3.058  12.815  21.698  0.00  0.00    +0.000 S 
ATOM     13  C   UNL     1      -0.353  13.545  20.914  0.00  0.00    +0.000 C 
ENDROOT
BRANCH   1  15
ATOM     14  C   UNL     1       2.300  13.496  20.512  0.00  0.00    +0.000 C 
ATOM     15  O   UNL     1       1.537  12.659  19.642  0.00  0.00    +0.000 OA
ENDBRANCH   1  15
BRANCH  11  16
ATOM     16  S   UNL     1      -5.002  14.784  22.719  0.00  0.00    +0.000 S 
ATOM     17  C   UNL     1      -5.900  13.462  21.892  0.00  0.00    +0.000 C 
ENDBRANCH  11  16
BRANCH  13  18
ATOM     18  O   UNL     1      -1.056  14.165  19.838  0.00  0.00    +0.000 OA
BRANCH  18  19
ATOM     19  C   UNL     1      -1.024  15.510  19.648  0.00  0.00    +0.000 A 
ATOM     20  C   UNL     1      -1.717  16.476  20.369  0.00  0.00    +0.000 A 
ATOM     21  C   UNL     1      -1.656  17.816  19.975  0.00  0.00    +0.000 A 
ATOM     22  C   UNL     1      -0.877  18.198  18.883  0.00  0.00    +0.000 A 
ATOM     23  C   UNL     1      -0.140  17.242  18.193  0.00  0.00    +0.000 A 
ATOM     24  C   UNL     1      -0.215  15.904  18.578  0.00  0.00    +0.000 A 
ENDBRANCH  18  19
ENDBRANCH  13  18
TORSDOF 4
ENDMDL
MODEL 8
REMARK VINA RESULT:      -5.4      4.681      8.351
REMARK  Name = 
REMARK  6 active torsions:
REMARK  status: ('A' for Active; 'I' for Inactive)
REMARK    1  A    between atoms: C_1  and  O_2
REMARK    2  A    between atoms: O_2  and  N_3
REMARK    3  A    between atoms: C_13  and  S_14
REMARK    4  A    between atoms: S_14  and  C_15
REMARK    5  A    between atoms: C_17  and  O_18
REMARK    6  A    between atoms: O_18  and  C_19
REMARK                            x       y       z     vdW  Elec       q    Type
REMARK                         _______ _______ _______ _____ _____    ______ ____
ROOT
ATOM      1  N   UNL     1      -6.242  15.435  21.830  0.00  0.00    +0.000 N 
ATOM      2  C   UNL     1      -5.839  16.139  22.973  0.00  0.00    +0.000 A 
ATOM      3  C   UNL     1      -6.270  17.395  23.361  0.00  0.00    +0.000 A 
ATOM      4  C   UNL     1      -5.665  18.007  24.458  0.00  0.00    +0.000 A 
ATOM      5  C   UNL     1      -4.644  17.355  25.159  0.00  0.00    +0.000 A 
ATOM      6  C   UNL     1      -4.231  16.075  24.782  0.00  0.00    +0.000 A 
ATOM      7  C   UNL     1      -4.842  15.474  23.686  0.00  0.00    +0.000 A 
ATOM      8  C   UNL     1      -4.565  14.133  23.048  0.00  0.00    +0.000 C 
ATOM      9  C   UNL     1      -4.622  12.981  24.066  0.00  0.00    +0.000 C 
ATOM     10  N   UNL     1      -3.583  11.960  23.791  0.00  0.00    +0.000 NA
ATOM     11  C   UNL     1      -2.671  12.454  23.029  0.00  0.00    +0.000 C 
ATOM     12  S   UNL     1      -2.851  14.071  22.432  0.00  0.00    +0.000 S 
ATOM     13  C   UNL     1      -5.720  14.049  21.956  0.00  0.00    +0.000 C 
ENDROOT
BRANCH   1  15
ATOM     14  C   UNL     1      -7.380  16.259  20.072  0.00  0.00    +0.000 C 
ATOM     15  O   UNL     1      -7.528  15.563  21.310  0.00  0.00    +0.000 OA
ENDBRANCH   1  15
BRANCH  11  16
ATOM     16  S   UNL     1      -1.241  11.602  22.541  0.00  0.00    +0.000 S 
ATOM     17  C   UNL     1      -1.063  12.137  20.831  0.00  0.00    +0.000 C 
ENDBRANCH  11  16
BRANCH  13  18
ATOM     18  O   UNL     1      -5.290  13.669  20.649  0.00  0.00    +0.000 OA
BRANCH  18  19
ATOM     19  C   UNL     1      -5.675  12.493  20.088  0.00  0.00    +0.000 A 
ATOM     20  C   UNL     1      -5.181  11.918  18.922  0.00  0.00    +0.000 A 
ATOM     21  C   UNL     1      -5.763  10.750  18.421  0.00  0.00    +0.000 A 
ATOM     22  C   UNL     1      -6.814  10.134  19.100  0.00  0.00    +0.000 A 
ATOM     23  C   UNL     1      -7.274  10.677  20.296  0.00  0.00    +0.000 A 
ATOM     24  C   UNL     1      -6.703  11.851  20.785  0.00  0.00    +0.000 A 
ENDBRANCH  18  19
ENDBRANCH  13  18
TORSDOF 4
ENDMDL
MODEL 9
REMARK VINA RESULT:      -5.4      4.365      7.989
REMARK  Name = 
REMARK  6 active torsions:
REMARK  status: ('A' for Active; 'I' for Inactive)
REMARK    1  A    between atoms: C_1  and  O_2
REMARK    2  A    between atoms: O_2  and  N_3
REMARK    3  A    between atoms: C_13  and  S_14
REMARK    4  A    between atoms: S_14  and  C_15
REMARK    5  A    between atoms: C_17  and  O_18
REMARK    6  A    between atoms: O_18  and  C_19
REMARK                            x       y       z     vdW  Elec       q    Type
REMARK                         _______ _______ _______ _____ _____    ______ ____
ROOT
ATOM      1  N   UNL     1      -6.160  15.065  22.697  0.00  0.00    +0.000 N 
ATOM      2  C   UNL     1      -5.394  15.733  23.663  0.00  0.00    +0.000 A 
ATOM      3  C   UNL     1      -5.741  16.896  24.328  0.00  0.00    +0.000 A 
ATOM      4  C   UNL     1      -4.801  17.502  25.162  0.00  0.00    +0.000 A 
ATOM      5  C   UNL     1      -3.532  16.935  25.329  0.00  0.00    +0.000 A 
ATOM      6  C   UNL     1      -3.196  15.746  24.678  0.00  0.00    +0.000 A 
ATOM      7  C   UNL     1      -4.141  15.150  23.848  0.00  0.00    +0.000 A 
ATOM      8  C   UNL     1      -4.029  13.902  23.005  0.00  0.00    +0.000 C 
ATOM      9  C   UNL     1      -3.572  12.684  23.827  0.00  0.00    +0.000 C 
ATOM     10  N   UNL     1      -2.646  11.822  23.054  0.00  0.00    +0.000 NA
ATOM     11  C   UNL     1      -2.164  12.477  22.057  0.00  0.00    +0.000 C 
ATOM     12  S   UNL     1      -2.708  14.096  21.765  0.00  0.00    +0.000 S 
ATOM     13  C   UNL     1      -5.513  13.750  22.451  0.00  0.00    +0.000 C 
ENDROOT
BRANCH   1  15
ATOM     14  C   UNL     1      -7.911  14.143  23.767  0.00  0.00    +0.000 C 
ATOM     15  O   UNL     1      -7.552  15.068  22.740  0.00  0.00    +0.000 OA
ENDBRANCH   1  15
BRANCH  11  16
ATOM     16  S   UNL     1      -0.982  11.846  20.955  0.00  0.00    +0.000 S 
ATOM     17  C   UNL     1      -0.359  10.422  21.862  0.00  0.00    +0.000 C 
ENDBRANCH  11  16
BRANCH  13  18
ATOM     18  O   UNL     1      -5.613  13.518  21.047  0.00  0.00    +0.000 OA
BRANCH  18  19
ATOM     19  C   UNL     1      -6.171  12.383  20.551  0.00  0.00    +0.000 A 
ATOM     20  C   UNL     1      -7.157  11.604  21.145  0.00  0.00    +0.000 A 
ATOM     21  C   UNL     1      -7.549  10.401  20.549  0.00  0.00    +0.000 A 
ATOM     22  C   UNL     1      -6.982   9.992  19.342  0.00  0.00    +0.000 A 
ATOM     23  C   UNL     1      -6.034  10.796  18.717  0.00  0.00    +0.000 A 
ATOM     24  C   UNL     1      -5.634  11.987  19.322  0.00  0.00    +0.000 A 
ENDBRANCH  18  19
ENDBRANCH  13  18
TORSDOF 4
ENDMDL
