MODEL 1
REMARK VINA RESULT:      -8.8      0.000      0.000
REMARK  Name = 
REMARK  4 active torsions:
REMARK  status: ('A' for Active; 'I' for Inactive)
REMARK    1  A    between atoms: C_1  and  C_2
REMARK    2  A    between atoms: C_5  and  C_6
REMARK    3  A    between atoms: C_11  and  C_13
REMARK    4  A    between atoms: C_22  and  C_23
REMARK                            x       y       z     vdW  Elec       q    Type
REMARK                         _______ _______ _______ _____ _____    ______ ____
ROOT
ATOM      1  C   UNL     1       0.130   9.046  20.138  0.00  0.00    +0.000 C 
ATOM      2  C   UNL     1       0.335   9.959  18.918  0.00  0.00    +0.000 C 
ATOM      3  C   UNL     1       1.190   9.284  17.847  0.00  0.00    +0.000 C 
ATOM      4  C   UNL     1       2.496   8.738  18.424  0.00  0.00    +0.000 C 
ATOM      5  N   UNL     1       2.223   7.859  19.565  0.00  0.00    +0.000 N 
ATOM      6  C   UNL     1       2.507   6.495  19.678  0.00  0.00    +0.000 C 
ATOM      7  O   UNL     1       2.038   5.832  20.606  0.00  0.00    +0.000 OA
ATOM      8  C   UNL     1       1.475   8.494  20.634  0.00  0.00    +0.000 C 
ENDROOT
BRANCH   6   9
ATOM      9  C   UNL     1       3.347   5.870  18.674  0.00  0.00    +0.000 A 
ATOM     10  O   UNL     1       4.648   6.246  18.553  0.00  0.00    +0.000 OA
ATOM     11  C   UNL     1       5.186   5.563  17.515  0.00  0.00    +0.000 A 
ATOM     12  C   UNL     1       6.469   5.737  16.998  0.00  0.00    +0.000 A 
ATOM     13 CL   UNL     1       7.534   6.933  17.611  0.00  0.00    +0.000 Cl
ATOM     14  C   UNL     1       6.836   4.920  15.929  0.00  0.00    +0.000 A 
ATOM     15  C   UNL     1       5.947   3.970  15.417  0.00  0.00    +0.000 A 
ATOM     16  C   UNL     1       4.654   3.830  15.945  0.00  0.00    +0.000 A 
ATOM     17  C   UNL     1       4.261   4.657  17.014  0.00  0.00    +0.000 A 
ATOM     18  C   UNL     1       3.064   4.851  17.771  0.00  0.00    +0.000 A 
ATOM     19  C   UNL     1       1.759   4.158  17.613  0.00  0.00    +0.000 C 
ENDBRANCH   6   9
BRANCH   1  24
ATOM     20  C   UNL     1      -1.199  12.732  22.987  0.00  0.00    +0.000 C 
ATOM     21  C   UNL     1      -0.920  11.346  22.575  0.00  0.00    +0.000 A 
ATOM     22  N   UNL     1      -0.447  10.407  23.401  0.00  0.00    +0.000 NA
ATOM     23  O   UNL     1      -0.129   9.354  22.537  0.00  0.00    +0.000 OA
ATOM     24  C   UNL     1      -0.453   9.785  21.283  0.00  0.00    +0.000 A 
ATOM     25  N   UNL     1      -0.991  10.982  21.259  0.00  0.00    +0.000 NA
ENDBRANCH   1  24
TORSDOF 2
ENDMDL
MODEL 2
REMARK VINA RESULT:      -7.5      3.739      9.613
REMARK  Name = 
REMARK  4 active torsions:
REMARK  status: ('A' for Active; 'I' for Inactive)
REMARK    1  A    between atoms: C_1  and  C_2
REMARK    2  A    between atoms: C_5  and  C_6
REMARK    3  A    between atoms: C_11  and  C_13
REMARK    4  A    between atoms: C_22  and  C_23
REMARK                            x       y       z     vdW  Elec       q    Type
REMARK                         _______ _______ _______ _____ _____    ______ ____
ROOT
ATOM      1  C   UNL     1       1.535   8.736  20.201  0.00  0.00    +0.000 C 
ATOM      2  C   UNL     1       1.118   9.385  18.870  0.00  0.00    +0.000 C 
ATOM      3  C   UNL     1       0.360  10.692  19.096  0.00  0.00    +0.000 C 
ATOM      4  C   UNL     1      -0.800  10.514  20.075  0.00  0.00    +0.000 C 
ATOM      5  N   UNL     1      -0.325   9.915  21.326  0.00  0.00    +0.000 N 
ATOM      6  C   UNL     1      -0.349  10.479  22.605  0.00  0.00    +0.000 C 
ATOM      7  O   UNL     1       0.270   9.953  23.533  0.00  0.00    +0.000 OA
ATOM      8  C   UNL     1       0.335   8.635  21.154  0.00  0.00    +0.000 C 
ENDROOT
BRANCH   6   9
ATOM      9  C   UNL     1      -1.099  11.702  22.817  0.00  0.00    +0.000 A 
ATOM     10  O   UNL     1      -2.260  11.669  23.523  0.00  0.00    +0.000 OA
ATOM     11  C   UNL     1      -2.787  12.916  23.522  0.00  0.00    +0.000 A 
ATOM     12  C   UNL     1      -4.024  13.282  24.049  0.00  0.00    +0.000 A 
ATOM     13 CL   UNL     1      -5.090  12.128  24.735  0.00  0.00    +0.000 Cl
ATOM     14  C   UNL     1      -4.377  14.629  23.957  0.00  0.00    +0.000 A 
ATOM     15  C   UNL     1      -3.513  15.556  23.365  0.00  0.00    +0.000 A 
ATOM     16  C   UNL     1      -2.281  15.154  22.826  0.00  0.00    +0.000 A 
ATOM     17  C   UNL     1      -1.915  13.798  22.896  0.00  0.00    +0.000 A 
ATOM     18  C   UNL     1      -0.812  13.010  22.440  0.00  0.00    +0.000 A 
ATOM     19  C   UNL     1       0.380  13.461  21.677  0.00  0.00    +0.000 C 
ENDBRANCH   6   9
BRANCH   1  24
ATOM     20  C   UNL     1       2.688   4.574  18.004  0.00  0.00    +0.000 C 
ATOM     21  C   UNL     1       2.401   5.515  19.099  0.00  0.00    +0.000 A 
ATOM     22  N   UNL     1       1.801   5.163  20.242  0.00  0.00    +0.000 NA
ATOM     23  O   UNL     1       1.539   6.393  20.856  0.00  0.00    +0.000 OA
ATOM     24  C   UNL     1       2.017   7.348  20.005  0.00  0.00    +0.000 A 
ATOM     25  N   UNL     1       2.602   6.858  18.937  0.00  0.00    +0.000 NA
ENDBRANCH   1  24
TORSDOF 2
ENDMDL
MODEL 3
REMARK VINA RESULT:      -7.3      1.720      2.252
REMARK  Name = 
REMARK  4 active torsions:
REMARK  status: ('A' for Active; 'I' for Inactive)
REMARK    1  A    between atoms: C_1  and  C_2
REMARK    2  A    between atoms: C_5  and  C_6
REMARK    3  A    between atoms: C_11  and  C_13
REMARK    4  A    between atoms: C_22  and  C_23
REMARK                            x       y       z     vdW  Elec       q    Type
REMARK                         _______ _______ _______ _____ _____    ______ ____
ROOT
ATOM      1  C   UNL     1      -0.560  10.501  19.882  0.00  0.00    +0.000 C 
ATOM      2  C   UNL     1      -0.738  10.635  18.360  0.00  0.00    +0.000 C 
ATOM      3  C   UNL     1      -0.158   9.432  17.618  0.00  0.00    +0.000 C 
ATOM      4  C   UNL     1       1.283   9.147  18.038  0.00  0.00    +0.000 C 
ATOM      5  N   UNL     1       1.373   9.008  19.495  0.00  0.00    +0.000 N 
ATOM      6  C   UNL     1       1.756   7.876  20.221  0.00  0.00    +0.000 C 
ATOM      7  O   UNL     1       1.588   7.829  21.442  0.00  0.00    +0.000 OA
ATOM      8  C   UNL     1       0.898  10.165  20.229  0.00  0.00    +0.000 C 
ENDROOT
BRANCH   6   9
ATOM      9  C   UNL     1       2.337   6.752  19.512  0.00  0.00    +0.000 A 
ATOM     10  O   UNL     1       3.295   6.969  18.572  0.00  0.00    +0.000 OA
ATOM     11  C   UNL     1       3.620   5.775  18.023  0.00  0.00    +0.000 A 
ATOM     12  C   UNL     1       4.488   5.577  16.950  0.00  0.00    +0.000 A 
ATOM     13 CL   UNL     1       5.227   6.891  16.133  0.00  0.00    +0.000 Cl
ATOM     14  C   UNL     1       4.700   4.260  16.543  0.00  0.00    +0.000 A 
ATOM     15  C   UNL     1       4.066   3.199  17.196  0.00  0.00    +0.000 A 
ATOM     16  C   UNL     1       3.181   3.430  18.262  0.00  0.00    +0.000 A 
ATOM     17  C   UNL     1       2.945   4.753  18.676  0.00  0.00    +0.000 A 
ATOM     18  C   UNL     1       2.112   5.387  19.651  0.00  0.00    +0.000 A 
ATOM     19  C   UNL     1       1.157   4.747  20.594  0.00  0.00    +0.000 C 
ENDBRANCH   6   9
BRANCH   1  24
ATOM     20  C   UNL     1      -1.399  13.641  23.475  0.00  0.00    +0.000 C 
ATOM     21  C   UNL     1      -1.345  13.104  22.105  0.00  0.00    +0.000 A 
ATOM     22  N   UNL     1      -2.244  13.395  21.158  0.00  0.00    +0.000 NA
ATOM     23  O   UNL     1      -1.924  12.499  20.131  0.00  0.00    +0.000 OA
ATOM     24  C   UNL     1      -0.862  11.772  20.582  0.00  0.00    +0.000 A 
ATOM     25  N   UNL     1      -0.435  12.140  21.768  0.00  0.00    +0.000 NA
ENDBRANCH   1  24
TORSDOF 2
ENDMDL
MODEL 4
REMARK VINA RESULT:      -7.3      1.693      2.139
REMARK  Name = 
REMARK  4 active torsions:
REMARK  status: ('A' for Active; 'I' for Inactive)
REMARK    1  A    between atoms: C_1  and  C_2
REMARK    2  A    between atoms: C_5  and  C_6
REMARK    3  A    between atoms: C_11  and  C_13
REMARK    4  A    between atoms: C_22  and  C_23
REMARK                            x       y       z     vdW  Elec       q    Type
REMARK                         _______ _______ _______ _____ _____    ______ ____
ROOT
ATOM      1  C   UNL     1      -0.438  10.442  20.103  0.00  0.00    +0.000 C 
ATOM      2  C   UNL     1      -0.562  10.685  18.590  0.00  0.00    +0.000 C 
ATOM      3  C   UNL     1      -0.002   9.514  17.784  0.00  0.00    +0.000 C 
ATOM      4  C   UNL     1       1.414   9.148  18.225  0.00  0.00    +0.000 C 
ATOM      5  N   UNL     1       1.453   8.907  19.671  0.00  0.00    +0.000 N 
ATOM      6  C   UNL     1       1.773   7.715  20.329  0.00  0.00    +0.000 C 
ATOM      7  O   UNL     1       1.565   7.592  21.538  0.00  0.00    +0.000 OA
ATOM      8  C   UNL     1       0.996  10.029  20.469  0.00  0.00    +0.000 C 
ENDROOT
BRANCH   6   9
ATOM      9  C   UNL     1       2.336   6.621  19.561  0.00  0.00    +0.000 A 
ATOM     10  O   UNL     1       3.317   6.868  18.653  0.00  0.00    +0.000 OA
ATOM     11  C   UNL     1       3.620   5.701  18.036  0.00  0.00    +0.000 A 
ATOM     12  C   UNL     1       4.503   5.545  16.969  0.00  0.00    +0.000 A 
ATOM     13 CL   UNL     1       5.294   6.885  16.248  0.00  0.00    +0.000 Cl
ATOM     14  C   UNL     1       4.686   4.249  16.485  0.00  0.00    +0.000 A 
ATOM     15  C   UNL     1       4.010   3.169  17.059  0.00  0.00    +0.000 A 
ATOM     16  C   UNL     1       3.111   3.359  18.121  0.00  0.00    +0.000 A 
ATOM     17  C   UNL     1       2.904   4.661  18.613  0.00  0.00    +0.000 A 
ATOM     18  C   UNL     1       2.070   5.257  19.610  0.00  0.00    +0.000 A 
ATOM     19  C   UNL     1       1.080   4.588  20.495  0.00  0.00    +0.000 C 
ENDBRANCH   6   9
BRANCH   1  24
ATOM     20  C   UNL     1      -1.489  15.064  21.105  0.00  0.00    +0.000 C 
ATOM     21  C   UNL     1      -1.045  13.678  21.326  0.00  0.00    +0.000 A 
ATOM     22  N   UNL     1      -0.077  13.336  22.184  0.00  0.00    +0.000 NA
ATOM     23  O   UNL     1       0.149  11.988  21.887  0.00  0.00    +0.000 OA
ATOM     24  C   UNL     1      -0.716  11.673  20.880  0.00  0.00    +0.000 A 
ATOM     25  N   UNL     1      -1.507  12.662  20.536  0.00  0.00    +0.000 NA
ENDBRANCH   1  24
TORSDOF 2
ENDMDL
MODEL 5
REMARK VINA RESULT:      -7.2      4.223      9.326
REMARK  Name = 
REMARK  4 active torsions:
REMARK  status: ('A' for Active; 'I' for Inactive)
REMARK    1  A    between atoms: C_1  and  C_2
REMARK    2  A    between atoms: C_5  and  C_6
REMARK    3  A    between atoms: C_11  and  C_13
REMARK    4  A    between atoms: C_22  and  C_23
REMARK                            x       y       z     vdW  Elec       q    Type
REMARK                         _______ _______ _______ _____ _____    ______ ____
ROOT
ATOM      1  C   UNL     1       1.684   8.158  20.151  0.00  0.00    +0.000 C 
ATOM      2  C   UNL     1       1.296   8.752  18.786  0.00  0.00    +0.000 C 
ATOM      3  C   UNL     1       0.624  10.116  18.937  0.00  0.00    +0.000 C 
ATOM      4  C   UNL     1      -0.536  10.070  19.931  0.00  0.00    +0.000 C 
ATOM      5  N   UNL     1      -0.089   9.517  21.212  0.00  0.00    +0.000 N 
ATOM      6  C   UNL     1      -0.067  10.156  22.456  0.00  0.00    +0.000 C 
ATOM      7  O   UNL     1       0.526   9.648  23.411  0.00  0.00    +0.000 OA
ATOM      8  C   UNL     1       0.488   8.189  21.114  0.00  0.00    +0.000 C 
ENDROOT
BRANCH   6   9
ATOM      9  C   UNL     1      -0.737  11.434  22.598  0.00  0.00    +0.000 A 
ATOM     10  O   UNL     1      -1.844  11.533  23.381  0.00  0.00    +0.000 OA
ATOM     11  C   UNL     1      -2.306  12.803  23.294  0.00  0.00    +0.000 A 
ATOM     12  C   UNL     1      -3.482  13.287  23.865  0.00  0.00    +0.000 A 
ATOM     13 CL   UNL     1      -4.552  12.265  24.730  0.00  0.00    +0.000 Cl
ATOM     14  C   UNL     1      -3.771  14.637  23.667  0.00  0.00    +0.000 A 
ATOM     15  C   UNL     1      -2.907  15.454  22.931  0.00  0.00    +0.000 A 
ATOM     16  C   UNL     1      -1.738  14.934  22.352  0.00  0.00    +0.000 A 
ATOM     17  C   UNL     1      -1.438  13.571  22.528  0.00  0.00    +0.000 A 
ATOM     18  C   UNL     1      -0.412  12.683  22.078  0.00  0.00    +0.000 A 
ATOM     19  C   UNL     1       0.744  12.991  21.196  0.00  0.00    +0.000 C 
ENDBRANCH   6   9
BRANCH   1  24
ATOM     20  C   UNL     1       2.398   3.514  21.333  0.00  0.00    +0.000 C 
ATOM     21  C   UNL     1       2.502   4.768  20.568  0.00  0.00    +0.000 A 
ATOM     22  N   UNL     1       3.598   5.140  19.898  0.00  0.00    +0.000 NA
ATOM     23  O   UNL     1       3.317   6.463  19.538  0.00  0.00    +0.000 OA
ATOM     24  C   UNL     1       2.076   6.733  20.036  0.00  0.00    +0.000 A 
ATOM     25  N   UNL     1       1.511   5.709  20.632  0.00  0.00    +0.000 NA
ENDBRANCH   1  24
TORSDOF 2
ENDMDL
MODEL 6
REMARK VINA RESULT:      -7.2      1.042      1.174
REMARK  Name = 
REMARK  4 active torsions:
REMARK  status: ('A' for Active; 'I' for Inactive)
REMARK    1  A    between atoms: C_1  and  C_2
REMARK    2  A    between atoms: C_5  and  C_6
REMARK    3  A    between atoms: C_11  and  C_13
REMARK    4  A    between atoms: C_22  and  C_23
REMARK                            x       y       z     vdW  Elec       q    Type
REMARK                         _______ _______ _______ _____ _____    ______ ____
ROOT
ATOM      1  C   UNL     1       0.062   9.700  19.802  0.00  0.00    +0.000 C 
ATOM      2  C   UNL     1       0.241  10.335  18.413  0.00  0.00    +0.000 C 
ATOM      3  C   UNL     1       1.031   9.425  17.475  0.00  0.00    +0.000 C 
ATOM      4  C   UNL     1       2.345   8.963  18.106  0.00  0.00    +0.000 C 
ATOM      5  N   UNL     1       2.096   8.348  19.412  0.00  0.00    +0.000 N 
ATOM      6  C   UNL     1       2.348   7.026  19.795  0.00  0.00    +0.000 C 
ATOM      7  O   UNL     1       1.900   6.585  20.856  0.00  0.00    +0.000 OA
ATOM      8  C   UNL     1       1.411   9.214  20.353  0.00  0.00    +0.000 C 
ENDROOT
BRANCH   6   9
ATOM      9  C   UNL     1       3.127   6.179  18.913  0.00  0.00    +0.000 A 
ATOM     10  O   UNL     1       4.465   6.388  18.785  0.00  0.00    +0.000 OA
ATOM     11  C   UNL     1       4.939   5.513  17.867  0.00  0.00    +0.000 A 
ATOM     12  C   UNL     1       6.242   5.471  17.373  0.00  0.00    +0.000 A 
ATOM     13 CL   UNL     1       7.426   6.613  17.854  0.00  0.00    +0.000 Cl
ATOM     14  C   UNL     1       6.531   4.477  16.437  0.00  0.00    +0.000 A 
ATOM     15  C   UNL     1       5.548   3.572  16.028  0.00  0.00    +0.000 A 
ATOM     16  C   UNL     1       4.238   3.650  16.528  0.00  0.00    +0.000 A 
ATOM     17  C   UNL     1       3.925   4.655  17.462  0.00  0.00    +0.000 A 
ATOM     18  C   UNL     1       2.745   5.083  18.147  0.00  0.00    +0.000 A 
ATOM     19  C   UNL     1       1.372   4.525  18.041  0.00  0.00    +0.000 C 
ENDBRANCH   6   9
BRANCH   1  24
ATOM     20  C   UNL     1      -2.417  11.537  23.537  0.00  0.00    +0.000 C 
ATOM     21  C   UNL     1      -1.602  11.508  22.311  0.00  0.00    +0.000 A 
ATOM     22  N   UNL     1      -1.694  12.420  21.337  0.00  0.00    +0.000 NA
ATOM     23  O   UNL     1      -0.922  11.866  20.309  0.00  0.00    +0.000 OA
ATOM     24  C   UNL     1      -0.452  10.678  20.790  0.00  0.00    +0.000 A 
ATOM     25  N   UNL     1      -0.798  10.437  22.033  0.00  0.00    +0.000 NA
ENDBRANCH   1  24
TORSDOF 2
ENDMDL
MODEL 7
REMARK VINA RESULT:      -7.1      3.391      8.174
REMARK  Name = 
REMARK  4 active torsions:
REMARK  status: ('A' for Active; 'I' for Inactive)
REMARK    1  A    between atoms: C_1  and  C_2
REMARK    2  A    between atoms: C_5  and  C_6
REMARK    3  A    between atoms: C_11  and  C_13
REMARK    4  A    between atoms: C_22  and  C_23
REMARK                            x       y       z     vdW  Elec       q    Type
REMARK                         _______ _______ _______ _____ _____    ______ ____
ROOT
ATOM      1  C   UNL     1       2.328   7.314  19.701  0.00  0.00    +0.000 C 
ATOM      2  C   UNL     1       2.156   7.762  18.239  0.00  0.00    +0.000 C 
ATOM      3  C   UNL     1       1.833   9.251  18.141  0.00  0.00    +0.000 C 
ATOM      4  C   UNL     1       0.656   9.637  19.037  0.00  0.00    +0.000 C 
ATOM      5  N   UNL     1       0.899   9.202  20.415  0.00  0.00    +0.000 N 
ATOM      6  C   UNL     1       1.025  10.005  21.554  0.00  0.00    +0.000 C 
ATOM      7  O   UNL     1       1.434   9.528  22.614  0.00  0.00    +0.000 OA
ATOM      8  C   UNL     1       1.137   7.778  20.553  0.00  0.00    +0.000 C 
ENDROOT
BRANCH   6   9
ATOM      9  C   UNL     1       0.684  11.411  21.459  0.00  0.00    +0.000 A 
ATOM     10  O   UNL     1       1.488  12.256  20.761  0.00  0.00    +0.000 OA
ATOM     11  C   UNL     1       0.984  13.508  20.879  0.00  0.00    +0.000 A 
ATOM     12  C   UNL     1       1.573  14.675  20.396  0.00  0.00    +0.000 A 
ATOM     13 CL   UNL     1       3.100  14.661  19.617  0.00  0.00    +0.000 Cl
ATOM     14  C   UNL     1       0.881  15.867  20.612  0.00  0.00    +0.000 A 
ATOM     15  C   UNL     1      -0.348  15.870  21.278  0.00  0.00    +0.000 A 
ATOM     16  C   UNL     1      -0.908  14.680  21.770  0.00  0.00    +0.000 A 
ATOM     17  C   UNL     1      -0.216  13.471  21.575  0.00  0.00    +0.000 A 
ATOM     18  C   UNL     1      -0.417  12.105  21.949  0.00  0.00    +0.000 A 
ATOM     19  C   UNL     1      -1.535  11.529  22.742  0.00  0.00    +0.000 C 
ENDBRANCH   6   9
BRANCH   1  24
ATOM     20  C   UNL     1       1.810   2.877  21.575  0.00  0.00    +0.000 C 
ATOM     21  C   UNL     1       2.263   3.936  20.657  0.00  0.00    +0.000 A 
ATOM     22  N   UNL     1       3.453   3.930  20.046  0.00  0.00    +0.000 NA
ATOM     23  O   UNL     1       3.526   5.209  19.483  0.00  0.00    +0.000 OA
ATOM     24  C   UNL     1       2.364   5.837  19.821  0.00  0.00    +0.000 A 
ATOM     25  N   UNL     1       1.532   5.081  20.497  0.00  0.00    +0.000 NA
ENDBRANCH   1  24
TORSDOF 2
ENDMDL
MODEL 8
REMARK VINA RESULT:      -7.0      3.500      7.959
REMARK  Name = 
REMARK  4 active torsions:
REMARK  status: ('A' for Active; 'I' for Inactive)
REMARK    1  A    between atoms: C_1  and  C_2
REMARK    2  A    between atoms: C_5  and  C_6
REMARK    3  A    between atoms: C_11  and  C_13
REMARK    4  A    between atoms: C_22  and  C_23
REMARK                            x       y       z     vdW  Elec       q    Type
REMARK                         _______ _______ _______ _____ _____    ______ ____
ROOT
ATOM      1  C   UNL     1       2.384   7.369  19.729  0.00  0.00    +0.000 C 
ATOM      2  C   UNL     1       2.392   7.489  18.196  0.00  0.00    +0.000 C 
ATOM      3  C   UNL     1       2.170   8.931  17.744  0.00  0.00    +0.000 C 
ATOM      4  C   UNL     1       0.931   9.546  18.395  0.00  0.00    +0.000 C 
ATOM      5  N   UNL     1       1.004   9.417  19.854  0.00  0.00    +0.000 N 
ATOM      6  C   UNL     1       1.059  10.446  20.799  0.00  0.00    +0.000 C 
ATOM      7  O   UNL     1       1.327  10.200  21.978  0.00  0.00    +0.000 OA
ATOM      8  C   UNL     1       1.141   8.050  20.320  0.00  0.00    +0.000 C 
ENDROOT
BRANCH   6   9
ATOM      9  C   UNL     1       0.813  11.808  20.366  0.00  0.00    +0.000 A 
ATOM     10  O   UNL     1       1.832  12.547  19.853  0.00  0.00    +0.000 OA
ATOM     11  C   UNL     1       1.357  13.787  19.588  0.00  0.00    +0.000 A 
ATOM     12  C   UNL     1       2.110  14.875  19.148  0.00  0.00    +0.000 A 
ATOM     13 CL   UNL     1       3.809  14.773  18.943  0.00  0.00    +0.000 Cl
ATOM     14  C   UNL     1       1.424  16.068  18.919  0.00  0.00    +0.000 A 
ATOM     15  C   UNL     1       0.043  16.148  19.122  0.00  0.00    +0.000 A 
ATOM     16  C   UNL     1      -0.687  15.041  19.584  0.00  0.00    +0.000 A 
ATOM     17  C   UNL     1      -0.008  13.834  19.834  0.00  0.00    +0.000 A 
ATOM     18  C   UNL     1      -0.366  12.544  20.336  0.00  0.00    +0.000 A 
ATOM     19  C   UNL     1      -1.703  12.077  20.788  0.00  0.00    +0.000 C 
ENDBRANCH   6   9
BRANCH   1  24
ATOM     20  C   UNL     1       2.778   2.541  19.632  0.00  0.00    +0.000 C 
ATOM     21  C   UNL     1       2.366   3.876  20.096  0.00  0.00    +0.000 A 
ATOM     22  N   UNL     1       1.189   4.128  20.681  0.00  0.00    +0.000 NA
ATOM     23  O   UNL     1       1.152   5.526  20.730  0.00  0.00    +0.000 OA
ATOM     24  C   UNL     1       2.319   5.954  20.167  0.00  0.00    +0.000 A 
ATOM     25  N   UNL     1       3.121   4.979  19.809  0.00  0.00    +0.000 NA
ENDBRANCH   1  24
TORSDOF 2
ENDMDL
MODEL 9
REMARK VINA RESULT:      -7.0      3.316      8.228
REMARK  Name = 
REMARK  4 active torsions:
REMARK  status: ('A' for Active; 'I' for Inactive)
REMARK    1  A    between atoms: C_1  and  C_2
REMARK    2  A    between atoms: C_5  and  C_6
REMARK    3  A    between atoms: C_11  and  C_13
REMARK    4  A    between atoms: C_22  and  C_23
REMARK                            x       y       z     vdW  Elec       q    Type
REMARK                         _______ _______ _______ _____ _____    ______ ____
ROOT
ATOM      1  C   UNL     1       2.271   7.452  19.642  0.00  0.00    +0.000 C 
ATOM      2  C   UNL     1       2.155   7.951  18.192  0.00  0.00    +0.000 C 
ATOM      3  C   UNL     1       1.886   9.453  18.133  0.00  0.00    +0.000 C 
ATOM      4  C   UNL     1       0.698   9.851  19.009  0.00  0.00    +0.000 C 
ATOM      5  N   UNL     1       0.888   9.365  20.379  0.00  0.00    +0.000 N 
ATOM      6  C   UNL     1       1.009  10.127  21.546  0.00  0.00    +0.000 C 
ATOM      7  O   UNL     1       1.372   9.603  22.601  0.00  0.00    +0.000 OA
ATOM      8  C   UNL     1       1.073   7.930  20.476  0.00  0.00    +0.000 C 
ENDROOT
BRANCH   6   9
ATOM      9  C   UNL     1       0.718  11.546  21.488  0.00  0.00    +0.000 A 
ATOM     10  O   UNL     1       1.579  12.386  20.853  0.00  0.00    +0.000 OA
ATOM     11  C   UNL     1       1.111  13.650  20.996  0.00  0.00    +0.000 A 
ATOM     12  C   UNL     1       1.757  14.813  20.579  0.00  0.00    +0.000 A 
ATOM     13 CL   UNL     1       3.314  14.773  19.862  0.00  0.00    +0.000 Cl
ATOM     14  C   UNL     1       1.096  16.019  20.809  0.00  0.00    +0.000 A 
ATOM     15  C   UNL     1      -0.158  16.042  21.425  0.00  0.00    +0.000 A 
ATOM     16  C   UNL     1      -0.777  14.855  21.851  0.00  0.00    +0.000 A 
ATOM     17  C   UNL     1      -0.118  13.630  21.641  0.00  0.00    +0.000 A 
ATOM     18  C   UNL     1      -0.379  12.260  21.958  0.00  0.00    +0.000 A 
ATOM     19  C   UNL     1      -1.547  11.696  22.683  0.00  0.00    +0.000 C 
ENDBRANCH   6   9
BRANCH   1  24
ATOM     20  C   UNL     1       1.547   2.831  18.378  0.00  0.00    +0.000 C 
ATOM     21  C   UNL     1       1.836   3.991  19.239  0.00  0.00    +0.000 A 
ATOM     22  N   UNL     1       1.463   4.074  20.521  0.00  0.00    +0.000 NA
ATOM     23  O   UNL     1       1.741   5.407  20.846  0.00  0.00    +0.000 OA
ATOM     24  C   UNL     1       2.253   5.972  19.715  0.00  0.00    +0.000 A 
ATOM     25  N   UNL     1       2.381   5.131  18.716  0.00  0.00    +0.000 NA
ENDBRANCH   1  24
TORSDOF 2
ENDMDL
