MODEL 1
REMARK VINA RESULT:      -8.6      0.000      0.000
REMARK  Name = 
REMARK  7 active torsions:
REMARK  status: ('A' for Active; 'I' for Inactive)
REMARK    1  A    between atoms: C_1  and  O_2
REMARK    2  A    between atoms: O_2  and  C_3
REMARK    3  A    between atoms: C_7  and  C_8
REMARK    4  A    between atoms: C_10  and  N_11
REMARK    5  A    between atoms: N_11  and  C_12
REMARK    6  A    between atoms: C_12  and  C_13
REMARK    7  A    between atoms: C_17  and  C_18
REMARK                            x       y       z     vdW  Elec       q    Type
REMARK                         _______ _______ _______ _____ _____    ______ ____
ROOT
ATOM      1  C   UNL     1       6.545   4.899  16.011  0.00  0.00    +0.000 A 
ATOM      2  C   UNL     1       5.369   5.409  16.531  0.00  0.00    +0.000 A 
ATOM      3  C   UNL     1       5.308   5.647  17.889  0.00  0.00    +0.000 A 
ATOM      4  N   UNL     1       6.339   5.371  18.696  0.00  0.00    +0.000 NA
ATOM      5  C   UNL     1       7.429   4.849  18.113  0.00  0.00    +0.000 A 
ATOM      6  N   UNL     1       7.593   4.607  16.806  0.00  0.00    +0.000 NA
ENDROOT
BRANCH   1  11
ATOM      7  C   UNL     1       6.085   3.513  12.499  0.00  0.00    +0.000 A 
ATOM      8  C   UNL     1       7.043   4.241  11.795  0.00  0.00    +0.000 A 
ATOM      9  C   UNL     1       7.841   5.175  12.453  0.00  0.00    +0.000 A 
ATOM     10  C   UNL     1       7.685   5.384  13.825  0.00  0.00    +0.000 A 
ATOM     11  C   UNL     1       6.727   4.669  14.563  0.00  0.00    +0.000 A 
ATOM     12  C   UNL     1       5.937   3.730  13.870  0.00  0.00    +0.000 A 
BRANCH   7  14
ATOM     13  C   UNL     1       4.112   3.072  11.249  0.00  0.00    +0.000 C 
ATOM     14  O   UNL     1       5.364   2.619  11.754  0.00  0.00    +0.000 OA
ENDBRANCH   7  14
ENDBRANCH   1  11
BRANCH   3  15
ATOM     15  N   UNL     1       4.169   6.271  18.371  0.00  0.00    +0.000 N 
ATOM     16  H   UNL     1       4.285   7.243  18.619  0.00  0.00    +0.000 HD
BRANCH  15  17
ATOM     17  C   UNL     1       2.872   5.915  17.838  0.00  0.00    +0.000 C 
BRANCH  17  18
ATOM     18  C   UNL     1       2.565   4.531  18.360  0.00  0.00    +0.000 A 
ATOM     19  C   UNL     1       2.414   3.442  17.492  0.00  0.00    +0.000 A 
ATOM     20  C   UNL     1       2.028   2.198  17.990  0.00  0.00    +0.000 A 
ATOM     21  C   UNL     1       1.785   2.028  19.354  0.00  0.00    +0.000 A 
ATOM     22  C   UNL     1       1.926   3.103  20.238  0.00  0.00    +0.000 A 
ATOM     23  C   UNL     1       1.644   2.948  21.701  0.00  0.00    +0.000 C 
ATOM     24  C   UNL     1       2.317   4.348  19.732  0.00  0.00    +0.000 A 
ENDBRANCH  17  18
ENDBRANCH  15  17
ENDBRANCH   3  15
TORSDOF 5
ENDMDL
MODEL 2
REMARK VINA RESULT:      -8.5      0.927      1.626
REMARK  Name = 
REMARK  7 active torsions:
REMARK  status: ('A' for Active; 'I' for Inactive)
REMARK    1  A    between atoms: C_1  and  O_2
REMARK    2  A    between atoms: O_2  and  C_3
REMARK    3  A    between atoms: C_7  and  C_8
REMARK    4  A    between atoms: C_10  and  N_11
REMARK    5  A    between atoms: N_11  and  C_12
REMARK    6  A    between atoms: C_12  and  C_13
REMARK    7  A    between atoms: C_17  and  C_18
REMARK                            x       y       z     vdW  Elec       q    Type
REMARK                         _______ _______ _______ _____ _____    ______ ____
ROOT
ATOM      1  C   UNL     1       6.710   4.904  15.866  0.00  0.00    +0.000 A 
ATOM      2  C   UNL     1       5.618   5.555  16.411  0.00  0.00    +0.000 A 
ATOM      3  C   UNL     1       5.625   5.813  17.767  0.00  0.00    +0.000 A 
ATOM      4  N   UNL     1       6.639   5.425  18.548  0.00  0.00    +0.000 NA
ATOM      5  C   UNL     1       7.642   4.772  17.943  0.00  0.00    +0.000 A 
ATOM      6  N   UNL     1       7.739   4.498  16.636  0.00  0.00    +0.000 NA
ENDROOT
BRANCH   1  11
ATOM      7  C   UNL     1       6.115   3.397  12.425  0.00  0.00    +0.000 A 
ATOM      8  C   UNL     1       7.001   4.141  11.649  0.00  0.00    +0.000 A 
ATOM      9  C   UNL     1       7.795   5.127  12.234  0.00  0.00    +0.000 A 
ATOM     10  C   UNL     1       7.706   5.369  13.606  0.00  0.00    +0.000 A 
ATOM     11  C   UNL     1       6.821   4.638  14.417  0.00  0.00    +0.000 A 
ATOM     12  C   UNL     1       6.034   3.648  13.795  0.00  0.00    +0.000 A 
BRANCH   7  14
ATOM     13  C   UNL     1       6.118   1.337  11.240  0.00  0.00    +0.000 C 
ATOM     14  O   UNL     1       5.393   2.453  11.746  0.00  0.00    +0.000 OA
ENDBRANCH   7  14
ENDBRANCH   1  11
BRANCH   3  15
ATOM     15  N   UNL     1       4.582   6.572  18.272  0.00  0.00    +0.000 N 
ATOM     16  H   UNL     1       4.840   7.494  18.594  0.00  0.00    +0.000 HD
BRANCH  15  17
ATOM     17  C   UNL     1       3.264   6.463  17.687  0.00  0.00    +0.000 C 
BRANCH  17  18
ATOM     18  C   UNL     1       2.440   5.643  18.652  0.00  0.00    +0.000 A 
ATOM     19  C   UNL     1       2.263   6.045  19.983  0.00  0.00    +0.000 A 
ATOM     20  C   UNL     1       1.586   5.219  20.879  0.00  0.00    +0.000 A 
ATOM     21  C   UNL     1       1.084   3.984  20.462  0.00  0.00    +0.000 A 
ATOM     22  C   UNL     1       1.254   3.562  19.140  0.00  0.00    +0.000 A 
ATOM     23  C   UNL     1       0.747   2.229  18.678  0.00  0.00    +0.000 C 
ATOM     24  C   UNL     1       1.931   4.397  18.243  0.00  0.00    +0.000 A 
ENDBRANCH  17  18
ENDBRANCH  15  17
ENDBRANCH   3  15
TORSDOF 5
ENDMDL
MODEL 3
REMARK VINA RESULT:      -8.4      1.334      1.852
REMARK  Name = 
REMARK  7 active torsions:
REMARK  status: ('A' for Active; 'I' for Inactive)
REMARK    1  A    between atoms: C_1  and  O_2
REMARK    2  A    between atoms: O_2  and  C_3
REMARK    3  A    between atoms: C_7  and  C_8
REMARK    4  A    between atoms: C_10  and  N_11
REMARK    5  A    between atoms: N_11  and  C_12
REMARK    6  A    between atoms: C_12  and  C_13
REMARK    7  A    between atoms: C_17  and  C_18
REMARK                            x       y       z     vdW  Elec       q    Type
REMARK                         _______ _______ _______ _____ _____    ______ ____
ROOT
ATOM      1  C   UNL     1       6.893   5.121  15.878  0.00  0.00    +0.000 A 
ATOM      2  C   UNL     1       6.325   4.272  16.811  0.00  0.00    +0.000 A 
ATOM      3  C   UNL     1       6.274   4.691  18.125  0.00  0.00    +0.000 A 
ATOM      4  N   UNL     1       6.780   5.870  18.505  0.00  0.00    +0.000 NA
ATOM      5  C   UNL     1       7.341   6.616  17.541  0.00  0.00    +0.000 A 
ATOM      6  N   UNL     1       7.415   6.309  16.239  0.00  0.00    +0.000 NA
ENDROOT
BRANCH   1  11
ATOM      7  C   UNL     1       6.118   3.477  12.537  0.00  0.00    +0.000 A 
ATOM      8  C   UNL     1       6.992   4.158  11.693  0.00  0.00    +0.000 A 
ATOM      9  C   UNL     1       7.835   5.145  12.201  0.00  0.00    +0.000 A 
ATOM     10  C   UNL     1       7.809   5.453  13.562  0.00  0.00    +0.000 A 
ATOM     11  C   UNL     1       6.937   4.787  14.440  0.00  0.00    +0.000 A 
ATOM     12  C   UNL     1       6.099   3.792  13.896  0.00  0.00    +0.000 A 
BRANCH   7  14
ATOM     13  C   UNL     1       6.030   1.457  11.288  0.00  0.00    +0.000 C 
ATOM     14  O   UNL     1       5.343   2.524  11.932  0.00  0.00    +0.000 OA
ENDBRANCH   7  14
ENDBRANCH   1  11
BRANCH   3  15
ATOM     15  N   UNL     1       5.593   3.883  19.021  0.00  0.00    +0.000 N 
ATOM     16  H   UNL     1       5.450   4.284  19.937  0.00  0.00    +0.000 HD
BRANCH  15  17
ATOM     17  C   UNL     1       4.536   3.016  18.550  0.00  0.00    +0.000 C 
BRANCH  17  18
ATOM     18  C   UNL     1       3.292   3.416  19.306  0.00  0.00    +0.000 A 
ATOM     19  C   UNL     1       2.260   2.499  19.548  0.00  0.00    +0.000 A 
ATOM     20  C   UNL     1       1.078   2.919  20.156  0.00  0.00    +0.000 A 
ATOM     21  C   UNL     1       0.910   4.255  20.525  0.00  0.00    +0.000 A 
ATOM     22  C   UNL     1       1.925   5.188  20.289  0.00  0.00    +0.000 A 
ATOM     23  C   UNL     1       1.753   6.631  20.652  0.00  0.00    +0.000 C 
ATOM     24  C   UNL     1       3.111   4.759  19.681  0.00  0.00    +0.000 A 
ENDBRANCH  17  18
ENDBRANCH  15  17
ENDBRANCH   3  15
TORSDOF 5
ENDMDL
MODEL 4
REMARK VINA RESULT:      -8.3      1.172      1.491
REMARK  Name = 
REMARK  7 active torsions:
REMARK  status: ('A' for Active; 'I' for Inactive)
REMARK    1  A    between atoms: C_1  and  O_2
REMARK    2  A    between atoms: O_2  and  C_3
REMARK    3  A    between atoms: C_7  and  C_8
REMARK    4  A    between atoms: C_10  and  N_11
REMARK    5  A    between atoms: N_11  and  C_12
REMARK    6  A    between atoms: C_12  and  C_13
REMARK    7  A    between atoms: C_17  and  C_18
REMARK                            x       y       z     vdW  Elec       q    Type
REMARK                         _______ _______ _______ _____ _____    ______ ____
ROOT
ATOM      1  C   UNL     1       6.912   5.147  15.872  0.00  0.00    +0.000 A 
ATOM      2  C   UNL     1       6.376   4.258  16.786  0.00  0.00    +0.000 A 
ATOM      3  C   UNL     1       6.288   4.656  18.105  0.00  0.00    +0.000 A 
ATOM      4  N   UNL     1       6.731   5.852  18.506  0.00  0.00    +0.000 NA
ATOM      5  C   UNL     1       7.265   6.638  17.560  0.00  0.00    +0.000 A 
ATOM      6  N   UNL     1       7.371   6.353  16.255  0.00  0.00    +0.000 NA
ENDROOT
BRANCH   1  11
ATOM      7  C   UNL     1       6.222   3.550  12.489  0.00  0.00    +0.000 A 
ATOM      8  C   UNL     1       7.111   4.249  11.675  0.00  0.00    +0.000 A 
ATOM      9  C   UNL     1       7.937   5.232  12.217  0.00  0.00    +0.000 A 
ATOM     10  C   UNL     1       7.878   5.519  13.582  0.00  0.00    +0.000 A 
ATOM     11  C   UNL     1       6.991   4.834  14.430  0.00  0.00    +0.000 A 
ATOM     12  C   UNL     1       6.171   3.844  13.852  0.00  0.00    +0.000 A 
BRANCH   7  14
ATOM     13  C   UNL     1       4.210   3.030  11.336  0.00  0.00    +0.000 C 
ATOM     14  O   UNL     1       5.466   2.603  11.852  0.00  0.00    +0.000 OA
ENDBRANCH   7  14
ENDBRANCH   1  11
BRANCH   3  15
ATOM     15  N   UNL     1       5.638   3.802  18.981  0.00  0.00    +0.000 N 
ATOM     16  H   UNL     1       5.265   4.242  19.810  0.00  0.00    +0.000 HD
BRANCH  15  17
ATOM     17  C   UNL     1       4.869   2.691  18.467  0.00  0.00    +0.000 C 
BRANCH  17  18
ATOM     18  C   UNL     1       3.435   2.949  18.864  0.00  0.00    +0.000 A 
ATOM     19  C   UNL     1       2.549   3.614  18.004  0.00  0.00    +0.000 A 
ATOM     20  C   UNL     1       1.262   3.932  18.434  0.00  0.00    +0.000 A 
ATOM     21  C   UNL     1       0.846   3.597  19.725  0.00  0.00    +0.000 A 
ATOM     22  C   UNL     1       1.714   2.938  20.600  0.00  0.00    +0.000 A 
ATOM     23  C   UNL     1       1.296   2.595  21.998  0.00  0.00    +0.000 C 
ATOM     24  C   UNL     1       3.004   2.618  20.161  0.00  0.00    +0.000 A 
ENDBRANCH  17  18
ENDBRANCH  15  17
ENDBRANCH   3  15
TORSDOF 5
ENDMDL
MODEL 5
REMARK VINA RESULT:      -8.1      1.481      2.813
REMARK  Name = 
REMARK  7 active torsions:
REMARK  status: ('A' for Active; 'I' for Inactive)
REMARK    1  A    between atoms: C_1  and  O_2
REMARK    2  A    between atoms: O_2  and  C_3
REMARK    3  A    between atoms: C_7  and  C_8
REMARK    4  A    between atoms: C_10  and  N_11
REMARK    5  A    between atoms: N_11  and  C_12
REMARK    6  A    between atoms: C_12  and  C_13
REMARK    7  A    between atoms: C_17  and  C_18
REMARK                            x       y       z     vdW  Elec       q    Type
REMARK                         _______ _______ _______ _____ _____    ______ ____
ROOT
ATOM      1  C   UNL     1       6.563   4.970  15.908  0.00  0.00    +0.000 A 
ATOM      2  C   UNL     1       5.631   4.300  16.681  0.00  0.00    +0.000 A 
ATOM      3  C   UNL     1       5.500   4.669  18.004  0.00  0.00    +0.000 A 
ATOM      4  N   UNL     1       6.264   5.625  18.545  0.00  0.00    +0.000 NA
ATOM      5  C   UNL     1       7.163   6.199  17.731  0.00  0.00    +0.000 A 
ATOM      6  N   UNL     1       7.347   5.930  16.433  0.00  0.00    +0.000 NA
ENDROOT
BRANCH   1  11
ATOM      7  C   UNL     1       6.043   3.494  12.441  0.00  0.00    +0.000 A 
ATOM      8  C   UNL     1       7.027   4.161  11.714  0.00  0.00    +0.000 A 
ATOM      9  C   UNL     1       7.862   5.084  12.342  0.00  0.00    +0.000 A 
ATOM     10  C   UNL     1       7.717   5.341  13.707  0.00  0.00    +0.000 A 
ATOM     11  C   UNL     1       6.733   4.688  14.468  0.00  0.00    +0.000 A 
ATOM     12  C   UNL     1       5.906   3.759  13.804  0.00  0.00    +0.000 A 
BRANCH   7  14
ATOM     13  C   UNL     1       4.064   3.098  11.186  0.00  0.00    +0.000 C 
ATOM     14  O   UNL     1       5.287   2.606  11.724  0.00  0.00    +0.000 OA
ENDBRANCH   7  14
ENDBRANCH   1  11
BRANCH   3  15
ATOM     15  N   UNL     1       4.480   4.073  18.729  0.00  0.00    +0.000 N 
ATOM     16  H   UNL     1       4.638   4.017  19.725  0.00  0.00    +0.000 HD
BRANCH  15  17
ATOM     17  C   UNL     1       3.104   4.266  18.327  0.00  0.00    +0.000 C 
BRANCH  17  18
ATOM     18  C   UNL     1       2.663   5.573  18.944  0.00  0.00    +0.000 A 
ATOM     19  C   UNL     1       2.138   5.625  20.243  0.00  0.00    +0.000 A 
ATOM     20  C   UNL     1       1.642   6.825  20.749  0.00  0.00    +0.000 A 
ATOM     21  C   UNL     1       1.658   7.982  19.968  0.00  0.00    +0.000 A 
ATOM     22  C   UNL     1       2.173   7.951  18.668  0.00  0.00    +0.000 A 
ATOM     23  C   UNL     1       2.175   9.175  17.804  0.00  0.00    +0.000 C 
ATOM     24  C   UNL     1       2.673   6.744  18.166  0.00  0.00    +0.000 A 
ENDBRANCH  17  18
ENDBRANCH  15  17
ENDBRANCH   3  15
TORSDOF 5
ENDMDL
MODEL 6
REMARK VINA RESULT:      -8.1      1.888      2.951
REMARK  Name = 
REMARK  7 active torsions:
REMARK  status: ('A' for Active; 'I' for Inactive)
REMARK    1  A    between atoms: C_1  and  O_2
REMARK    2  A    between atoms: O_2  and  C_3
REMARK    3  A    between atoms: C_7  and  C_8
REMARK    4  A    between atoms: C_10  and  N_11
REMARK    5  A    between atoms: N_11  and  C_12
REMARK    6  A    between atoms: C_12  and  C_13
REMARK    7  A    between atoms: C_17  and  C_18
REMARK                            x       y       z     vdW  Elec       q    Type
REMARK                         _______ _______ _______ _____ _____    ______ ____
ROOT
ATOM      1  C   UNL     1       6.440   4.503  16.041  0.00  0.00    +0.000 A 
ATOM      2  C   UNL     1       5.171   4.463  16.591  0.00  0.00    +0.000 A 
ATOM      3  C   UNL     1       5.050   4.612  17.958  0.00  0.00    +0.000 A 
ATOM      4  N   UNL     1       6.123   4.761  18.744  0.00  0.00    +0.000 NA
ATOM      5  C   UNL     1       7.316   4.756  18.131  0.00  0.00    +0.000 A 
ATOM      6  N   UNL     1       7.533   4.645  16.814  0.00  0.00    +0.000 NA
ENDROOT
BRANCH   1  11
ATOM      7  C   UNL     1       6.088   3.465  12.399  0.00  0.00    +0.000 A 
ATOM      8  C   UNL     1       7.063   4.259  11.798  0.00  0.00    +0.000 A 
ATOM      9  C   UNL     1       7.838   5.126  12.566  0.00  0.00    +0.000 A 
ATOM     10  C   UNL     1       7.641   5.200  13.947  0.00  0.00    +0.000 A 
ATOM     11  C   UNL     1       6.665   4.415  14.584  0.00  0.00    +0.000 A 
ATOM     12  C   UNL     1       5.899   3.547  13.779  0.00  0.00    +0.000 A 
BRANCH   7  14
ATOM     13  C   UNL     1       4.079   3.062  11.195  0.00  0.00    +0.000 C 
ATOM     14  O   UNL     1       5.394   2.646  11.549  0.00  0.00    +0.000 OA
ENDBRANCH   7  14
ENDBRANCH   1  11
BRANCH   3  15
ATOM     15  N   UNL     1       3.767   4.692  18.475  0.00  0.00    +0.000 N 
ATOM     16  H   UNL     1       3.197   3.870  18.334  0.00  0.00    +0.000 HD
BRANCH  15  17
ATOM     17  C   UNL     1       3.532   5.410  19.708  0.00  0.00    +0.000 C 
BRANCH  17  18
ATOM     18  C   UNL     1       2.771   6.660  19.330  0.00  0.00    +0.000 A 
ATOM     19  C   UNL     1       2.876   7.217  18.048  0.00  0.00    +0.000 A 
ATOM     20  C   UNL     1       2.247   8.427  17.758  0.00  0.00    +0.000 A 
ATOM     21  C   UNL     1       1.513   9.095  18.740  0.00  0.00    +0.000 A 
ATOM     22  C   UNL     1       1.399   8.560  20.026  0.00  0.00    +0.000 A 
ATOM     23  C   UNL     1       0.640   9.275  21.102  0.00  0.00    +0.000 C 
ATOM     24  C   UNL     1       2.030   7.343  20.311  0.00  0.00    +0.000 A 
ENDBRANCH  17  18
ENDBRANCH  15  17
ENDBRANCH   3  15
TORSDOF 5
ENDMDL
MODEL 7
REMARK VINA RESULT:      -7.8      3.472      7.742
REMARK  Name = 
REMARK  7 active torsions:
REMARK  status: ('A' for Active; 'I' for Inactive)
REMARK    1  A    between atoms: C_1  and  O_2
REMARK    2  A    between atoms: O_2  and  C_3
REMARK    3  A    between atoms: C_7  and  C_8
REMARK    4  A    between atoms: C_10  and  N_11
REMARK    5  A    between atoms: N_11  and  C_12
REMARK    6  A    between atoms: C_12  and  C_13
REMARK    7  A    between atoms: C_17  and  C_18
REMARK                            x       y       z     vdW  Elec       q    Type
REMARK                         _______ _______ _______ _____ _____    ______ ____
ROOT
ATOM      1  C   UNL     1       3.029   5.269  18.559  0.00  0.00    +0.000 A 
ATOM      2  C   UNL     1       4.081   5.086  17.680  0.00  0.00    +0.000 A 
ATOM      3  C   UNL     1       4.494   3.795  17.420  0.00  0.00    +0.000 A 
ATOM      4  N   UNL     1       3.921   2.743  18.015  0.00  0.00    +0.000 NA
ATOM      5  C   UNL     1       2.929   3.014  18.877  0.00  0.00    +0.000 A 
ATOM      6  N   UNL     1       2.442   4.225  19.175  0.00  0.00    +0.000 NA
ENDROOT
BRANCH   1  11
ATOM      7  C   UNL     1       1.545   8.218  20.448  0.00  0.00    +0.000 A 
ATOM      8  C   UNL     1       1.450   9.168  19.433  0.00  0.00    +0.000 A 
ATOM      9  C   UNL     1       1.861   8.857  18.137  0.00  0.00    +0.000 A 
ATOM     10  C   UNL     1       2.367   7.587  17.851  0.00  0.00    +0.000 A 
ATOM     11  C   UNL     1       2.478   6.608  18.852  0.00  0.00    +0.000 A 
ATOM     12  C   UNL     1       2.052   6.952  20.151  0.00  0.00    +0.000 A 
BRANCH   7  14
ATOM     13  C   UNL     1       0.556   9.941  21.753  0.00  0.00    +0.000 C 
ATOM     14  O   UNL     1       1.106   8.630  21.678  0.00  0.00    +0.000 OA
ENDBRANCH   7  14
ENDBRANCH   1  11
BRANCH   3  15
ATOM     15  N   UNL     1       5.465   3.625  16.446  0.00  0.00    +0.000 N 
ATOM     16  H   UNL     1       5.212   3.001  15.693  0.00  0.00    +0.000 HD
BRANCH  15  17
ATOM     17  C   UNL     1       6.316   4.735  16.076  0.00  0.00    +0.000 C 
BRANCH  17  18
ATOM     18  C   UNL     1       6.652   4.542  14.616  0.00  0.00    +0.000 A 
ATOM     19  C   UNL     1       7.633   5.319  13.986  0.00  0.00    +0.000 A 
ATOM     20  C   UNL     1       7.851   5.194  12.615  0.00  0.00    +0.000 A 
ATOM     21  C   UNL     1       7.092   4.299  11.858  0.00  0.00    +0.000 A 
ATOM     22  C   UNL     1       6.105   3.517  12.465  0.00  0.00    +0.000 A 
ATOM     23  C   UNL     1       5.261   2.571  11.667  0.00  0.00    +0.000 C 
ATOM     24  C   UNL     1       5.893   3.645  13.843  0.00  0.00    +0.000 A 
ENDBRANCH  17  18
ENDBRANCH  15  17
ENDBRANCH   3  15
TORSDOF 5
ENDMDL
MODEL 8
REMARK VINA RESULT:      -7.8      4.435      6.252
REMARK  Name = 
REMARK  7 active torsions:
REMARK  status: ('A' for Active; 'I' for Inactive)
REMARK    1  A    between atoms: C_1  and  O_2
REMARK    2  A    between atoms: O_2  and  C_3
REMARK    3  A    between atoms: C_7  and  C_8
REMARK    4  A    between atoms: C_10  and  N_11
REMARK    5  A    between atoms: N_11  and  C_12
REMARK    6  A    between atoms: C_12  and  C_13
REMARK    7  A    between atoms: C_17  and  C_18
REMARK                            x       y       z     vdW  Elec       q    Type
REMARK                         _______ _______ _______ _____ _____    ______ ____
ROOT
ATOM      1  C   UNL     1       3.512   5.008  18.677  0.00  0.00    +0.000 A 
ATOM      2  C   UNL     1       3.039   6.174  19.251  0.00  0.00    +0.000 A 
ATOM      3  C   UNL     1       2.116   6.068  20.271  0.00  0.00    +0.000 A 
ATOM      4  N   UNL     1       1.661   4.880  20.684  0.00  0.00    +0.000 NA
ATOM      5  C   UNL     1       2.148   3.802  20.051  0.00  0.00    +0.000 A 
ATOM      6  N   UNL     1       3.062   3.801  19.072  0.00  0.00    +0.000 NA
ENDROOT
BRANCH   1  11
ATOM      7  C   UNL     1       6.599   5.957  16.668  0.00  0.00    +0.000 A 
ATOM      8  C   UNL     1       6.540   5.029  15.630  0.00  0.00    +0.000 A 
ATOM      9  C   UNL     1       5.503   4.099  15.574  0.00  0.00    +0.000 A 
ATOM     10  C   UNL     1       4.514   4.097  16.560  0.00  0.00    +0.000 A 
ATOM     11  C   UNL     1       4.545   5.017  17.621  0.00  0.00    +0.000 A 
ATOM     12  C   UNL     1       5.606   5.946  17.648  0.00  0.00    +0.000 A 
BRANCH   7  14
ATOM     13  C   UNL     1       7.677   7.862  17.593  0.00  0.00    +0.000 C 
ATOM     14  O   UNL     1       7.656   6.825  16.618  0.00  0.00    +0.000 OA
ENDBRANCH   7  14
ENDBRANCH   1  11
BRANCH   3  15
ATOM     15  N   UNL     1       1.747   7.239  20.915  0.00  0.00    +0.000 N 
ATOM     16  H   UNL     1       2.188   7.391  21.811  0.00  0.00    +0.000 HD
BRANCH  15  17
ATOM     17  C   UNL     1       1.477   8.431  20.142  0.00  0.00    +0.000 C 
BRANCH  17  18
ATOM     18  C   UNL     1       0.753   9.380  21.068  0.00  0.00    +0.000 A 
ATOM     19  C   UNL     1       0.284   8.960  22.320  0.00  0.00    +0.000 A 
ATOM     20  C   UNL     1      -0.472   9.824  23.110  0.00  0.00    +0.000 A 
ATOM     21  C   UNL     1      -0.772  11.112  22.661  0.00  0.00    +0.000 A 
ATOM     22  C   UNL     1      -0.318  11.550  21.413  0.00  0.00    +0.000 A 
ATOM     23  C   UNL     1      -0.653  12.917  20.900  0.00  0.00    +0.000 C 
ATOM     24  C   UNL     1       0.443  10.678  20.625  0.00  0.00    +0.000 A 
ENDBRANCH  17  18
ENDBRANCH  15  17
ENDBRANCH   3  15
TORSDOF 5
ENDMDL
MODEL 9
REMARK VINA RESULT:      -7.7      5.188      7.098
REMARK  Name = 
REMARK  7 active torsions:
REMARK  status: ('A' for Active; 'I' for Inactive)
REMARK    1  A    between atoms: C_1  and  O_2
REMARK    2  A    between atoms: O_2  and  C_3
REMARK    3  A    between atoms: C_7  and  C_8
REMARK    4  A    between atoms: C_10  and  N_11
REMARK    5  A    between atoms: N_11  and  C_12
REMARK    6  A    between atoms: C_12  and  C_13
REMARK    7  A    between atoms: C_17  and  C_18
REMARK                            x       y       z     vdW  Elec       q    Type
REMARK                         _______ _______ _______ _____ _____    ______ ____
ROOT
ATOM      1  C   UNL     1       2.501   7.335  18.568  0.00  0.00    +0.000 A 
ATOM      2  C   UNL     1       1.966   8.440  17.930  0.00  0.00    +0.000 A 
ATOM      3  C   UNL     1       1.274   9.359  18.692  0.00  0.00    +0.000 A 
ATOM      4  N   UNL     1       1.092   9.185  20.006  0.00  0.00    +0.000 NA
ATOM      5  C   UNL     1       1.617   8.071  20.537  0.00  0.00    +0.000 A 
ATOM      6  N   UNL     1       2.324   7.137  19.888  0.00  0.00    +0.000 NA
ENDROOT
BRANCH   1  11
ATOM      7  C   UNL     1       5.229   5.765  16.433  0.00  0.00    +0.000 A 
ATOM      8  C   UNL     1       4.876   4.418  16.494  0.00  0.00    +0.000 A 
ATOM      9  C   UNL     1       3.757   4.016  17.220  0.00  0.00    +0.000 A 
ATOM     10  C   UNL     1       2.980   4.964  17.888  0.00  0.00    +0.000 A 
ATOM     11  C   UNL     1       3.309   6.330  17.848  0.00  0.00    +0.000 A 
ATOM     12  C   UNL     1       4.446   6.705  17.104  0.00  0.00    +0.000 A 
BRANCH   7  14
ATOM     13  C   UNL     1       6.983   4.942  15.057  0.00  0.00    +0.000 C 
ATOM     14  O   UNL     1       6.341   6.046  15.686  0.00  0.00    +0.000 OA
ENDBRANCH   7  14
ENDBRANCH   1  11
BRANCH   3  15
ATOM     15  N   UNL     1       0.852  10.517  18.058  0.00  0.00    +0.000 N 
ATOM     16  H   UNL     1       0.706  10.431  17.062  0.00  0.00    +0.000 HD
BRANCH  15  17
ATOM     17  C   UNL     1      -0.039  11.428  18.742  0.00  0.00    +0.000 C 
BRANCH  17  18
ATOM     18  C   UNL     1      -1.437  11.065  18.300  0.00  0.00    +0.000 A 
ATOM     19  C   UNL     1      -1.658  10.143  17.267  0.00  0.00    +0.000 A 
ATOM     20  C   UNL     1      -2.952   9.903  16.808  0.00  0.00    +0.000 A 
ATOM     21  C   UNL     1      -4.037  10.582  17.367  0.00  0.00    +0.000 A 
ATOM     22  C   UNL     1      -3.838  11.510  18.394  0.00  0.00    +0.000 A 
ATOM     23  C   UNL     1      -4.986  12.269  18.988  0.00  0.00    +0.000 C 
ATOM     24  C   UNL     1      -2.537  11.743  18.854  0.00  0.00    +0.000 A 
ENDBRANCH  17  18
ENDBRANCH  15  17
ENDBRANCH   3  15
TORSDOF 5
ENDMDL
