MODEL 1
REMARK VINA RESULT:      -7.0      0.000      0.000
REMARK  Name = 
REMARK  4 active torsions:
REMARK  status: ('A' for Active; 'I' for Inactive)
REMARK    1  A    between atoms: C_1  and  C_2
REMARK    2  A    between atoms: C_2  and  C_3
REMARK    3  A    between atoms: C_2  and  C_4
REMARK    4  A    between atoms: C_2  and  C_5
REMARK                            x       y       z     vdW  Elec       q    Type
REMARK                         _______ _______ _______ _____ _____    ______ ____
ROOT
ATOM      1  C   UNL     1       3.512   3.893  18.304  0.00  0.00    +0.000 C 
ATOM      2  N   UNL     1       3.738   5.338  17.991  0.00  0.00    +0.000 N 
ATOM      3  C   UNL     1       5.101   5.701  17.894  0.00  0.00    +0.000 A 
ATOM      4  C   UNL     1       5.434   6.905  17.264  0.00  0.00    +0.000 A 
ATOM      5  C   UNL     1       6.753   7.363  17.253  0.00  0.00    +0.000 A 
ATOM      6  C   UNL     1       7.751   6.635  17.899  0.00  0.00    +0.000 A 
ATOM      7  C   UNL     1       7.428   5.455  18.570  0.00  0.00    +0.000 A 
ATOM      8  C   UNL     1       6.108   5.002  18.574  0.00  0.00    +0.000 A 
ATOM      9  N   UNL     1       5.778   3.872  19.325  0.00  0.00    +0.000 N 
ATOM     10  C   UNL     1       4.509   3.351  19.368  0.00  0.00    +0.000 C 
ATOM     11  O   UNL     1       4.278   2.427  20.146  0.00  0.00    +0.000 OA
ATOM     12  H   UNL     1       3.340   5.926  18.721  0.00  0.00    +0.000 HD
ATOM     13  H   UNL     1       6.462   3.438  19.929  0.00  0.00    +0.000 HD
ENDROOT
BRANCH   1  15
ATOM     14  C   UNL     1       1.140   4.354  17.518  0.00  0.00    +0.000 C 
ATOM     15  C   UNL     1       1.989   3.643  18.600  0.00  0.00    +0.000 C 
ATOM     16  C   UNL     1       1.568   4.177  19.982  0.00  0.00    +0.000 C 
ATOM     17  C   UNL     1       1.617   2.145  18.531  0.00  0.00    +0.000 C 
ENDBRANCH   1  15
TORSDOF 1
ENDMDL
MODEL 2
REMARK VINA RESULT:      -7.0      1.512      4.883
REMARK  Name = 
REMARK  4 active torsions:
REMARK  status: ('A' for Active; 'I' for Inactive)
REMARK    1  A    between atoms: C_1  and  C_2
REMARK    2  A    between atoms: C_2  and  C_3
REMARK    3  A    between atoms: C_2  and  C_4
REMARK    4  A    between atoms: C_2  and  C_5
REMARK                            x       y       z     vdW  Elec       q    Type
REMARK                         _______ _______ _______ _____ _____    ______ ____
ROOT
ATOM      1  C   UNL     1       5.180   5.444  17.700  0.00  0.00    +0.000 C 
ATOM      2  N   UNL     1       3.916   4.869  17.144  0.00  0.00    +0.000 N 
ATOM      3  C   UNL     1       3.204   4.052  18.052  0.00  0.00    +0.000 A 
ATOM      4  C   UNL     1       1.863   3.760  17.785  0.00  0.00    +0.000 A 
ATOM      5  C   UNL     1       1.156   2.861  18.586  0.00  0.00    +0.000 A 
ATOM      6  C   UNL     1       1.794   2.220  19.647  0.00  0.00    +0.000 A 
ATOM      7  C   UNL     1       3.143   2.467  19.900  0.00  0.00    +0.000 A 
ATOM      8  C   UNL     1       3.842   3.369  19.097  0.00  0.00    +0.000 A 
ATOM      9  N   UNL     1       5.213   3.539  19.297  0.00  0.00    +0.000 N 
ATOM     10  C   UNL     1       5.970   4.419  18.565  0.00  0.00    +0.000 C 
ATOM     11  O   UNL     1       7.189   4.422  18.724  0.00  0.00    +0.000 OA
ATOM     12  H   UNL     1       4.119   4.284  16.335  0.00  0.00    +0.000 HD
ATOM     13  H   UNL     1       5.714   2.955  19.953  0.00  0.00    +0.000 HD
ENDROOT
BRANCH   1  15
ATOM     14  C   UNL     1       5.011   6.893  15.620  0.00  0.00    +0.000 C 
ATOM     15  C   UNL     1       5.994   6.151  16.558  0.00  0.00    +0.000 C 
ATOM     16  C   UNL     1       6.810   5.149  15.718  0.00  0.00    +0.000 C 
ATOM     17  C   UNL     1       6.965   7.221  17.106  0.00  0.00    +0.000 C 
ENDBRANCH   1  15
TORSDOF 1
ENDMDL
MODEL 3
REMARK VINA RESULT:      -6.9      1.531      4.864
REMARK  Name = 
REMARK  4 active torsions:
REMARK  status: ('A' for Active; 'I' for Inactive)
REMARK    1  A    between atoms: C_1  and  C_2
REMARK    2  A    between atoms: C_2  and  C_3
REMARK    3  A    between atoms: C_2  and  C_4
REMARK    4  A    between atoms: C_2  and  C_5
REMARK                            x       y       z     vdW  Elec       q    Type
REMARK                         _______ _______ _______ _____ _____    ______ ____
ROOT
ATOM      1  C   UNL     1       5.175   5.421  17.677  0.00  0.00    +0.000 C 
ATOM      2  N   UNL     1       3.902   4.848  17.140  0.00  0.00    +0.000 N 
ATOM      3  C   UNL     1       3.192   4.050  18.066  0.00  0.00    +0.000 A 
ATOM      4  C   UNL     1       1.846   3.764  17.815  0.00  0.00    +0.000 A 
ATOM      5  C   UNL     1       1.139   2.882  18.635  0.00  0.00    +0.000 A 
ATOM      6  C   UNL     1       1.781   2.253  19.701  0.00  0.00    +0.000 A 
ATOM      7  C   UNL     1       3.134   2.494  19.939  0.00  0.00    +0.000 A 
ATOM      8  C   UNL     1       3.833   3.378  19.116  0.00  0.00    +0.000 A 
ATOM      9  N   UNL     1       5.207   3.542  19.303  0.00  0.00    +0.000 N 
ATOM     10  C   UNL     1       5.965   4.405  18.551  0.00  0.00    +0.000 C 
ATOM     11  O   UNL     1       7.185   4.400  18.701  0.00  0.00    +0.000 OA
ATOM     12  H   UNL     1       4.094   4.248  16.338  0.00  0.00    +0.000 HD
ATOM     13  H   UNL     1       5.709   2.964  19.964  0.00  0.00    +0.000 HD
ENDROOT
BRANCH   1  15
ATOM     14  C   UNL     1       6.971   7.132  17.125  0.00  0.00    +0.000 C 
ATOM     15  C   UNL     1       5.985   6.104  16.517  0.00  0.00    +0.000 C 
ATOM     16  C   UNL     1       5.068   6.837  15.519  0.00  0.00    +0.000 C 
ATOM     17  C   UNL     1       6.844   5.092  15.727  0.00  0.00    +0.000 C 
ENDBRANCH   1  15
TORSDOF 1
ENDMDL
MODEL 4
REMARK VINA RESULT:      -6.9      1.512      4.865
REMARK  Name = 
REMARK  4 active torsions:
REMARK  status: ('A' for Active; 'I' for Inactive)
REMARK    1  A    between atoms: C_1  and  C_2
REMARK    2  A    between atoms: C_2  and  C_3
REMARK    3  A    between atoms: C_2  and  C_4
REMARK    4  A    between atoms: C_2  and  C_5
REMARK                            x       y       z     vdW  Elec       q    Type
REMARK                         _______ _______ _______ _____ _____    ______ ____
ROOT
ATOM      1  C   UNL     1       5.176   5.445  17.715  0.00  0.00    +0.000 C 
ATOM      2  N   UNL     1       3.909   4.879  17.156  0.00  0.00    +0.000 N 
ATOM      3  C   UNL     1       3.201   4.049  18.055  0.00  0.00    +0.000 A 
ATOM      4  C   UNL     1       1.858   3.761  17.791  0.00  0.00    +0.000 A 
ATOM      5  C   UNL     1       1.155   2.850  18.581  0.00  0.00    +0.000 A 
ATOM      6  C   UNL     1       1.797   2.194  19.629  0.00  0.00    +0.000 A 
ATOM      7  C   UNL     1       3.148   2.436  19.879  0.00  0.00    +0.000 A 
ATOM      8  C   UNL     1       3.843   3.350  19.086  0.00  0.00    +0.000 A 
ATOM      9  N   UNL     1       5.216   3.516  19.283  0.00  0.00    +0.000 N 
ATOM     10  C   UNL     1       5.970   4.407  18.560  0.00  0.00    +0.000 C 
ATOM     11  O   UNL     1       7.190   4.406  18.713  0.00  0.00    +0.000 OA
ATOM     12  H   UNL     1       4.108   4.306  16.337  0.00  0.00    +0.000 HD
ATOM     13  H   UNL     1       5.719   2.922  19.927  0.00  0.00    +0.000 HD
ENDROOT
BRANCH   1  15
ATOM     14  C   UNL     1       6.781   5.112  15.773  0.00  0.00    +0.000 C 
ATOM     15  C   UNL     1       5.985   6.168  16.579  0.00  0.00    +0.000 C 
ATOM     16  C   UNL     1       6.977   7.205  17.140  0.00  0.00    +0.000 C 
ATOM     17  C   UNL     1       5.063   6.884  15.567  0.00  0.00    +0.000 C 
ENDBRANCH   1  15
TORSDOF 1
ENDMDL
MODEL 5
REMARK VINA RESULT:      -6.9      0.061      1.110
REMARK  Name = 
REMARK  4 active torsions:
REMARK  status: ('A' for Active; 'I' for Inactive)
REMARK    1  A    between atoms: C_1  and  C_2
REMARK    2  A    between atoms: C_2  and  C_3
REMARK    3  A    between atoms: C_2  and  C_4
REMARK    4  A    between atoms: C_2  and  C_5
REMARK                            x       y       z     vdW  Elec       q    Type
REMARK                         _______ _______ _______ _____ _____    ______ ____
ROOT
ATOM      1  C   UNL     1       3.557   3.890  18.258  0.00  0.00    +0.000 C 
ATOM      2  N   UNL     1       3.776   5.334  17.939  0.00  0.00    +0.000 N 
ATOM      3  C   UNL     1       5.137   5.712  17.872  0.00  0.00    +0.000 A 
ATOM      4  C   UNL     1       5.472   6.914  17.241  0.00  0.00    +0.000 A 
ATOM      5  C   UNL     1       6.786   7.386  17.259  0.00  0.00    +0.000 A 
ATOM      6  C   UNL     1       7.776   6.674  17.935  0.00  0.00    +0.000 A 
ATOM      7  C   UNL     1       7.449   5.495  18.606  0.00  0.00    +0.000 A 
ATOM      8  C   UNL     1       6.135   5.029  18.582  0.00  0.00    +0.000 A 
ATOM      9  N   UNL     1       5.798   3.901  19.334  0.00  0.00    +0.000 N 
ATOM     10  C   UNL     1       4.534   3.366  19.350  0.00  0.00    +0.000 C 
ATOM     11  O   UNL     1       4.294   2.446  20.130  0.00  0.00    +0.000 OA
ATOM     12  H   UNL     1       3.353   5.923  18.655  0.00  0.00    +0.000 HD
ATOM     13  H   UNL     1       6.472   3.479  19.958  0.00  0.00    +0.000 HD
ENDROOT
BRANCH   1  15
ATOM     14  C   UNL     1       1.644   4.209  19.899  0.00  0.00    +0.000 C 
ATOM     15  C   UNL     1       2.031   3.625  18.518  0.00  0.00    +0.000 C 
ATOM     16  C   UNL     1       1.690   2.122  18.510  0.00  0.00    +0.000 C 
ATOM     17  C   UNL     1       1.129   4.328  17.479  0.00  0.00    +0.000 C 
ENDBRANCH   1  15
TORSDOF 1
ENDMDL
MODEL 6
REMARK VINA RESULT:      -6.9      1.129      1.331
REMARK  Name = 
REMARK  4 active torsions:
REMARK  status: ('A' for Active; 'I' for Inactive)
REMARK    1  A    between atoms: C_1  and  C_2
REMARK    2  A    between atoms: C_2  and  C_3
REMARK    3  A    between atoms: C_2  and  C_4
REMARK    4  A    between atoms: C_2  and  C_5
REMARK                            x       y       z     vdW  Elec       q    Type
REMARK                         _______ _______ _______ _____ _____    ______ ____
ROOT
ATOM      1  C   UNL     1       3.172   3.737  19.231  0.00  0.00    +0.000 C 
ATOM      2  N   UNL     1       3.443   5.177  18.931  0.00  0.00    +0.000 N 
ATOM      3  C   UNL     1       4.643   5.404  18.221  0.00  0.00    +0.000 A 
ATOM      4  C   UNL     1       4.825   6.634  17.579  0.00  0.00    +0.000 A 
ATOM      5  C   UNL     1       6.041   6.948  16.970  0.00  0.00    +0.000 A 
ATOM      6  C   UNL     1       7.102   6.045  17.022  0.00  0.00    +0.000 A 
ATOM      7  C   UNL     1       6.952   4.833  17.695  0.00  0.00    +0.000 A 
ATOM      8  C   UNL     1       5.733   4.525  18.299  0.00  0.00    +0.000 A 
ATOM      9  N   UNL     1       5.621   3.353  19.051  0.00  0.00    +0.000 N 
ATOM     10  C   UNL     1       4.454   2.967  19.660  0.00  0.00    +0.000 C 
ATOM     11  O   UNL     1       4.473   1.984  20.400  0.00  0.00    +0.000 OA
ATOM     12  H   UNL     1       3.520   5.710  19.796  0.00  0.00    +0.000 HD
ATOM     13  H   UNL     1       6.433   2.779  19.231  0.00  0.00    +0.000 HD
ENDROOT
BRANCH   1  15
ATOM     14  C   UNL     1       1.383   5.029  20.490  0.00  0.00    +0.000 C 
ATOM     15  C   UNL     1       1.940   3.614  20.198  0.00  0.00    +0.000 C 
ATOM     16  C   UNL     1       2.315   2.949  21.537  0.00  0.00    +0.000 C 
ATOM     17  C   UNL     1       0.780   2.810  19.570  0.00  0.00    +0.000 C 
ENDBRANCH   1  15
TORSDOF 1
ENDMDL
MODEL 7
REMARK VINA RESULT:      -6.9      1.729      5.199
REMARK  Name = 
REMARK  4 active torsions:
REMARK  status: ('A' for Active; 'I' for Inactive)
REMARK    1  A    between atoms: C_1  and  C_2
REMARK    2  A    between atoms: C_2  and  C_3
REMARK    3  A    between atoms: C_2  and  C_4
REMARK    4  A    between atoms: C_2  and  C_5
REMARK                            x       y       z     vdW  Elec       q    Type
REMARK                         _______ _______ _______ _____ _____    ______ ____
ROOT
ATOM      1  C   UNL     1       5.312   4.340  18.228  0.00  0.00    +0.000 C 
ATOM      2  N   UNL     1       4.466   4.846  19.353  0.00  0.00    +0.000 N 
ATOM      3  C   UNL     1       3.228   4.178  19.491  0.00  0.00    +0.000 A 
ATOM      4  C   UNL     1       2.524   4.305  20.693  0.00  0.00    +0.000 A 
ATOM      5  C   UNL     1       1.244   3.765  20.831  0.00  0.00    +0.000 A 
ATOM      6  C   UNL     1       0.640   3.115  19.756  0.00  0.00    +0.000 A 
ATOM      7  C   UNL     1       1.311   3.018  18.536  0.00  0.00    +0.000 A 
ATOM      8  C   UNL     1       2.591   3.558  18.407  0.00  0.00    +0.000 A 
ATOM      9  N   UNL     1       3.216   3.539  17.158  0.00  0.00    +0.000 N 
ATOM     10  C   UNL     1       4.480   4.031  16.950  0.00  0.00    +0.000 C 
ATOM     11  O   UNL     1       4.908   4.084  15.798  0.00  0.00    +0.000 OA
ATOM     12  H   UNL     1       4.242   5.830  19.213  0.00  0.00    +0.000 HD
ATOM     13  H   UNL     1       2.717   3.221  16.338  0.00  0.00    +0.000 HD
ENDROOT
BRANCH   1  15
ATOM     14  C   UNL     1       7.169   5.607  19.411  0.00  0.00    +0.000 C 
ATOM     15  C   UNL     1       6.554   5.280  18.028  0.00  0.00    +0.000 C 
ATOM     16  C   UNL     1       6.178   6.604  17.334  0.00  0.00    +0.000 C 
ATOM     17  C   UNL     1       7.673   4.606  17.202  0.00  0.00    +0.000 C 
ENDBRANCH   1  15
TORSDOF 1
ENDMDL
MODEL 8
REMARK VINA RESULT:      -6.9      1.114      1.370
REMARK  Name = 
REMARK  4 active torsions:
REMARK  status: ('A' for Active; 'I' for Inactive)
REMARK    1  A    between atoms: C_1  and  C_2
REMARK    2  A    between atoms: C_2  and  C_3
REMARK    3  A    between atoms: C_2  and  C_4
REMARK    4  A    between atoms: C_2  and  C_5
REMARK                            x       y       z     vdW  Elec       q    Type
REMARK                         _______ _______ _______ _____ _____    ______ ____
ROOT
ATOM      1  C   UNL     1       3.167   3.758  19.228  0.00  0.00    +0.000 C 
ATOM      2  N   UNL     1       3.448   5.196  18.928  0.00  0.00    +0.000 N 
ATOM      3  C   UNL     1       4.652   5.414  18.221  0.00  0.00    +0.000 A 
ATOM      4  C   UNL     1       4.844   6.642  17.579  0.00  0.00    +0.000 A 
ATOM      5  C   UNL     1       6.064   6.948  16.973  0.00  0.00    +0.000 A 
ATOM      6  C   UNL     1       7.119   6.038  17.028  0.00  0.00    +0.000 A 
ATOM      7  C   UNL     1       6.959   4.827  17.702  0.00  0.00    +0.000 A 
ATOM      8  C   UNL     1       5.736   4.528  18.303  0.00  0.00    +0.000 A 
ATOM      9  N   UNL     1       5.614   3.357  19.055  0.00  0.00    +0.000 N 
ATOM     10  C   UNL     1       4.443   2.979  19.662  0.00  0.00    +0.000 C 
ATOM     11  O   UNL     1       4.453   1.998  20.402  0.00  0.00    +0.000 OA
ATOM     12  H   UNL     1       3.527   5.729  19.793  0.00  0.00    +0.000 HD
ATOM     13  H   UNL     1       6.422   2.778  19.238  0.00  0.00    +0.000 HD
ENDROOT
BRANCH   1  15
ATOM     14  C   UNL     1       0.849   2.761  19.525  0.00  0.00    +0.000 C 
ATOM     15  C   UNL     1       1.932   3.644  20.192  0.00  0.00    +0.000 C 
ATOM     16  C   UNL     1       1.314   5.019  20.512  0.00  0.00    +0.000 C 
ATOM     17  C   UNL     1       2.293   2.957  21.528  0.00  0.00    +0.000 C 
ENDBRANCH   1  15
TORSDOF 1
ENDMDL
MODEL 9
REMARK VINA RESULT:      -6.9      0.124      1.112
REMARK  Name = 
REMARK  4 active torsions:
REMARK  status: ('A' for Active; 'I' for Inactive)
REMARK    1  A    between atoms: C_1  and  C_2
REMARK    2  A    between atoms: C_2  and  C_3
REMARK    3  A    between atoms: C_2  and  C_4
REMARK    4  A    between atoms: C_2  and  C_5
REMARK                            x       y       z     vdW  Elec       q    Type
REMARK                         _______ _______ _______ _____ _____    ______ ____
ROOT
ATOM      1  C   UNL     1       3.613   3.926  18.250  0.00  0.00    +0.000 C 
ATOM      2  N   UNL     1       3.826   5.374  17.943  0.00  0.00    +0.000 N 
ATOM      3  C   UNL     1       5.185   5.759  17.884  0.00  0.00    +0.000 A 
ATOM      4  C   UNL     1       5.516   6.967  17.263  0.00  0.00    +0.000 A 
ATOM      5  C   UNL     1       6.828   7.446  17.288  0.00  0.00    +0.000 A 
ATOM      6  C   UNL     1       7.819   6.733  17.961  0.00  0.00    +0.000 A 
ATOM      7  C   UNL     1       7.496   5.548  18.623  0.00  0.00    +0.000 A 
ATOM      8  C   UNL     1       6.184   5.075  18.591  0.00  0.00    +0.000 A 
ATOM      9  N   UNL     1       5.850   3.940  19.333  0.00  0.00    +0.000 N 
ATOM     10  C   UNL     1       4.589   3.399  19.341  0.00  0.00    +0.000 C 
ATOM     11  O   UNL     1       4.351   2.471  20.112  0.00  0.00    +0.000 OA
ATOM     12  H   UNL     1       3.398   5.956  18.662  0.00  0.00    +0.000 HD
ATOM     13  H   UNL     1       6.525   3.516  19.955  0.00  0.00    +0.000 HD
ENDROOT
BRANCH   1  15
ATOM     14  C   UNL     1       1.824   2.129  18.413  0.00  0.00    +0.000 C 
ATOM     15  C   UNL     1       2.087   3.652  18.504  0.00  0.00    +0.000 C 
ATOM     16  C   UNL     1       1.188   4.365  17.475  0.00  0.00    +0.000 C 
ATOM     17  C   UNL     1       1.640   4.088  19.917  0.00  0.00    +0.000 C 
ENDBRANCH   1  15
TORSDOF 1
ENDMDL
