MODEL 1
REMARK VINA RESULT:      -8.0      0.000      0.000
REMARK  Name = 
REMARK  6 active torsions:
REMARK  status: ('A' for Active; 'I' for Inactive)
REMARK    1  A    between atoms: O_1  and  C_2
REMARK    2  A    between atoms: C_2  and  C_3
REMARK    3  A    between atoms: C_3  and  N_4
REMARK    4  A    between atoms: C_12  and  N_13
REMARK    5  A    between atoms: N_13  and  C_14
REMARK    6  A    between atoms: C_17  and  C_18
REMARK                            x       y       z     vdW  Elec       q    Type
REMARK                         _______ _______ _______ _____ _____    ______ ____
ROOT
ATOM      1  N   UNL     1      -4.093  10.707  17.156  0.00  0.00    +0.000 NA
ATOM      2  C   UNL     1      -3.279   9.492  17.417  0.00  0.00    +0.000 C 
ATOM      3  C   UNL     1      -1.782   9.755  17.706  0.00  0.00    +0.000 C 
ATOM      4  N   UNL     1      -1.662  10.729  18.783  0.00  0.00    +0.000 N 
ATOM      5  C   UNL     1      -0.877  10.487  19.878  0.00  0.00    +0.000 A 
ATOM      6  N   UNL     1      -0.865  11.398  20.865  0.00  0.00    +0.000 NA
ATOM      7  C   UNL     1      -0.079  11.157  21.925  0.00  0.00    +0.000 A 
ATOM      8  C   UNL     1       0.725  10.057  22.028  0.00  0.00    +0.000 A 
ATOM      9  C   UNL     1       0.655   9.157  20.989  0.00  0.00    +0.000 A 
ATOM     10  N   UNL     1      -0.155   9.361  19.930  0.00  0.00    +0.000 NA
ATOM     11  C   UNL     1      -2.441  11.960  18.665  0.00  0.00    +0.000 C 
ATOM     12  C   UNL     1      -3.912  11.625  18.313  0.00  0.00    +0.000 C 
ENDROOT
BRANCH   9  13
ATOM     13  N   UNL     1       1.464   8.002  21.072  0.00  0.00    +0.000 N 
ATOM     14  H   UNL     1       1.959   7.966  21.954  0.00  0.00    +0.000 HD
BRANCH  13  15
ATOM     15  C   UNL     1       2.110   7.328  20.022  0.00  0.00    +0.000 A 
ATOM     16  C   UNL     1       2.411   7.998  18.835  0.00  0.00    +0.000 A 
ATOM     17  C   UNL     1       3.144   7.367  17.819  0.00  0.00    +0.000 A 
ATOM     18  C   UNL     1       3.635   6.057  17.967  0.00  0.00    +0.000 A 
ATOM     19  C   UNL     1       3.298   5.388  19.156  0.00  0.00    +0.000 A 
ATOM     20  C   UNL     1       2.533   6.005  20.154  0.00  0.00    +0.000 A 
BRANCH  18  21
ATOM     21  C   UNL     1       4.475   5.424  16.921  0.00  0.00    +0.000 A 
ATOM     22  C   UNL     1       4.650   4.028  16.866  0.00  0.00    +0.000 A 
ATOM     23  C   UNL     1       5.466   3.426  15.902  0.00  0.00    +0.000 A 
ATOM     24  C   UNL     1       6.113   4.208  14.952  0.00  0.00    +0.000 A 
ATOM     25  C   UNL     1       5.939   5.587  14.963  0.00  0.00    +0.000 A 
ATOM     26  C   UNL     1       5.134   6.187  15.939  0.00  0.00    +0.000 A 
ENDBRANCH  18  21
ENDBRANCH  13  15
ENDBRANCH   9  13
BRANCH   1  27
ATOM     27  C   UNL     1      -3.723  11.389  15.900  0.00  0.00    +0.000 C 
BRANCH  27  28
ATOM     28  C   UNL     1      -3.255  10.446  14.784  0.00  0.00    +0.000 C 
BRANCH  28  29
ATOM     29  O   UNL     1      -4.381   9.983  14.044  0.00  0.00    +0.000 OA
ATOM     30  H   UNL     1      -4.469   9.034  14.236  0.00  0.00    +0.000 HD
ENDBRANCH  28  29
ENDBRANCH  27  28
ENDBRANCH   1  27
TORSDOF 6
ENDMDL
MODEL 2
REMARK VINA RESULT:      -7.8      3.363      9.604
REMARK  Name = 
REMARK  6 active torsions:
REMARK  status: ('A' for Active; 'I' for Inactive)
REMARK    1  A    between atoms: O_1  and  C_2
REMARK    2  A    between atoms: C_2  and  C_3
REMARK    3  A    between atoms: C_3  and  N_4
REMARK    4  A    between atoms: C_12  and  N_13
REMARK    5  A    between atoms: N_13  and  C_14
REMARK    6  A    between atoms: C_17  and  C_18
REMARK                            x       y       z     vdW  Elec       q    Type
REMARK                         _______ _______ _______ _____ _____    ______ ____
ROOT
ATOM      1  N   UNL     1       5.823   5.469  17.953  0.00  0.00    +0.000 NA
ATOM      2  C   UNL     1       5.352   6.810  17.522  0.00  0.00    +0.000 C 
ATOM      3  C   UNL     1       3.816   6.978  17.459  0.00  0.00    +0.000 C 
ATOM      4  N   UNL     1       3.234   6.586  18.737  0.00  0.00    +0.000 N 
ATOM      5  C   UNL     1       2.368   7.407  19.406  0.00  0.00    +0.000 A 
ATOM      6  N   UNL     1       1.923   7.013  20.611  0.00  0.00    +0.000 NA
ATOM      7  C   UNL     1       1.060   7.818  21.250  0.00  0.00    +0.000 A 
ATOM      8  C   UNL     1       0.596   8.989  20.721  0.00  0.00    +0.000 A 
ATOM      9  C   UNL     1       1.102   9.340  19.490  0.00  0.00    +0.000 A 
ATOM     10  N   UNL     1       1.996   8.564  18.846  0.00  0.00    +0.000 NA
ATOM     11  C   UNL     1       3.642   5.297  19.291  0.00  0.00    +0.000 C 
ATOM     12  C   UNL     1       5.185   5.172  19.265  0.00  0.00    +0.000 C 
ENDROOT
BRANCH   9  13
ATOM     13  N   UNL     1       0.652  10.554  18.923  0.00  0.00    +0.000 N 
ATOM     14  H   UNL     1       1.340  11.287  19.037  0.00  0.00    +0.000 HD
BRANCH  13  15
ATOM     15  C   UNL     1      -0.671  11.017  18.824  0.00  0.00    +0.000 A 
ATOM     16  C   UNL     1      -1.570  10.401  17.951  0.00  0.00    +0.000 A 
ATOM     17  C   UNL     1      -2.917  10.788  17.916  0.00  0.00    +0.000 A 
ATOM     18  C   UNL     1      -3.424  11.779  18.775  0.00  0.00    +0.000 A 
ATOM     19  C   UNL     1      -2.500  12.409  19.626  0.00  0.00    +0.000 A 
ATOM     20  C   UNL     1      -1.146  12.049  19.634  0.00  0.00    +0.000 A 
BRANCH  18  21
ATOM     21  C   UNL     1      -4.866  12.129  18.786  0.00  0.00    +0.000 A 
ATOM     22  C   UNL     1      -5.734  11.693  17.766  0.00  0.00    +0.000 A 
ATOM     23  C   UNL     1      -7.089  12.046  17.753  0.00  0.00    +0.000 A 
ATOM     24  C   UNL     1      -7.614  12.827  18.775  0.00  0.00    +0.000 A 
ATOM     25  C   UNL     1      -6.788  13.250  19.811  0.00  0.00    +0.000 A 
ATOM     26  C   UNL     1      -5.431  12.908  19.812  0.00  0.00    +0.000 A 
ENDBRANCH  18  21
ENDBRANCH  13  15
ENDBRANCH   9  13
BRANCH   1  27
ATOM     27  C   UNL     1       5.505   4.406  16.979  0.00  0.00    +0.000 C 
BRANCH  27  28
ATOM     28  C   UNL     1       6.613   4.143  15.951  0.00  0.00    +0.000 C 
BRANCH  28  29
ATOM     29  O   UNL     1       7.885   4.386  16.544  0.00  0.00    +0.000 OA
ATOM     30  H   UNL     1       7.715   4.821  17.397  0.00  0.00    +0.000 HD
ENDBRANCH  28  29
ENDBRANCH  27  28
ENDBRANCH   1  27
TORSDOF 6
ENDMDL
MODEL 3
REMARK VINA RESULT:      -7.6      4.525      5.654
REMARK  Name = 
REMARK  6 active torsions:
REMARK  status: ('A' for Active; 'I' for Inactive)
REMARK    1  A    between atoms: O_1  and  C_2
REMARK    2  A    between atoms: C_2  and  C_3
REMARK    3  A    between atoms: C_3  and  N_4
REMARK    4  A    between atoms: C_12  and  N_13
REMARK    5  A    between atoms: N_13  and  C_14
REMARK    6  A    between atoms: C_17  and  C_18
REMARK                            x       y       z     vdW  Elec       q    Type
REMARK                         _______ _______ _______ _____ _____    ______ ____
ROOT
ATOM      1  N   UNL     1       3.860  16.236  18.707  0.00  0.00    +0.000 NA
ATOM      2  C   UNL     1       4.093  14.802  19.016  0.00  0.00    +0.000 C 
ATOM      3  C   UNL     1       3.125  14.188  20.054  0.00  0.00    +0.000 C 
ATOM      4  N   UNL     1       1.750  14.435  19.638  0.00  0.00    +0.000 N 
ATOM      5  C   UNL     1       0.836  13.419  19.560  0.00  0.00    +0.000 A 
ATOM      6  N   UNL     1      -0.394  13.705  19.103  0.00  0.00    +0.000 NA
ATOM      7  C   UNL     1      -1.286  12.705  19.047  0.00  0.00    +0.000 A 
ATOM      8  C   UNL     1      -1.011  11.432  19.460  0.00  0.00    +0.000 A 
ATOM      9  C   UNL     1       0.271  11.203  19.904  0.00  0.00    +0.000 A 
ATOM     10  N   UNL     1       1.194  12.186  19.935  0.00  0.00    +0.000 NA
ATOM     11  C   UNL     1       1.396  15.805  19.272  0.00  0.00    +0.000 C 
ATOM     12  C   UNL     1       2.440  16.377  18.282  0.00  0.00    +0.000 C 
ENDROOT
BRANCH   9  13
ATOM     13  N   UNL     1       0.591   9.893  20.324  0.00  0.00    +0.000 N 
ATOM     14  H   UNL     1       0.721   9.853  21.328  0.00  0.00    +0.000 HD
BRANCH  13  15
ATOM     15  C   UNL     1       1.304   8.912  19.614  0.00  0.00    +0.000 A 
ATOM     16  C   UNL     1       1.744   9.165  18.313  0.00  0.00    +0.000 A 
ATOM     17  C   UNL     1       2.541   8.235  17.631  0.00  0.00    +0.000 A 
ATOM     18  C   UNL     1       2.958   7.035  18.235  0.00  0.00    +0.000 A 
ATOM     19  C   UNL     1       2.482   6.783  19.532  0.00  0.00    +0.000 A 
ATOM     20  C   UNL     1       1.654   7.695  20.200  0.00  0.00    +0.000 A 
BRANCH  18  21
ATOM     21  C   UNL     1       3.865   6.092  17.535  0.00  0.00    +0.000 A 
ATOM     22  C   UNL     1       3.873   4.718  17.842  0.00  0.00    +0.000 A 
ATOM     23  C   UNL     1       4.747   3.827  17.209  0.00  0.00    +0.000 A 
ATOM     24  C   UNL     1       5.623   4.288  16.233  0.00  0.00    +0.000 A 
ATOM     25  C   UNL     1       5.620   5.635  15.888  0.00  0.00    +0.000 A 
ATOM     26  C   UNL     1       4.756   6.525  16.535  0.00  0.00    +0.000 A 
ENDBRANCH  18  21
ENDBRANCH  13  15
ENDBRANCH   9  13
BRANCH   1  27
ATOM     27  C   UNL     1       4.141  17.125  19.852  0.00  0.00    +0.000 C 
BRANCH  27  28
ATOM     28  C   UNL     1       5.602  17.581  19.951  0.00  0.00    +0.000 C 
BRANCH  28  29
ATOM     29  O   UNL     1       6.161  17.686  18.645  0.00  0.00    +0.000 OA
ATOM     30  H   UNL     1       6.817  18.403  18.681  0.00  0.00    +0.000 HD
ENDBRANCH  28  29
ENDBRANCH  27  28
ENDBRANCH   1  27
TORSDOF 6
ENDMDL
MODEL 4
REMARK VINA RESULT:      -7.6      2.630      3.301
REMARK  Name = 
REMARK  6 active torsions:
REMARK  status: ('A' for Active; 'I' for Inactive)
REMARK    1  A    between atoms: O_1  and  C_2
REMARK    2  A    between atoms: C_2  and  C_3
REMARK    3  A    between atoms: C_3  and  N_4
REMARK    4  A    between atoms: C_12  and  N_13
REMARK    5  A    between atoms: N_13  and  C_14
REMARK    6  A    between atoms: C_17  and  C_18
REMARK                            x       y       z     vdW  Elec       q    Type
REMARK                         _______ _______ _______ _____ _____    ______ ____
ROOT
ATOM      1  N   UNL     1      -6.315  11.292  18.522  0.00  0.00    +0.000 NA
ATOM      2  C   UNL     1      -5.031  10.719  18.044  0.00  0.00    +0.000 C 
ATOM      3  C   UNL     1      -3.819  11.677  18.108  0.00  0.00    +0.000 C 
ATOM      4  N   UNL     1      -3.701  12.218  19.456  0.00  0.00    +0.000 N 
ATOM      5  C   UNL     1      -2.519  12.167  20.143  0.00  0.00    +0.000 A 
ATOM      6  N   UNL     1      -2.497  12.622  21.406  0.00  0.00    +0.000 NA
ATOM      7  C   UNL     1      -1.329  12.582  22.064  0.00  0.00    +0.000 A 
ATOM      8  C   UNL     1      -0.167  12.135  21.500  0.00  0.00    +0.000 A 
ATOM      9  C   UNL     1      -0.261  11.671  20.208  0.00  0.00    +0.000 A 
ATOM     10  N   UNL     1      -1.432  11.669  19.540  0.00  0.00    +0.000 NA
ATOM     11  C   UNL     1      -4.905  12.786  20.059  0.00  0.00    +0.000 C 
ATOM     12  C   UNL     1      -6.091  11.801  19.903  0.00  0.00    +0.000 C 
ENDROOT
BRANCH   9  13
ATOM     13  N   UNL     1       0.921  11.188  19.602  0.00  0.00    +0.000 N 
ATOM     14  H   UNL     1       1.262  11.835  18.902  0.00  0.00    +0.000 HD
BRANCH  13  15
ATOM     15  C   UNL     1       1.286   9.851  19.374  0.00  0.00    +0.000 A 
ATOM     16  C   UNL     1       1.709   9.441  18.108  0.00  0.00    +0.000 A 
ATOM     17  C   UNL     1       2.171   8.135  17.892  0.00  0.00    +0.000 A 
ATOM     18  C   UNL     1       2.260   7.201  18.939  0.00  0.00    +0.000 A 
ATOM     19  C   UNL     1       1.802   7.619  20.200  0.00  0.00    +0.000 A 
ATOM     20  C   UNL     1       1.305   8.913  20.407  0.00  0.00    +0.000 A 
BRANCH  18  21
ATOM     21  C   UNL     1       2.822   5.845  18.720  0.00  0.00    +0.000 A 
ATOM     22  C   UNL     1       2.170   4.905  17.898  0.00  0.00    +0.000 A 
ATOM     23  C   UNL     1       2.677   3.614  17.711  0.00  0.00    +0.000 A 
ATOM     24  C   UNL     1       3.865   3.238  18.327  0.00  0.00    +0.000 A 
ATOM     25  C   UNL     1       4.546   4.152  19.123  0.00  0.00    +0.000 A 
ATOM     26  C   UNL     1       4.028   5.437  19.320  0.00  0.00    +0.000 A 
ENDBRANCH  18  21
ENDBRANCH  13  15
ENDBRANCH   9  13
BRANCH   1  27
ATOM     27  C   UNL     1      -6.821  12.375  17.655  0.00  0.00    +0.000 C 
BRANCH  27  28
ATOM     28  C   UNL     1      -7.915  13.237  18.296  0.00  0.00    +0.000 C 
BRANCH  28  29
ATOM     29  O   UNL     1      -7.606  14.616  18.116  0.00  0.00    +0.000 OA
ATOM     30  H   UNL     1      -8.298  15.118  18.580  0.00  0.00    +0.000 HD
ENDBRANCH  28  29
ENDBRANCH  27  28
ENDBRANCH   1  27
TORSDOF 6
ENDMDL
MODEL 5
REMARK VINA RESULT:      -7.6      3.252      9.575
REMARK  Name = 
REMARK  6 active torsions:
REMARK  status: ('A' for Active; 'I' for Inactive)
REMARK    1  A    between atoms: O_1  and  C_2
REMARK    2  A    between atoms: C_2  and  C_3
REMARK    3  A    between atoms: C_3  and  N_4
REMARK    4  A    between atoms: C_12  and  N_13
REMARK    5  A    between atoms: N_13  and  C_14
REMARK    6  A    between atoms: C_17  and  C_18
REMARK                            x       y       z     vdW  Elec       q    Type
REMARK                         _______ _______ _______ _____ _____    ______ ____
ROOT
ATOM      1  N   UNL     1       6.027   5.635  17.643  0.00  0.00    +0.000 NA
ATOM      2  C   UNL     1       5.385   6.852  17.085  0.00  0.00    +0.000 C 
ATOM      3  C   UNL     1       3.839   6.862  17.139  0.00  0.00    +0.000 C 
ATOM      4  N   UNL     1       3.401   6.596  18.503  0.00  0.00    +0.000 N 
ATOM      5  C   UNL     1       2.504   7.414  19.136  0.00  0.00    +0.000 A 
ATOM      6  N   UNL     1       2.197   7.149  20.416  0.00  0.00    +0.000 NA
ATOM      7  C   UNL     1       1.304   7.947  21.020  0.00  0.00    +0.000 A 
ATOM      8  C   UNL     1       0.678   8.985  20.388  0.00  0.00    +0.000 A 
ATOM      9  C   UNL     1       1.049   9.210  19.082  0.00  0.00    +0.000 A 
ATOM     10  N   UNL     1       1.970   8.442  18.466  0.00  0.00    +0.000 NA
ATOM     11  C   UNL     1       3.985   5.441  19.181  0.00  0.00    +0.000 C 
ATOM     12  C   UNL     1       5.527   5.462  19.034  0.00  0.00    +0.000 C 
ENDROOT
BRANCH   9  13
ATOM     13  N   UNL     1       0.430  10.285  18.405  0.00  0.00    +0.000 N 
ATOM     14  H   UNL     1       1.075  11.054  18.275  0.00  0.00    +0.000 HD
BRANCH  13  15
ATOM     15  C   UNL     1      -0.921  10.669  18.458  0.00  0.00    +0.000 A 
ATOM     16  C   UNL     1      -1.342  11.636  19.372  0.00  0.00    +0.000 A 
ATOM     17  C   UNL     1      -2.665  12.101  19.368  0.00  0.00    +0.000 A 
ATOM     18  C   UNL     1      -3.605  11.645  18.427  0.00  0.00    +0.000 A 
ATOM     19  C   UNL     1      -3.173  10.651  17.533  0.00  0.00    +0.000 A 
ATOM     20  C   UNL     1      -1.862  10.158  17.563  0.00  0.00    +0.000 A 
BRANCH  18  21
ATOM     21  C   UNL     1      -4.982  12.198  18.379  0.00  0.00    +0.000 A 
ATOM     22  C   UNL     1      -5.585  12.765  19.518  0.00  0.00    +0.000 A 
ATOM     23  C   UNL     1      -6.894  13.260  19.488  0.00  0.00    +0.000 A 
ATOM     24  C   UNL     1      -7.625  13.220  18.308  0.00  0.00    +0.000 A 
ATOM     25  C   UNL     1      -7.048  12.691  17.158  0.00  0.00    +0.000 A 
ATOM     26  C   UNL     1      -5.745  12.182  17.196  0.00  0.00    +0.000 A 
ENDBRANCH  18  21
ENDBRANCH  13  15
ENDBRANCH   9  13
BRANCH   1  27
ATOM     27  C   UNL     1       5.753   4.423  16.846  0.00  0.00    +0.000 C 
BRANCH  27  28
ATOM     28  C   UNL     1       5.870   4.624  15.330  0.00  0.00    +0.000 C 
BRANCH  28  29
ATOM     29  O   UNL     1       6.274   3.405  14.714  0.00  0.00    +0.000 OA
ATOM     30  H   UNL     1       7.246   3.405  14.710  0.00  0.00    +0.000 HD
ENDBRANCH  28  29
ENDBRANCH  27  28
ENDBRANCH   1  27
TORSDOF 6
ENDMDL
MODEL 6
REMARK VINA RESULT:      -7.5      3.999      5.279
REMARK  Name = 
REMARK  6 active torsions:
REMARK  status: ('A' for Active; 'I' for Inactive)
REMARK    1  A    between atoms: O_1  and  C_2
REMARK    2  A    between atoms: C_2  and  C_3
REMARK    3  A    between atoms: C_3  and  N_4
REMARK    4  A    between atoms: C_12  and  N_13
REMARK    5  A    between atoms: N_13  and  C_14
REMARK    6  A    between atoms: C_17  and  C_18
REMARK                            x       y       z     vdW  Elec       q    Type
REMARK                         _______ _______ _______ _____ _____    ______ ____
ROOT
ATOM      1  N   UNL     1      -1.915  12.465  23.611  0.00  0.00    +0.000 NA
ATOM      2  C   UNL     1      -1.260  11.320  22.929  0.00  0.00    +0.000 C 
ATOM      3  C   UNL     1      -1.260  11.389  21.384  0.00  0.00    +0.000 C 
ATOM      4  N   UNL     1      -0.700  12.665  20.957  0.00  0.00    +0.000 N 
ATOM      5  C   UNL     1       0.310  12.727  20.036  0.00  0.00    +0.000 A 
ATOM      6  N   UNL     1       0.826  13.931  19.739  0.00  0.00    +0.000 NA
ATOM      7  C   UNL     1       1.804  13.981  18.822  0.00  0.00    +0.000 A 
ATOM      8  C   UNL     1       2.269  12.879  18.162  0.00  0.00    +0.000 A 
ATOM      9  C   UNL     1       1.708  11.675  18.523  0.00  0.00    +0.000 A 
ATOM     10  N   UNL     1       0.748  11.597  19.467  0.00  0.00    +0.000 NA
ATOM     11  C   UNL     1      -1.236  13.874  21.579  0.00  0.00    +0.000 C 
ATOM     12  C   UNL     1      -1.265  13.710  23.119  0.00  0.00    +0.000 C 
ENDROOT
BRANCH   9  13
ATOM     13  N   UNL     1       2.178  10.515  17.868  0.00  0.00    +0.000 N 
ATOM     14  H   UNL     1       2.091  10.602  16.863  0.00  0.00    +0.000 HD
BRANCH  13  15
ATOM     15  C   UNL     1       2.140   9.190  18.335  0.00  0.00    +0.000 A 
ATOM     16  C   UNL     1       2.674   8.156  17.564  0.00  0.00    +0.000 A 
ATOM     17  C   UNL     1       2.733   6.846  18.061  0.00  0.00    +0.000 A 
ATOM     18  C   UNL     1       2.295   6.527  19.359  0.00  0.00    +0.000 A 
ATOM     19  C   UNL     1       1.734   7.574  20.110  0.00  0.00    +0.000 A 
ATOM     20  C   UNL     1       1.640   8.875  19.599  0.00  0.00    +0.000 A 
BRANCH  18  21
ATOM     21  C   UNL     1       2.432   5.155  19.906  0.00  0.00    +0.000 A 
ATOM     22  C   UNL     1       3.588   4.384  19.674  0.00  0.00    +0.000 A 
ATOM     23  C   UNL     1       3.711   3.078  20.159  0.00  0.00    +0.000 A 
ATOM     24  C   UNL     1       2.686   2.516  20.911  0.00  0.00    +0.000 A 
ATOM     25  C   UNL     1       1.544   3.261  21.182  0.00  0.00    +0.000 A 
ATOM     26  C   UNL     1       1.418   4.562  20.680  0.00  0.00    +0.000 A 
ENDBRANCH  18  21
ENDBRANCH  13  15
ENDBRANCH   9  13
BRANCH   1  27
ATOM     27  C   UNL     1      -3.371  12.520  23.375  0.00  0.00    +0.000 C 
BRANCH  27  28
ATOM     28  C   UNL     1      -4.171  13.158  24.517  0.00  0.00    +0.000 C 
BRANCH  28  29
ATOM     29  O   UNL     1      -4.710  12.138  25.353  0.00  0.00    +0.000 OA
ATOM     30  H   UNL     1      -4.140  11.359  25.241  0.00  0.00    +0.000 HD
ENDBRANCH  28  29
ENDBRANCH  27  28
ENDBRANCH   1  27
TORSDOF 6
ENDMDL
MODEL 7
REMARK VINA RESULT:      -7.5      2.368      3.136
REMARK  Name = 
REMARK  6 active torsions:
REMARK  status: ('A' for Active; 'I' for Inactive)
REMARK    1  A    between atoms: O_1  and  C_2
REMARK    2  A    between atoms: C_2  and  C_3
REMARK    3  A    between atoms: C_3  and  N_4
REMARK    4  A    between atoms: C_12  and  N_13
REMARK    5  A    between atoms: N_13  and  C_14
REMARK    6  A    between atoms: C_17  and  C_18
REMARK                            x       y       z     vdW  Elec       q    Type
REMARK                         _______ _______ _______ _____ _____    ______ ____
ROOT
ATOM      1  N   UNL     1      -5.600  11.424  17.893  0.00  0.00    +0.000 NA
ATOM      2  C   UNL     1      -4.373  10.733  17.420  0.00  0.00    +0.000 C 
ATOM      3  C   UNL     1      -3.056  11.514  17.636  0.00  0.00    +0.000 C 
ATOM      4  N   UNL     1      -2.950  11.905  19.036  0.00  0.00    +0.000 N 
ATOM      5  C   UNL     1      -1.826  11.634  19.768  0.00  0.00    +0.000 A 
ATOM      6  N   UNL     1      -1.823  11.962  21.071  0.00  0.00    +0.000 NA
ATOM      7  C   UNL     1      -0.710  11.707  21.775  0.00  0.00    +0.000 A 
ATOM      8  C   UNL     1       0.418  11.166  21.223  0.00  0.00    +0.000 A 
ATOM      9  C   UNL     1       0.342  10.841  19.888  0.00  0.00    +0.000 A 
ATOM     10  N   UNL     1      -0.778  11.056  19.170  0.00  0.00    +0.000 NA
ATOM     11  C   UNL     1      -4.106  12.567  19.635  0.00  0.00    +0.000 C 
ATOM     12  C   UNL     1      -5.396  11.767  19.327  0.00  0.00    +0.000 C 
ENDROOT
BRANCH   9  13
ATOM     13  N   UNL     1       1.487  10.266  19.292  0.00  0.00    +0.000 N 
ATOM     14  H   UNL     1       1.807  10.820  18.508  0.00  0.00    +0.000 HD
BRANCH  13  15
ATOM     15  C   UNL     1       1.819   8.903  19.207  0.00  0.00    +0.000 A 
ATOM     16  C   UNL     1       1.622   8.060  20.302  0.00  0.00    +0.000 A 
ATOM     17  C   UNL     1       1.854   6.681  20.199  0.00  0.00    +0.000 A 
ATOM     18  C   UNL     1       2.257   6.089  18.989  0.00  0.00    +0.000 A 
ATOM     19  C   UNL     1       2.480   6.955  17.906  0.00  0.00    +0.000 A 
ATOM     20  C   UNL     1       2.285   8.337  18.019  0.00  0.00    +0.000 A 
BRANCH  18  21
ATOM     21  C   UNL     1       2.426   4.619  18.867  0.00  0.00    +0.000 A 
ATOM     22  C   UNL     1       1.816   3.733  19.774  0.00  0.00    +0.000 A 
ATOM     23  C   UNL     1       1.997   2.347  19.684  0.00  0.00    +0.000 A 
ATOM     24  C   UNL     1       2.777   1.813  18.666  0.00  0.00    +0.000 A 
ATOM     25  C   UNL     1       3.371   2.661  17.737  0.00  0.00    +0.000 A 
ATOM     26  C   UNL     1       3.201   4.046  17.841  0.00  0.00    +0.000 A 
ENDBRANCH  18  21
ENDBRANCH  13  15
ENDBRANCH   9  13
BRANCH   1  27
ATOM     27  C   UNL     1      -5.912  12.640  17.116  0.00  0.00    +0.000 C 
BRANCH  27  28
ATOM     28  C   UNL     1      -6.937  13.567  17.782  0.00  0.00    +0.000 C 
BRANCH  28  29
ATOM     29  O   UNL     1      -6.519  14.922  17.642  0.00  0.00    +0.000 OA
ATOM     30  H   UNL     1      -5.586  14.953  17.916  0.00  0.00    +0.000 HD
ENDBRANCH  28  29
ENDBRANCH  27  28
ENDBRANCH   1  27
TORSDOF 6
ENDMDL
MODEL 8
REMARK VINA RESULT:      -7.4      2.073      2.346
REMARK  Name = 
REMARK  6 active torsions:
REMARK  status: ('A' for Active; 'I' for Inactive)
REMARK    1  A    between atoms: O_1  and  C_2
REMARK    2  A    between atoms: C_2  and  C_3
REMARK    3  A    between atoms: C_3  and  N_4
REMARK    4  A    between atoms: C_12  and  N_13
REMARK    5  A    between atoms: N_13  and  C_14
REMARK    6  A    between atoms: C_17  and  C_18
REMARK                            x       y       z     vdW  Elec       q    Type
REMARK                         _______ _______ _______ _____ _____    ______ ____
ROOT
ATOM      1  N   UNL     1      -4.018  10.149  16.146  0.00  0.00    +0.000 NA
ATOM      2  C   UNL     1      -2.952   9.234  16.628  0.00  0.00    +0.000 C 
ATOM      3  C   UNL     1      -1.661   9.931  17.119  0.00  0.00    +0.000 C 
ATOM      4  N   UNL     1      -2.005  10.936  18.117  0.00  0.00    +0.000 N 
ATOM      5  C   UNL     1      -1.381  10.972  19.335  0.00  0.00    +0.000 A 
ATOM      6  N   UNL     1      -1.794  11.881  20.234  0.00  0.00    +0.000 NA
ATOM      7  C   UNL     1      -1.164  11.917  21.417  0.00  0.00    +0.000 A 
ATOM      8  C   UNL     1      -0.112  11.103  21.732  0.00  0.00    +0.000 A 
ATOM      9  C   UNL     1       0.251  10.186  20.772  0.00  0.00    +0.000 A 
ATOM     10  N   UNL     1      -0.391  10.108  19.589  0.00  0.00    +0.000 NA
ATOM     11  C   UNL     1      -3.066  11.881  17.780  0.00  0.00    +0.000 C 
ATOM     12  C   UNL     1      -4.302  11.120  17.237  0.00  0.00    +0.000 C 
ENDROOT
BRANCH   9  13
ATOM     13  N   UNL     1       1.326   9.320  21.074  0.00  0.00    +0.000 N 
ATOM     14  H   UNL     1       2.164   9.842  21.299  0.00  0.00    +0.000 HD
BRANCH  13  15
ATOM     15  C   UNL     1       1.571   8.040  20.548  0.00  0.00    +0.000 A 
ATOM     16  C   UNL     1       2.256   7.893  19.341  0.00  0.00    +0.000 A 
ATOM     17  C   UNL     1       2.594   6.621  18.856  0.00  0.00    +0.000 A 
ATOM     18  C   UNL     1       2.294   5.452  19.578  0.00  0.00    +0.000 A 
ATOM     19  C   UNL     1       1.580   5.616  20.776  0.00  0.00    +0.000 A 
ATOM     20  C   UNL     1       1.208   6.884  21.241  0.00  0.00    +0.000 A 
BRANCH  18  21
ATOM     21  C   UNL     1       2.724   4.115  19.097  0.00  0.00    +0.000 A 
ATOM     22  C   UNL     1       2.177   3.544  17.932  0.00  0.00    +0.000 A 
ATOM     23  C   UNL     1       2.554   2.271  17.490  0.00  0.00    +0.000 A 
ATOM     24  C   UNL     1       3.507   1.545  18.193  0.00  0.00    +0.000 A 
ATOM     25  C   UNL     1       4.086   2.093  19.333  0.00  0.00    +0.000 A 
ATOM     26  C   UNL     1       3.695   3.360  19.780  0.00  0.00    +0.000 A 
ENDBRANCH  18  21
ENDBRANCH  13  15
ENDBRANCH   9  13
BRANCH   1  27
ATOM     27  C   UNL     1      -3.647  10.864  14.908  0.00  0.00    +0.000 C 
BRANCH  27  28
ATOM     28  C   UNL     1      -3.744  10.014  13.636  0.00  0.00    +0.000 C 
BRANCH  28  29
ATOM     29  O   UNL     1      -2.439   9.787  13.110  0.00  0.00    +0.000 OA
ATOM     30  H   UNL     1      -2.093  10.655  12.844  0.00  0.00    +0.000 HD
ENDBRANCH  28  29
ENDBRANCH  27  28
ENDBRANCH   1  27
TORSDOF 6
ENDMDL
MODEL 9
REMARK VINA RESULT:      -7.4      3.966      8.972
REMARK  Name = 
REMARK  6 active torsions:
REMARK  status: ('A' for Active; 'I' for Inactive)
REMARK    1  A    between atoms: O_1  and  C_2
REMARK    2  A    between atoms: C_2  and  C_3
REMARK    3  A    between atoms: C_3  and  N_4
REMARK    4  A    between atoms: C_12  and  N_13
REMARK    5  A    between atoms: N_13  and  C_14
REMARK    6  A    between atoms: C_17  and  C_18
REMARK                            x       y       z     vdW  Elec       q    Type
REMARK                         _______ _______ _______ _____ _____    ______ ____
ROOT
ATOM      1  N   UNL     1       6.497   4.631  16.069  0.00  0.00    +0.000 NA
ATOM      2  C   UNL     1       6.270   5.659  17.116  0.00  0.00    +0.000 C 
ATOM      3  C   UNL     1       4.804   6.126  17.271  0.00  0.00    +0.000 C 
ATOM      4  N   UNL     1       3.944   4.964  17.458  0.00  0.00    +0.000 N 
ATOM      5  C   UNL     1       3.058   4.894  18.499  0.00  0.00    +0.000 A 
ATOM      6  N   UNL     1       2.346   3.766  18.652  0.00  0.00    +0.000 NA
ATOM      7  C   UNL     1       1.468   3.715  19.665  0.00  0.00    +0.000 A 
ATOM      8  C   UNL     1       1.247   4.760  20.518  0.00  0.00    +0.000 A 
ATOM      9  C   UNL     1       2.020   5.881  20.315  0.00  0.00    +0.000 A 
ATOM     10  N   UNL     1       2.933   5.940  19.324  0.00  0.00    +0.000 NA
ATOM     11  C   UNL     1       4.091   3.862  16.511  0.00  0.00    +0.000 C 
ATOM     12  C   UNL     1       5.587   3.489  16.357  0.00  0.00    +0.000 C 
ENDROOT
BRANCH   9  13
ATOM     13  N   UNL     1       1.826   6.974  21.189  0.00  0.00    +0.000 N 
ATOM     14  H   UNL     1       1.634   6.657  22.132  0.00  0.00    +0.000 HD
BRANCH  13  15
ATOM     15  C   UNL     1       1.280   8.232  20.884  0.00  0.00    +0.000 A 
ATOM     16  C   UNL     1       0.660   8.991  21.877  0.00  0.00    +0.000 A 
ATOM     17  C   UNL     1       0.201  10.289  21.610  0.00  0.00    +0.000 A 
ATOM     18  C   UNL     1       0.377  10.889  20.350  0.00  0.00    +0.000 A 
ATOM     19  C   UNL     1       0.976  10.101  19.353  0.00  0.00    +0.000 A 
ATOM     20  C   UNL     1       1.400   8.790  19.610  0.00  0.00    +0.000 A 
BRANCH  18  21
ATOM     21  C   UNL     1      -0.041  12.290  20.096  0.00  0.00    +0.000 A 
ATOM     22  C   UNL     1      -0.828  13.000  21.023  0.00  0.00    +0.000 A 
ATOM     23  C   UNL     1      -1.253  14.311  20.777  0.00  0.00    +0.000 A 
ATOM     24  C   UNL     1      -0.880  14.953  19.602  0.00  0.00    +0.000 A 
ATOM     25  C   UNL     1      -0.080  14.288  18.679  0.00  0.00    +0.000 A 
ATOM     26  C   UNL     1       0.329  12.972  18.922  0.00  0.00    +0.000 A 
ENDBRANCH  18  21
ENDBRANCH  13  15
ENDBRANCH   9  13
BRANCH   1  27
ATOM     27  C   UNL     1       6.263   5.139  14.703  0.00  0.00    +0.000 C 
BRANCH  27  28
ATOM     28  C   UNL     1       7.063   4.413  13.614  0.00  0.00    +0.000 C 
BRANCH  28  29
ATOM     29  O   UNL     1       6.301   3.323  13.105  0.00  0.00    +0.000 OA
ATOM     30  H   UNL     1       5.367   3.590  13.157  0.00  0.00    +0.000 HD
ENDBRANCH  28  29
ENDBRANCH  27  28
ENDBRANCH   1  27
TORSDOF 6
ENDMDL
