MODEL 1
REMARK VINA RESULT:      -9.0      0.000      0.000
REMARK  Name = 
REMARK  8 active torsions:
REMARK  status: ('A' for Active; 'I' for Inactive)
REMARK    1  A    between atoms: C_1  and  C_2
REMARK    2  A    between atoms: C_2  and  C_3
REMARK    3  A    between atoms: C_3  and  C_4
REMARK    4  A    between atoms: C_3  and  C_20
REMARK    5  A    between atoms: N_6  and  C_7
REMARK    6  A    between atoms: C_10  and  C_11
REMARK    7  A    between atoms: N_25  and  S_26
REMARK    8  A    between atoms: S_26  and  C_29
REMARK                            x       y       z     vdW  Elec       q    Type
REMARK                         _______ _______ _______ _____ _____    ______ ____
ROOT
ATOM      1  C   UNL     1       3.791   4.037  18.787  0.00  0.00    +0.000 C 
ENDROOT
BRANCH   1   2
ATOM      2  C   UNL     1       5.188   4.550  18.484  0.00  0.00    +0.000 A 
ATOM      3  C   UNL     1       5.804   5.502  19.285  0.00  0.00    +0.000 A 
ATOM      4  C   UNL     1       7.033   5.966  18.862  0.00  0.00    +0.000 A 
ATOM      5  N   UNL     1       7.636   5.555  17.737  0.00  0.00    +0.000 NA
ATOM      6  C   UNL     1       6.959   4.640  17.046  0.00  0.00    +0.000 A 
ATOM      7  N   UNL     1       7.584   4.224  15.877  0.00  0.00    +0.000 N 
ATOM      8  N   UNL     1       5.768   4.112  17.349  0.00  0.00    +0.000 NA
ATOM      9  H   UNL     1       8.585   4.381  15.938  0.00  0.00    +0.000 HD
BRANCH   7  10
ATOM     10  S   UNL     1       6.956   4.891  14.478  0.00  0.00    +0.000 S 
ATOM     11  O   UNL     1       5.828   5.683  14.907  0.00  0.00    +0.000 OA
ATOM     12  O   UNL     1       8.019   5.488  13.694  0.00  0.00    +0.000 OA
BRANCH  10  13
ATOM     13  C   UNL     1       6.298   3.560  13.409  0.00  0.00    +0.000 C 
ATOM     14  C   UNL     1       5.180   3.901  12.463  0.00  0.00    +0.000 C 
ATOM     15  C   UNL     1       6.585   3.787  11.941  0.00  0.00    +0.000 C 
ENDBRANCH  10  13
ENDBRANCH   7  10
ENDBRANCH   1   2
BRANCH   1  16
ATOM     16  C   UNL     1       2.822   5.214  18.699  0.00  0.00    +0.000 C 
ATOM     17  O   UNL     1       1.955   5.229  17.821  0.00  0.00    +0.000 OA
ATOM     18  N   UNL     1       2.983   6.176  19.689  0.00  0.00    +0.000 N 
ATOM     19  H   UNL     1       3.772   6.083  20.321  0.00  0.00    +0.000 HD
BRANCH  18  20
ATOM     20  C   UNL     1       2.161   7.315  19.846  0.00  0.00    +0.000 A 
ATOM     21  C   UNL     1       1.383   7.532  20.985  0.00  0.00    +0.000 A 
ATOM     22  C   UNL     1       0.546   8.641  21.092  0.00  0.00    +0.000 A 
ATOM     23  C   UNL     1       0.465   9.594  20.072  0.00  0.00    +0.000 A 
ATOM     24  C   UNL     1       1.265   9.382  18.933  0.00  0.00    +0.000 A 
ATOM     25  C   UNL     1       2.111   8.262  18.824  0.00  0.00    +0.000 A 
BRANCH  23  26
ATOM     26  C   UNL     1      -0.432  10.754  20.196  0.00  0.00    +0.000 A 
ATOM     27  C   UNL     1      -0.896  11.477  19.090  0.00  0.00    +0.000 A 
ATOM     28  N   UNL     1      -1.686  12.574  19.183  0.00  0.00    +0.000 NA
ATOM     29  C   UNL     1      -2.005  12.932  20.449  0.00  0.00    +0.000 A 
ATOM     30  C   UNL     1      -1.561  12.221  21.551  0.00  0.00    +0.000 A 
ATOM     31 CL   UNL     1      -1.972  12.689  23.145  0.00  0.00    +0.000 Cl
ATOM     32  N   UNL     1      -0.779  11.123  21.457  0.00  0.00    +0.000 NA
ENDBRANCH  23  26
ENDBRANCH  18  20
ENDBRANCH   1  16
BRANCH   1  34
ATOM     33  C   UNL     1       4.529   2.065  20.291  0.00  0.00    +0.000 C 
ATOM     34  C   UNL     1       3.718   3.356  20.179  0.00  0.00    +0.000 C 
ENDBRANCH   1  34
TORSDOF 7
ENDMDL
MODEL 2
REMARK VINA RESULT:      -8.7      0.765      1.197
REMARK  Name = 
REMARK  8 active torsions:
REMARK  status: ('A' for Active; 'I' for Inactive)
REMARK    1  A    between atoms: C_1  and  C_2
REMARK    2  A    between atoms: C_2  and  C_3
REMARK    3  A    between atoms: C_3  and  C_4
REMARK    4  A    between atoms: C_3  and  C_20
REMARK    5  A    between atoms: N_6  and  C_7
REMARK    6  A    between atoms: C_10  and  C_11
REMARK    7  A    between atoms: N_25  and  S_26
REMARK    8  A    between atoms: S_26  and  C_29
REMARK                            x       y       z     vdW  Elec       q    Type
REMARK                         _______ _______ _______ _____ _____    ______ ____
ROOT
ATOM      1  C   UNL     1       3.757   4.097  18.966  0.00  0.00    +0.000 C 
ENDROOT
BRANCH   1   2
ATOM      2  C   UNL     1       5.188   4.497  18.651  0.00  0.00    +0.000 A 
ATOM      3  C   UNL     1       5.897   5.367  19.468  0.00  0.00    +0.000 A 
ATOM      4  C   UNL     1       7.155   5.736  19.035  0.00  0.00    +0.000 A 
ATOM      5  N   UNL     1       7.701   5.309  17.887  0.00  0.00    +0.000 NA
ATOM      6  C   UNL     1       6.935   4.478  17.182  0.00  0.00    +0.000 A 
ATOM      7  N   UNL     1       7.502   4.048  15.989  0.00  0.00    +0.000 N 
ATOM      8  N   UNL     1       5.708   4.047  17.492  0.00  0.00    +0.000 NA
ATOM      9  H   UNL     1       8.514   4.115  16.035  0.00  0.00    +0.000 HD
BRANCH   7  10
ATOM     10  S   UNL     1       6.911   4.809  14.623  0.00  0.00    +0.000 S 
ATOM     11  O   UNL     1       5.896   5.717  15.103  0.00  0.00    +0.000 OA
ATOM     12  O   UNL     1       8.010   5.296  13.813  0.00  0.00    +0.000 OA
BRANCH  10  13
ATOM     13  C   UNL     1       6.070   3.585  13.556  0.00  0.00    +0.000 C 
ATOM     14  C   UNL     1       5.124   4.095  12.504  0.00  0.00    +0.000 C 
ATOM     15  C   UNL     1       6.509   3.663  12.110  0.00  0.00    +0.000 C 
ENDBRANCH  10  13
ENDBRANCH   7  10
ENDBRANCH   1   2
BRANCH   1  16
ATOM     16  C   UNL     1       2.853   5.295  18.679  0.00  0.00    +0.000 C 
ATOM     17  O   UNL     1       2.047   5.244  17.746  0.00  0.00    +0.000 OA
ATOM     18  N   UNL     1       2.996   6.356  19.564  0.00  0.00    +0.000 N 
ATOM     19  H   UNL     1       3.737   6.304  20.256  0.00  0.00    +0.000 HD
BRANCH  18  20
ATOM     20  C   UNL     1       2.222   7.538  19.536  0.00  0.00    +0.000 A 
ATOM     21  C   UNL     1       2.145   8.363  18.413  0.00  0.00    +0.000 A 
ATOM     22  C   UNL     1       1.411   9.547  18.430  0.00  0.00    +0.000 A 
ATOM     23  C   UNL     1       0.703   9.949  19.567  0.00  0.00    +0.000 A 
ATOM     24  C   UNL     1       0.766   9.105  20.692  0.00  0.00    +0.000 A 
ATOM     25  C   UNL     1       1.508   7.909  20.675  0.00  0.00    +0.000 A 
BRANCH  23  26
ATOM     26  C   UNL     1      -0.059  11.208  19.572  0.00  0.00    +0.000 A 
ATOM     27  C   UNL     1       0.332  12.334  18.836  0.00  0.00    +0.000 A 
ATOM     28  N   UNL     1      -0.329  13.517  18.861  0.00  0.00    +0.000 NA
ATOM     29  C   UNL     1      -1.420  13.537  19.663  0.00  0.00    +0.000 A 
ATOM     30  C   UNL     1      -1.822  12.428  20.386  0.00  0.00    +0.000 A 
ATOM     31 CL   UNL     1      -3.203  12.471  21.397  0.00  0.00    +0.000 Cl
ATOM     32  N   UNL     1      -1.168  11.247  20.357  0.00  0.00    +0.000 NA
ENDBRANCH  23  26
ENDBRANCH  18  20
ENDBRANCH   1  16
BRANCH   1  34
ATOM     33  C   UNL     1       2.302   2.866  20.716  0.00  0.00    +0.000 C 
ATOM     34  C   UNL     1       3.602   3.620  20.433  0.00  0.00    +0.000 C 
ENDBRANCH   1  34
TORSDOF 7
ENDMDL
MODEL 3
REMARK VINA RESULT:      -8.4      1.393      1.534
REMARK  Name = 
REMARK  8 active torsions:
REMARK  status: ('A' for Active; 'I' for Inactive)
REMARK    1  A    between atoms: C_1  and  C_2
REMARK    2  A    between atoms: C_2  and  C_3
REMARK    3  A    between atoms: C_3  and  C_4
REMARK    4  A    between atoms: C_3  and  C_20
REMARK    5  A    between atoms: N_6  and  C_7
REMARK    6  A    between atoms: C_10  and  C_11
REMARK    7  A    between atoms: N_25  and  S_26
REMARK    8  A    between atoms: S_26  and  C_29
REMARK                            x       y       z     vdW  Elec       q    Type
REMARK                         _______ _______ _______ _____ _____    ______ ____
ROOT
ATOM      1  C   UNL     1       3.256   4.177  18.665  0.00  0.00    +0.000 C 
ENDROOT
BRANCH   1   2
ATOM      2  C   UNL     1       4.713   4.571  18.494  0.00  0.00    +0.000 A 
ATOM      3  C   UNL     1       5.336   5.454  19.366  0.00  0.00    +0.000 A 
ATOM      4  C   UNL     1       6.632   5.815  19.060  0.00  0.00    +0.000 A 
ATOM      5  N   UNL     1       7.294   5.369  17.982  0.00  0.00    +0.000 NA
ATOM      6  C   UNL     1       6.604   4.527  17.215  0.00  0.00    +0.000 A 
ATOM      7  N   UNL     1       7.291   4.076  16.095  0.00  0.00    +0.000 N 
ATOM      8  N   UNL     1       5.350   4.101  17.403  0.00  0.00    +0.000 NA
ATOM      9  H   UNL     1       8.293   4.143  16.244  0.00  0.00    +0.000 HD
BRANCH   7  10
ATOM     10  S   UNL     1       6.847   4.814  14.662  0.00  0.00    +0.000 S 
ATOM     11  O   UNL     1       5.733   5.668  15.004  0.00  0.00    +0.000 OA
ATOM     12  O   UNL     1       8.016   5.359  14.003  0.00  0.00    +0.000 OA
BRANCH  10  13
ATOM     13  C   UNL     1       6.215   3.556  13.495  0.00  0.00    +0.000 C 
ATOM     14  C   UNL     1       5.161   3.973  12.507  0.00  0.00    +0.000 C 
ATOM     15  C   UNL     1       6.590   3.844  12.057  0.00  0.00    +0.000 C 
ENDBRANCH  10  13
ENDBRANCH   7  10
ENDBRANCH   1   2
BRANCH   1  16
ATOM     16  C   UNL     1       2.585   5.214  19.564  0.00  0.00    +0.000 C 
ATOM     17  O   UNL     1       2.265   4.910  20.716  0.00  0.00    +0.000 OA
ATOM     18  N   UNL     1       2.437   6.472  18.991  0.00  0.00    +0.000 N 
ATOM     19  H   UNL     1       2.685   6.583  18.013  0.00  0.00    +0.000 HD
BRANCH  18  20
ATOM     20  C   UNL     1       1.908   7.601  19.655  0.00  0.00    +0.000 A 
ATOM     21  C   UNL     1       1.669   7.625  21.030  0.00  0.00    +0.000 A 
ATOM     22  C   UNL     1       1.101   8.737  21.649  0.00  0.00    +0.000 A 
ATOM     23  C   UNL     1       0.767   9.884  20.922  0.00  0.00    +0.000 A 
ATOM     24  C   UNL     1       1.027   9.864  19.539  0.00  0.00    +0.000 A 
ATOM     25  C   UNL     1       1.600   8.741  18.913  0.00  0.00    +0.000 A 
BRANCH  23  26
ATOM     26  C   UNL     1       0.159  11.046  21.591  0.00  0.00    +0.000 A 
ATOM     27  C   UNL     1      -0.887  10.928  22.515  0.00  0.00    +0.000 A 
ATOM     28  N   UNL     1      -1.492  11.985  23.108  0.00  0.00    +0.000 NA
ATOM     29  C   UNL     1      -1.004  13.193  22.739  0.00  0.00    +0.000 A 
ATOM     30  C   UNL     1       0.035  13.323  21.834  0.00  0.00    +0.000 A 
ATOM     31 CL   UNL     1       0.638  14.858  21.376  0.00  0.00    +0.000 Cl
ATOM     32  N   UNL     1       0.643  12.268  21.248  0.00  0.00    +0.000 NA
ENDBRANCH  23  26
ENDBRANCH  18  20
ENDBRANCH   1  16
BRANCH   1  34
ATOM     33  C   UNL     1       4.371   2.221  19.940  0.00  0.00    +0.000 C 
ATOM     34  C   UNL     1       3.111   2.750  19.253  0.00  0.00    +0.000 C 
ENDBRANCH   1  34
TORSDOF 7
ENDMDL
MODEL 4
REMARK VINA RESULT:      -8.4      1.319      1.496
REMARK  Name = 
REMARK  8 active torsions:
REMARK  status: ('A' for Active; 'I' for Inactive)
REMARK    1  A    between atoms: C_1  and  C_2
REMARK    2  A    between atoms: C_2  and  C_3
REMARK    3  A    between atoms: C_3  and  C_4
REMARK    4  A    between atoms: C_3  and  C_20
REMARK    5  A    between atoms: N_6  and  C_7
REMARK    6  A    between atoms: C_10  and  C_11
REMARK    7  A    between atoms: N_25  and  S_26
REMARK    8  A    between atoms: S_26  and  C_29
REMARK                            x       y       z     vdW  Elec       q    Type
REMARK                         _______ _______ _______ _____ _____    ______ ____
ROOT
ATOM      1  C   UNL     1       2.775   3.994  17.610  0.00  0.00    +0.000 C 
ENDROOT
BRANCH   1   2
ATOM      2  C   UNL     1       4.287   4.132  17.670  0.00  0.00    +0.000 A 
ATOM      3  C   UNL     1       4.930   4.596  18.809  0.00  0.00    +0.000 A 
ATOM      4  C   UNL     1       6.296   4.772  18.721  0.00  0.00    +0.000 A 
ATOM      5  N   UNL     1       7.007   4.528  17.609  0.00  0.00    +0.000 NA
ATOM      6  C   UNL     1       6.290   4.086  16.578  0.00  0.00    +0.000 A 
ATOM      7  N   UNL     1       7.030   3.845  15.427  0.00  0.00    +0.000 N 
ATOM      8  N   UNL     1       4.971   3.874  16.538  0.00  0.00    +0.000 NA
ATOM      9  H   UNL     1       8.003   3.673  15.661  0.00  0.00    +0.000 HD
BRANCH   7  10
ATOM     10  S   UNL     1       6.896   5.028  14.253  0.00  0.00    +0.000 S 
ATOM     11  O   UNL     1       5.731   5.799  14.621  0.00  0.00    +0.000 OA
ATOM     12  O   UNL     1       8.176   5.678  14.057  0.00  0.00    +0.000 OA
BRANCH  10  13
ATOM     13  C   UNL     1       6.532   4.250  12.638  0.00  0.00    +0.000 C 
ATOM     14  C   UNL     1       6.201   2.783  12.619  0.00  0.00    +0.000 C 
ATOM     15  C   UNL     1       5.093   3.794  12.515  0.00  0.00    +0.000 C 
ENDBRANCH  10  13
ENDBRANCH   7  10
ENDBRANCH   1   2
BRANCH   1  16
ATOM     16  C   UNL     1       2.163   5.065  18.510  0.00  0.00    +0.000 C 
ATOM     17  O   UNL     1       1.590   4.735  19.552  0.00  0.00    +0.000 OA
ATOM     18  N   UNL     1       2.362   6.371  18.078  0.00  0.00    +0.000 N 
ATOM     19  H   UNL     1       2.797   6.513  17.172  0.00  0.00    +0.000 HD
BRANCH  18  20
ATOM     20  C   UNL     1       1.945   7.524  18.782  0.00  0.00    +0.000 A 
ATOM     21  C   UNL     1       1.788   7.545  20.169  0.00  0.00    +0.000 A 
ATOM     22  C   UNL     1       1.331   8.683  20.831  0.00  0.00    +0.000 A 
ATOM     23  C   UNL     1       1.030   9.859  20.135  0.00  0.00    +0.000 A 
ATOM     24  C   UNL     1       1.208   9.840  18.739  0.00  0.00    +0.000 A 
ATOM     25  C   UNL     1       1.670   8.691  18.070  0.00  0.00    +0.000 A 
BRANCH  23  26
ATOM     26  C   UNL     1       0.539  11.049  20.848  0.00  0.00    +0.000 A 
ATOM     27  C   UNL     1       1.179  12.293  20.780  0.00  0.00    +0.000 A 
ATOM     28  N   UNL     1       0.770  13.389  21.463  0.00  0.00    +0.000 NA
ATOM     29  C   UNL     1      -0.326  13.197  22.234  0.00  0.00    +0.000 A 
ATOM     30  C   UNL     1      -0.974  11.975  22.302  0.00  0.00    +0.000 A 
ATOM     31 CL   UNL     1      -2.358  11.748  23.283  0.00  0.00    +0.000 Cl
ATOM     32  N   UNL     1      -0.570  10.884  21.616  0.00  0.00    +0.000 NA
ENDBRANCH  23  26
ENDBRANCH  18  20
ENDBRANCH   1  16
BRANCH   1  34
ATOM     33  C   UNL     1       3.449   1.613  18.365  0.00  0.00    +0.000 C 
ATOM     34  C   UNL     1       2.309   2.576  18.031  0.00  0.00    +0.000 C 
ENDBRANCH   1  34
TORSDOF 7
ENDMDL
MODEL 5
REMARK VINA RESULT:      -8.2      1.742      2.090
REMARK  Name = 
REMARK  8 active torsions:
REMARK  status: ('A' for Active; 'I' for Inactive)
REMARK    1  A    between atoms: C_1  and  C_2
REMARK    2  A    between atoms: C_2  and  C_3
REMARK    3  A    between atoms: C_3  and  C_4
REMARK    4  A    between atoms: C_3  and  C_20
REMARK    5  A    between atoms: N_6  and  C_7
REMARK    6  A    between atoms: C_10  and  C_11
REMARK    7  A    between atoms: N_25  and  S_26
REMARK    8  A    between atoms: S_26  and  C_29
REMARK                            x       y       z     vdW  Elec       q    Type
REMARK                         _______ _______ _______ _____ _____    ______ ____
ROOT
ATOM      1  C   UNL     1       2.703   5.272  18.530  0.00  0.00    +0.000 C 
ENDROOT
BRANCH   1   2
ATOM      2  C   UNL     1       4.199   5.023  18.454  0.00  0.00    +0.000 A 
ATOM      3  C   UNL     1       5.068   5.512  19.420  0.00  0.00    +0.000 A 
ATOM      4  C   UNL     1       6.416   5.309  19.200  0.00  0.00    +0.000 A 
ATOM      5  N   UNL     1       6.907   4.683  18.120  0.00  0.00    +0.000 NA
ATOM      6  C   UNL     1       5.986   4.254  17.259  0.00  0.00    +0.000 A 
ATOM      7  N   UNL     1       6.502   3.616  16.138  0.00  0.00    +0.000 N 
ATOM      8  N   UNL     1       4.659   4.387  17.358  0.00  0.00    +0.000 NA
ATOM      9  H   UNL     1       7.426   3.247  16.336  0.00  0.00    +0.000 HD
BRANCH   7  10
ATOM     10  S   UNL     1       6.513   4.549  14.750  0.00  0.00    +0.000 S 
ATOM     11  O   UNL     1       5.222   5.197  14.718  0.00  0.00    +0.000 OA
ATOM     12  O   UNL     1       7.730   5.332  14.691  0.00  0.00    +0.000 OA
BRANCH  10  13
ATOM     13  C   UNL     1       6.601   3.461  13.283  0.00  0.00    +0.000 C 
ATOM     14  C   UNL     1       5.488   3.541  12.276  0.00  0.00    +0.000 C 
ATOM     15  C   UNL     1       6.794   4.228  11.992  0.00  0.00    +0.000 C 
ENDBRANCH  10  13
ENDBRANCH   7  10
ENDBRANCH   1   2
BRANCH   1  16
ATOM     16  C   UNL     1       2.481   6.758  18.805  0.00  0.00    +0.000 C 
ATOM     17  O   UNL     1       2.904   7.598  18.007  0.00  0.00    +0.000 OA
ATOM     18  N   UNL     1       1.748   7.034  19.953  0.00  0.00    +0.000 N 
ATOM     19  H   UNL     1       1.505   6.259  20.562  0.00  0.00    +0.000 HD
BRANCH  18  20
ATOM     20  C   UNL     1       1.363   8.328  20.371  0.00  0.00    +0.000 A 
ATOM     21  C   UNL     1       1.153   8.656  21.711  0.00  0.00    +0.000 A 
ATOM     22  C   UNL     1       0.728   9.928  22.090  0.00  0.00    +0.000 A 
ATOM     23  C   UNL     1       0.514  10.936  21.143  0.00  0.00    +0.000 A 
ATOM     24  C   UNL     1       0.745  10.607  19.794  0.00  0.00    +0.000 A 
ATOM     25  C   UNL     1       1.174   9.322  19.412  0.00  0.00    +0.000 A 
BRANCH  23  26
ATOM     26  C   UNL     1       0.055  12.271  21.559  0.00  0.00    +0.000 A 
ATOM     27  C   UNL     1      -0.799  12.474  22.651  0.00  0.00    +0.000 A 
ATOM     28  N   UNL     1      -1.269  13.689  23.024  0.00  0.00    +0.000 NA
ATOM     29  C   UNL     1      -0.848  14.718  22.252  0.00  0.00    +0.000 A 
ATOM     30  C   UNL     1       0.004  14.532  21.177  0.00  0.00    +0.000 A 
ATOM     31 CL   UNL     1       0.526  15.844  20.210  0.00  0.00    +0.000 Cl
ATOM     32  N   UNL     1       0.479  13.322  20.809  0.00  0.00    +0.000 NA
ENDBRANCH  23  26
ENDBRANCH  18  20
ENDBRANCH   1  16
BRANCH   1  34
ATOM     33  C   UNL     1       1.125   3.292  19.064  0.00  0.00    +0.000 C 
ATOM     34  C   UNL     1       2.028   4.395  19.616  0.00  0.00    +0.000 C 
ENDBRANCH   1  34
TORSDOF 7
ENDMDL
MODEL 6
REMARK VINA RESULT:      -8.2      1.153      1.164
REMARK  Name = 
REMARK  8 active torsions:
REMARK  status: ('A' for Active; 'I' for Inactive)
REMARK    1  A    between atoms: C_1  and  C_2
REMARK    2  A    between atoms: C_2  and  C_3
REMARK    3  A    between atoms: C_3  and  C_4
REMARK    4  A    between atoms: C_3  and  C_20
REMARK    5  A    between atoms: N_6  and  C_7
REMARK    6  A    between atoms: C_10  and  C_11
REMARK    7  A    between atoms: N_25  and  S_26
REMARK    8  A    between atoms: S_26  and  C_29
REMARK                            x       y       z     vdW  Elec       q    Type
REMARK                         _______ _______ _______ _____ _____    ______ ____
ROOT
ATOM      1  C   UNL     1       3.498   4.061  18.793  0.00  0.00    +0.000 C 
ENDROOT
BRANCH   1   2
ATOM      2  C   UNL     1       4.938   4.488  18.569  0.00  0.00    +0.000 A 
ATOM      3  C   UNL     1       5.576   5.377  19.424  0.00  0.00    +0.000 A 
ATOM      4  C   UNL     1       6.851   5.770  19.071  0.00  0.00    +0.000 A 
ATOM      5  N   UNL     1       7.479   5.348  17.964  0.00  0.00    +0.000 NA
ATOM      6  C   UNL     1       6.777   4.498  17.217  0.00  0.00    +0.000 A 
ATOM      7  N   UNL     1       7.430   4.072  16.066  0.00  0.00    +0.000 N 
ATOM      8  N   UNL     1       5.542   4.042  17.449  0.00  0.00    +0.000 NA
ATOM      9  H   UNL     1       8.435   4.160  16.177  0.00  0.00    +0.000 HD
BRANCH   7  10
ATOM     10  S   UNL     1       6.913   4.814  14.659  0.00  0.00    +0.000 S 
ATOM     11  O   UNL     1       5.842   5.693  15.064  0.00  0.00    +0.000 OA
ATOM     12  O   UNL     1       8.051   5.329  13.925  0.00  0.00    +0.000 OA
BRANCH  10  13
ATOM     13  C   UNL     1       6.182   3.563  13.541  0.00  0.00    +0.000 C 
ATOM     14  C   UNL     1       5.165   4.023  12.535  0.00  0.00    +0.000 C 
ATOM     15  C   UNL     1       6.578   3.764  12.094  0.00  0.00    +0.000 C 
ENDBRANCH  10  13
ENDBRANCH   7  10
ENDBRANCH   1   2
BRANCH   1  16
ATOM     16  C   UNL     1       2.732   5.252  19.365  0.00  0.00    +0.000 C 
ATOM     17  O   UNL     1       2.235   5.177  20.492  0.00  0.00    +0.000 OA
ATOM     18  N   UNL     1       2.707   6.375  18.547  0.00  0.00    +0.000 N 
ATOM     19  H   UNL     1       3.101   6.295  17.614  0.00  0.00    +0.000 HD
BRANCH  18  20
ATOM     20  C   UNL     1       2.118   7.612  18.894  0.00  0.00    +0.000 A 
ATOM     21  C   UNL     1       1.681   7.902  20.187  0.00  0.00    +0.000 A 
ATOM     22  C   UNL     1       1.060   9.112  20.490  0.00  0.00    +0.000 A 
ATOM     23  C   UNL     1       0.868  10.096  19.514  0.00  0.00    +0.000 A 
ATOM     24  C   UNL     1       1.327   9.808  18.215  0.00  0.00    +0.000 A 
ATOM     25  C   UNL     1       1.954   8.585  17.909  0.00  0.00    +0.000 A 
BRANCH  23  26
ATOM     26  C   UNL     1       0.201  11.365  19.848  0.00  0.00    +0.000 A 
ATOM     27  C   UNL     1      -1.064  11.709  19.356  0.00  0.00    +0.000 A 
ATOM     28  N   UNL     1      -1.677  12.890  19.614  0.00  0.00    +0.000 NA
ATOM     29  C   UNL     1      -0.967  13.735  20.399  0.00  0.00    +0.000 A 
ATOM     30  C   UNL     1       0.280  13.402  20.899  0.00  0.00    +0.000 A 
ATOM     31 CL   UNL     1       1.165  14.482  21.888  0.00  0.00    +0.000 Cl
ATOM     32  N   UNL     1       0.888  12.222  20.648  0.00  0.00    +0.000 NA
ENDBRANCH  23  26
ENDBRANCH  18  20
ENDBRANCH   1  16
BRANCH   1  34
ATOM     33  C   UNL     1       4.750   2.337  20.261  0.00  0.00    +0.000 C 
ATOM     34  C   UNL     1       3.403   2.831  19.733  0.00  0.00    +0.000 C 
ENDBRANCH   1  34
TORSDOF 7
ENDMDL
MODEL 7
REMARK VINA RESULT:      -8.2      5.140     10.315
REMARK  Name = 
REMARK  8 active torsions:
REMARK  status: ('A' for Active; 'I' for Inactive)
REMARK    1  A    between atoms: C_1  and  C_2
REMARK    2  A    between atoms: C_2  and  C_3
REMARK    3  A    between atoms: C_3  and  C_4
REMARK    4  A    between atoms: C_3  and  C_20
REMARK    5  A    between atoms: N_6  and  C_7
REMARK    6  A    between atoms: C_10  and  C_11
REMARK    7  A    between atoms: N_25  and  S_26
REMARK    8  A    between atoms: S_26  and  C_29
REMARK                            x       y       z     vdW  Elec       q    Type
REMARK                         _______ _______ _______ _____ _____    ______ ____
ROOT
ATOM      1  C   UNL     1      -0.083  13.567  20.305  0.00  0.00    +0.000 C 
ENDROOT
BRANCH   1   2
ATOM      2  C   UNL     1      -1.505  13.236  20.724  0.00  0.00    +0.000 A 
ATOM      3  C   UNL     1      -1.800  12.782  22.002  0.00  0.00    +0.000 A 
ATOM      4  C   UNL     1      -3.110  12.420  22.244  0.00  0.00    +0.000 A 
ATOM      5  N   UNL     1      -4.080  12.478  21.319  0.00  0.00    +0.000 NA
ATOM      6  C   UNL     1      -3.687  12.928  20.129  0.00  0.00    +0.000 A 
ATOM      7  N   UNL     1      -4.694  12.977  19.173  0.00  0.00    +0.000 N 
ATOM      8  N   UNL     1      -2.456  13.309  19.772  0.00  0.00    +0.000 NA
ATOM      9  H   UNL     1      -5.603  13.036  19.620  0.00  0.00    +0.000 HD
BRANCH   7  10
ATOM     10  S   UNL     1      -4.654  11.732  18.057  0.00  0.00    +0.000 S 
ATOM     11  O   UNL     1      -5.213  10.590  18.742  0.00  0.00    +0.000 OA
ATOM     12  O   UNL     1      -5.212  12.179  16.797  0.00  0.00    +0.000 OA
BRANCH  10  13
ATOM     13  C   UNL     1      -2.917  11.320  17.662  0.00  0.00    +0.000 C 
ATOM     14  C   UNL     1      -2.449   9.913  17.913  0.00  0.00    +0.000 C 
ATOM     15  C   UNL     1      -2.789  10.343  16.513  0.00  0.00    +0.000 C 
ENDBRANCH  10  13
ENDBRANCH   7  10
ENDBRANCH   1   2
BRANCH   1  16
ATOM     16  C   UNL     1       0.756  12.296  20.420  0.00  0.00    +0.000 C 
ATOM     17  O   UNL     1       1.700  12.255  21.213  0.00  0.00    +0.000 OA
ATOM     18  N   UNL     1       0.327  11.242  19.622  0.00  0.00    +0.000 N 
ATOM     19  H   UNL     1      -0.427  11.417  18.965  0.00  0.00    +0.000 HD
BRANCH  18  20
ATOM     20  C   UNL     1       0.905   9.952  19.612  0.00  0.00    +0.000 A 
ATOM     21  C   UNL     1       0.892   9.111  20.726  0.00  0.00    +0.000 A 
ATOM     22  C   UNL     1       1.511   7.863  20.701  0.00  0.00    +0.000 A 
ATOM     23  C   UNL     1       2.155   7.392  19.552  0.00  0.00    +0.000 A 
ATOM     24  C   UNL     1       2.150   8.234  18.424  0.00  0.00    +0.000 A 
ATOM     25  C   UNL     1       1.524   9.495  18.449  0.00  0.00    +0.000 A 
BRANCH  23  26
ATOM     26  C   UNL     1       2.813   6.076  19.546  0.00  0.00    +0.000 A 
ATOM     27  C   UNL     1       3.884   5.767  18.697  0.00  0.00    +0.000 A 
ATOM     28  N   UNL     1       4.476   4.549  18.643  0.00  0.00    +0.000 NA
ATOM     29  C   UNL     1       3.950   3.629  19.486  0.00  0.00    +0.000 A 
ATOM     30  C   UNL     1       2.899   3.925  20.337  0.00  0.00    +0.000 A 
ATOM     31 CL   UNL     1       2.245   2.749  21.394  0.00  0.00    +0.000 Cl
ATOM     32  N   UNL     1       2.313   5.141  20.396  0.00  0.00    +0.000 NA
ENDBRANCH  23  26
ENDBRANCH  18  20
ENDBRANCH   1  16
BRANCH   1  34
ATOM     33  C   UNL     1       1.166  15.832  20.349  0.00  0.00    +0.000 C 
ATOM     34  C   UNL     1       0.517  14.712  21.162  0.00  0.00    +0.000 C 
ENDBRANCH   1  34
TORSDOF 7
ENDMDL
MODEL 8
REMARK VINA RESULT:      -8.2      5.559     11.913
REMARK  Name = 
REMARK  8 active torsions:
REMARK  status: ('A' for Active; 'I' for Inactive)
REMARK    1  A    between atoms: C_1  and  C_2
REMARK    2  A    between atoms: C_2  and  C_3
REMARK    3  A    between atoms: C_3  and  C_4
REMARK    4  A    between atoms: C_3  and  C_20
REMARK    5  A    between atoms: N_6  and  C_7
REMARK    6  A    between atoms: C_10  and  C_11
REMARK    7  A    between atoms: N_25  and  S_26
REMARK    8  A    between atoms: S_26  and  C_29
REMARK                            x       y       z     vdW  Elec       q    Type
REMARK                         _______ _______ _______ _____ _____    ______ ____
ROOT
ATOM      1  C   UNL     1      -1.255  12.672  19.320  0.00  0.00    +0.000 C 
ENDROOT
BRANCH   1   2
ATOM      2  C   UNL     1      -1.895  12.831  20.688  0.00  0.00    +0.000 A 
ATOM      3  C   UNL     1      -1.331  12.269  21.826  0.00  0.00    +0.000 A 
ATOM      4  C   UNL     1      -2.047  12.396  22.999  0.00  0.00    +0.000 A 
ATOM      5  N   UNL     1      -3.235  13.014  23.082  0.00  0.00    +0.000 NA
ATOM      6  C   UNL     1      -3.682  13.517  21.933  0.00  0.00    +0.000 A 
ATOM      7  N   UNL     1      -4.916  14.147  22.024  0.00  0.00    +0.000 N 
ATOM      8  N   UNL     1      -3.085  13.462  20.737  0.00  0.00    +0.000 NA
ATOM      9  H   UNL     1      -5.086  14.456  22.976  0.00  0.00    +0.000 HD
BRANCH   7  10
ATOM     10  S   UNL     1      -6.202  13.246  21.447  0.00  0.00    +0.000 S 
ATOM     11  O   UNL     1      -6.664  13.951  20.274  0.00  0.00    +0.000 OA
ATOM     12  O   UNL     1      -5.828  11.848  21.365  0.00  0.00    +0.000 OA
BRANCH  10  13
ATOM     13  C   UNL     1      -7.567  13.279  22.663  0.00  0.00    +0.000 C 
ATOM     14  C   UNL     1      -7.271  12.843  24.071  0.00  0.00    +0.000 C 
ATOM     15  C   UNL     1      -7.360  14.309  23.753  0.00  0.00    +0.000 C 
ENDBRANCH  10  13
ENDBRANCH   7  10
ENDBRANCH   1   2
BRANCH   1  16
ATOM     16  C   UNL     1      -0.831  11.213  19.160  0.00  0.00    +0.000 C 
ATOM     17  O   UNL     1      -1.668  10.362  18.846  0.00  0.00    +0.000 OA
ATOM     18  N   UNL     1       0.527  10.979  19.343  0.00  0.00    +0.000 N 
ATOM     19  H   UNL     1       1.106  11.751  19.659  0.00  0.00    +0.000 HD
BRANCH  18  20
ATOM     20  C   UNL     1       1.157   9.724  19.181  0.00  0.00    +0.000 A 
ATOM     21  C   UNL     1       1.282   8.802  20.221  0.00  0.00    +0.000 A 
ATOM     22  C   UNL     1       1.950   7.593  20.043  0.00  0.00    +0.000 A 
ATOM     23  C   UNL     1       2.505   7.242  18.808  0.00  0.00    +0.000 A 
ATOM     24  C   UNL     1       2.361   8.165  17.756  0.00  0.00    +0.000 A 
ATOM     25  C   UNL     1       1.686   9.388  17.935  0.00  0.00    +0.000 A 
BRANCH  23  26
ATOM     26  C   UNL     1       3.217   5.964  18.640  0.00  0.00    +0.000 A 
ATOM     27  C   UNL     1       3.351   5.029  19.674  0.00  0.00    +0.000 A 
ATOM     28  N   UNL     1       4.039   3.868  19.556  0.00  0.00    +0.000 NA
ATOM     29  C   UNL     1       4.601   3.667  18.340  0.00  0.00    +0.000 A 
ATOM     30  C   UNL     1       4.468   4.579  17.308  0.00  0.00    +0.000 A 
ATOM     31 CL   UNL     1       5.186   4.311  15.778  0.00  0.00    +0.000 Cl
ATOM     32  N   UNL     1       3.776   5.734  17.424  0.00  0.00    +0.000 NA
ENDBRANCH  23  26
ENDBRANCH  18  20
ENDBRANCH   1  16
BRANCH   1  34
ATOM     33  C   UNL     1      -0.423  15.110  19.085  0.00  0.00    +0.000 C 
ATOM     34  C   UNL     1      -0.049  13.628  19.133  0.00  0.00    +0.000 C 
ENDBRANCH   1  34
TORSDOF 7
ENDMDL
MODEL 9
REMARK VINA RESULT:      -8.2      5.414      8.119
REMARK  Name = 
REMARK  8 active torsions:
REMARK  status: ('A' for Active; 'I' for Inactive)
REMARK    1  A    between atoms: C_1  and  C_2
REMARK    2  A    between atoms: C_2  and  C_3
REMARK    3  A    between atoms: C_3  and  C_4
REMARK    4  A    between atoms: C_3  and  C_20
REMARK    5  A    between atoms: N_6  and  C_7
REMARK    6  A    between atoms: C_10  and  C_11
REMARK    7  A    between atoms: N_25  and  S_26
REMARK    8  A    between atoms: S_26  and  C_29
REMARK                            x       y       z     vdW  Elec       q    Type
REMARK                         _______ _______ _______ _____ _____    ______ ____
ROOT
ATOM      1  C   UNL     1       6.904   5.757  17.050  0.00  0.00    +0.000 C 
ENDROOT
BRANCH   1   2
ATOM      2  C   UNL     1       5.403   5.773  17.282  0.00  0.00    +0.000 A 
ATOM      3  C   UNL     1       4.717   6.954  17.534  0.00  0.00    +0.000 A 
ATOM      4  C   UNL     1       3.373   6.839  17.826  0.00  0.00    +0.000 A 
ATOM      5  N   UNL     1       2.721   5.668  17.883  0.00  0.00    +0.000 NA
ATOM      6  C   UNL     1       3.474   4.600  17.624  0.00  0.00    +0.000 A 
ATOM      7  N   UNL     1       2.796   3.390  17.695  0.00  0.00    +0.000 N 
ATOM      8  N   UNL     1       4.778   4.579  17.329  0.00  0.00    +0.000 NA
ATOM      9  H   UNL     1       1.802   3.532  17.549  0.00  0.00    +0.000 HD
BRANCH   7  10
ATOM     10  S   UNL     1       3.078   2.515  19.092  0.00  0.00    +0.000 S 
ATOM     11  O   UNL     1       3.447   1.192  18.644  0.00  0.00    +0.000 OA
ATOM     12  O   UNL     1       3.950   3.262  19.976  0.00  0.00    +0.000 OA
BRANCH  10  13
ATOM     13  C   UNL     1       1.518   2.344  20.032  0.00  0.00    +0.000 C 
ATOM     14  C   UNL     1       1.535   2.682  21.497  0.00  0.00    +0.000 C 
ATOM     15  C   UNL     1       0.973   3.671  20.515  0.00  0.00    +0.000 C 
ENDBRANCH  10  13
ENDBRANCH   7  10
ENDBRANCH   1   2
BRANCH   1  16
ATOM     16  C   UNL     1       7.526   6.877  17.881  0.00  0.00    +0.000 C 
ATOM     17  O   UNL     1       8.022   6.620  18.981  0.00  0.00    +0.000 OA
ATOM     18  N   UNL     1       7.519   8.127  17.272  0.00  0.00    +0.000 N 
ATOM     19  H   UNL     1       7.027   8.225  16.390  0.00  0.00    +0.000 HD
BRANCH  18  20
ATOM     20  C   UNL     1       8.097   9.293  17.822  0.00  0.00    +0.000 A 
ATOM     21  C   UNL     1       7.869  10.567  17.298  0.00  0.00    +0.000 A 
ATOM     22  C   UNL     1       8.491  11.694  17.831  0.00  0.00    +0.000 A 
ATOM     23  C   UNL     1       9.353  11.599  18.929  0.00  0.00    +0.000 A 
ATOM     24  C   UNL     1       9.566  10.316  19.467  0.00  0.00    +0.000 A 
ATOM     25  C   UNL     1       8.938   9.177  18.927  0.00  0.00    +0.000 A 
BRANCH  23  26
ATOM     26  C   UNL     1      10.010  12.798  19.474  0.00  0.00    +0.000 A 
ATOM     27  C   UNL     1      11.088  13.428  18.839  0.00  0.00    +0.000 A 
ATOM     28  N   UNL     1      11.737  14.505  19.344  0.00  0.00    +0.000 NA
ATOM     29  C   UNL     1      11.259  14.943  20.533  0.00  0.00    +0.000 A 
ATOM     30  C   UNL     1      10.188  14.336  21.166  0.00  0.00    +0.000 A 
ATOM     31 CL   UNL     1       9.598  14.901  22.670  0.00  0.00    +0.000 Cl
ATOM     32  N   UNL     1       9.537  13.266  20.658  0.00  0.00    +0.000 NA
ENDBRANCH  23  26
ENDBRANCH  18  20
ENDBRANCH   1  16
BRANCH   1  34
ATOM     33  C   UNL     1       6.916   4.696  14.690  0.00  0.00    +0.000 C 
ATOM     34  C   UNL     1       7.254   5.916  15.548  0.00  0.00    +0.000 C 
ENDBRANCH   1  34
TORSDOF 7
ENDMDL
