MODEL 1
REMARK VINA RESULT:      -7.7      0.000      0.000
REMARK  Name = 
REMARK  9 active torsions:
REMARK  status: ('A' for Active; 'I' for Inactive)
REMARK    1  A    between atoms: C_1  and  C_2
REMARK    2  A    between atoms: C_2  and  C_3
REMARK    3  A    between atoms: C_2  and  C_4
REMARK    4  A    between atoms: C_4  and  C_5
REMARK    5  A    between atoms: C_14  and  C_16
REMARK    6  A    between atoms: C_16  and  C_17
REMARK    7  A    between atoms: C_17  and  C_18
REMARK    8  A    between atoms: C_24  and  N_25
REMARK    9  A    between atoms: N_25  and  C_26
REMARK                            x       y       z     vdW  Elec       q    Type
REMARK                         _______ _______ _______ _____ _____    ______ ____
ROOT
ATOM      1  C   UNL     1       2.438   5.249  18.992  0.00  0.00    +0.000 C 
ATOM      2  C   UNL     1       2.910   5.887  20.338  0.00  0.00    +0.000 C 
ATOM      3  C   UNL     1       1.901   6.974  20.663  0.00  0.00    +0.000 C 
ATOM      4  C   UNL     1       1.399   7.479  19.308  0.00  0.00    +0.000 C 
ATOM      5  C   UNL     1       2.022   6.546  18.261  0.00  0.00    +0.000 C 
ENDROOT
BRANCH   1   6
ATOM      6  C   UNL     1       3.692   4.584  18.367  0.00  0.00    +0.000 C 
ATOM      7  O   UNL     1       3.846   3.362  18.468  0.00  0.00    +0.000 OA
ATOM      8  N   UNL     1       4.617   5.306  17.657  0.00  0.00    +0.000 N 
ATOM      9  C   UNL     1       4.725   6.740  17.343  0.00  0.00    +0.000 C 
ATOM     10  C   UNL     1       6.128   6.818  16.692  0.00  0.00    +0.000 C 
ATOM     11  C   UNL     1       6.173   5.483  15.943  0.00  0.00    +0.000 C 
ATOM     12  C   UNL     1       5.878   4.678  17.211  0.00  0.00    +0.000 C 
ATOM     13  C   UNL     1       7.029   5.167  18.134  0.00  0.00    +0.000 C 
ATOM     14  N   UNL     1       7.129   6.578  17.739  0.00  0.00    +0.000 N 
ATOM     15  C   UNL     1       8.012   7.452  18.311  0.00  0.00    +0.000 C 
ATOM     16  O   UNL     1       8.847   7.085  19.132  0.00  0.00    +0.000 OA
BRANCH  15  17
ATOM     17  C   UNL     1       7.915   8.896  17.861  0.00  0.00    +0.000 C 
BRANCH  17  18
ATOM     18  C   UNL     1       8.857   9.812  18.637  0.00  0.00    +0.000 C 
BRANCH  18  19
ATOM     19  C   UNL     1       8.925  11.223  18.082  0.00  0.00    +0.000 C 
ATOM     20  F   UNL     1      10.072  11.471  17.415  0.00  0.00    +0.000 F 
ATOM     21  F   UNL     1       7.884  11.489  17.267  0.00  0.00    +0.000 F 
ATOM     22  F   UNL     1       8.866  12.113  19.103  0.00  0.00    +0.000 F 
ENDBRANCH  18  19
ENDBRANCH  17  18
ENDBRANCH  15  17
ENDBRANCH   1   6
BRANCH   1  24
ATOM     23  C   UNL     1       1.304   3.558  20.618  0.00  0.00    +0.000 C 
ATOM     24  C   UNL     1       1.250   4.250  19.246  0.00  0.00    +0.000 C 
ATOM     25  C   UNL     1       1.069   3.152  18.196  0.00  0.00    +0.000 C 
ENDBRANCH   1  24
BRANCH   4  26
ATOM     26  N   UNL     1       1.758   8.885  19.134  0.00  0.00    +0.000 NA
ATOM     27  H   UNL     1       2.392   9.157  19.886  0.00  0.00    +0.000 HD
BRANCH  26  28
ATOM     28  C   UNL     1       0.646   9.855  19.007  0.00  0.00    +0.000 C 
ATOM     29  C   UNL     1      -0.330   9.866  20.192  0.00  0.00    +0.000 C 
ATOM     30  C   UNL     1       0.368  10.352  21.453  0.00  0.00    +0.000 C 
ATOM     31  O   UNL     1       0.859  11.679  21.278  0.00  0.00    +0.000 OA
ATOM     32  C   UNL     1       1.767  11.819  20.177  0.00  0.00    +0.000 C 
ATOM     33  C   UNL     1       1.201  11.289  18.857  0.00  0.00    +0.000 C 
ATOM     34  F   UNL     1       0.177  12.108  18.468  0.00  0.00    +0.000 F 
ENDBRANCH  26  28
ENDBRANCH   4  26
TORSDOF 7
ENDMDL
MODEL 2
REMARK VINA RESULT:      -7.6      1.020      1.250
REMARK  Name = 
REMARK  9 active torsions:
REMARK  status: ('A' for Active; 'I' for Inactive)
REMARK    1  A    between atoms: C_1  and  C_2
REMARK    2  A    between atoms: C_2  and  C_3
REMARK    3  A    between atoms: C_2  and  C_4
REMARK    4  A    between atoms: C_4  and  C_5
REMARK    5  A    between atoms: C_14  and  C_16
REMARK    6  A    between atoms: C_16  and  C_17
REMARK    7  A    between atoms: C_17  and  C_18
REMARK    8  A    between atoms: C_24  and  N_25
REMARK    9  A    between atoms: N_25  and  C_26
REMARK                            x       y       z     vdW  Elec       q    Type
REMARK                         _______ _______ _______ _____ _____    ______ ____
ROOT
ATOM      1  C   UNL     1       2.857   5.434  18.862  0.00  0.00    +0.000 C 
ATOM      2  C   UNL     1       2.683   5.884  20.348  0.00  0.00    +0.000 C 
ATOM      3  C   UNL     1       1.630   6.977  20.336  0.00  0.00    +0.000 C 
ATOM      4  C   UNL     1       1.776   7.664  18.974  0.00  0.00    +0.000 C 
ATOM      5  C   UNL     1       2.802   6.828  18.196  0.00  0.00    +0.000 C 
ENDROOT
BRANCH   1   6
ATOM      6  C   UNL     1       4.261   4.782  18.770  0.00  0.00    +0.000 C 
ATOM      7  O   UNL     1       4.476   3.714  19.355  0.00  0.00    +0.000 OA
ATOM      8  N   UNL     1       5.266   5.329  18.013  0.00  0.00    +0.000 N 
ATOM      9  C   UNL     1       5.339   6.553  17.200  0.00  0.00    +0.000 C 
ATOM     10  C   UNL     1       6.841   6.599  16.827  0.00  0.00    +0.000 C 
ATOM     11  C   UNL     1       7.143   5.106  16.665  0.00  0.00    +0.000 C 
ATOM     12  C   UNL     1       6.636   4.776  18.071  0.00  0.00    +0.000 C 
ATOM     13  C   UNL     1       7.519   5.728  18.924  0.00  0.00    +0.000 C 
ATOM     14  N   UNL     1       7.603   6.901  18.045  0.00  0.00    +0.000 N 
ATOM     15  C   UNL     1       8.275   8.042  18.385  0.00  0.00    +0.000 C 
ATOM     16  O   UNL     1       8.934   8.123  19.418  0.00  0.00    +0.000 OA
BRANCH  15  17
ATOM     17  C   UNL     1       8.177   9.197  17.409  0.00  0.00    +0.000 C 
BRANCH  17  18
ATOM     18  C   UNL     1       8.177  10.553  18.110  0.00  0.00    +0.000 C 
BRANCH  18  19
ATOM     19  C   UNL     1       9.550  11.198  18.182  0.00  0.00    +0.000 C 
ATOM     20  F   UNL     1       9.528  12.515  17.892  0.00  0.00    +0.000 F 
ATOM     21  F   UNL     1      10.116  11.031  19.394  0.00  0.00    +0.000 F 
ATOM     22  F   UNL     1      10.372  10.612  17.277  0.00  0.00    +0.000 F 
ENDBRANCH  18  19
ENDBRANCH  17  18
ENDBRANCH  15  17
ENDBRANCH   1   6
BRANCH   1  24
ATOM     23  C   UNL     1       1.118   3.638  19.597  0.00  0.00    +0.000 C 
ATOM     24  C   UNL     1       1.684   4.477  18.438  0.00  0.00    +0.000 C 
ATOM     25  C   UNL     1       1.995   3.509  17.294  0.00  0.00    +0.000 C 
ENDBRANCH   1  24
BRANCH   4  26
ATOM     26  N   UNL     1       2.169   9.059  19.159  0.00  0.00    +0.000 NA
ATOM     27  H   UNL     1       2.087   9.295  20.148  0.00  0.00    +0.000 HD
BRANCH  26  28
ATOM     28  C   UNL     1       1.485  10.069  18.319  0.00  0.00    +0.000 C 
ATOM     29  C   UNL     1      -0.041   9.914  18.249  0.00  0.00    +0.000 C 
ATOM     30  C   UNL     1      -0.666  10.164  19.613  0.00  0.00    +0.000 C 
ATOM     31  O   UNL     1      -0.381  11.486  20.063  0.00  0.00    +0.000 OA
ATOM     32  C   UNL     1       1.020  11.779  20.148  0.00  0.00    +0.000 C 
ATOM     33  C   UNL     1       1.776  11.491  18.848  0.00  0.00    +0.000 C 
ATOM     34  F   UNL     1       1.369  12.393  17.904  0.00  0.00    +0.000 F 
ENDBRANCH  26  28
ENDBRANCH   4  26
TORSDOF 7
ENDMDL
MODEL 3
REMARK VINA RESULT:      -7.4      1.595      2.032
REMARK  Name = 
REMARK  9 active torsions:
REMARK  status: ('A' for Active; 'I' for Inactive)
REMARK    1  A    between atoms: C_1  and  C_2
REMARK    2  A    between atoms: C_2  and  C_3
REMARK    3  A    between atoms: C_2  and  C_4
REMARK    4  A    between atoms: C_4  and  C_5
REMARK    5  A    between atoms: C_14  and  C_16
REMARK    6  A    between atoms: C_16  and  C_17
REMARK    7  A    between atoms: C_17  and  C_18
REMARK    8  A    between atoms: C_24  and  N_25
REMARK    9  A    between atoms: N_25  and  C_26
REMARK                            x       y       z     vdW  Elec       q    Type
REMARK                         _______ _______ _______ _____ _____    ______ ____
ROOT
ATOM      1  C   UNL     1       3.210   4.629  19.163  0.00  0.00    +0.000 C 
ATOM      2  C   UNL     1       2.887   4.557  20.689  0.00  0.00    +0.000 C 
ATOM      3  C   UNL     1       1.717   5.498  20.916  0.00  0.00    +0.000 C 
ATOM      4  C   UNL     1       1.874   6.598  19.862  0.00  0.00    +0.000 C 
ATOM      5  C   UNL     1       3.039   6.152  18.967  0.00  0.00    +0.000 C 
ENDROOT
BRANCH   1   6
ATOM      6  C   UNL     1       4.683   4.167  19.011  0.00  0.00    +0.000 C 
ATOM      7  O   UNL     1       5.065   3.150  19.599  0.00  0.00    +0.000 OA
ATOM      8  N   UNL     1       5.569   4.828  18.199  0.00  0.00    +0.000 N 
ATOM      9  C   UNL     1       5.440   6.035  17.367  0.00  0.00    +0.000 C 
ATOM     10  C   UNL     1       6.904   6.272  16.920  0.00  0.00    +0.000 C 
ATOM     11  C   UNL     1       7.394   4.830  16.764  0.00  0.00    +0.000 C 
ATOM     12  C   UNL     1       7.002   4.464  18.197  0.00  0.00    +0.000 C 
ATOM     13  C   UNL     1       7.788   5.541  18.993  0.00  0.00    +0.000 C 
ATOM     14  N   UNL     1       7.673   6.698  18.096  0.00  0.00    +0.000 N 
ATOM     15  C   UNL     1       8.202   7.925  18.387  0.00  0.00    +0.000 C 
ATOM     16  O   UNL     1       8.892   8.113  19.385  0.00  0.00    +0.000 OA
BRANCH  15  17
ATOM     17  C   UNL     1       7.905   9.037  17.401  0.00  0.00    +0.000 C 
BRANCH  17  18
ATOM     18  C   UNL     1       7.883  10.411  18.064  0.00  0.00    +0.000 C 
BRANCH  18  19
ATOM     19  C   UNL     1       9.256  11.048  18.185  0.00  0.00    +0.000 C 
ATOM     20  F   UNL     1       9.759  10.978  19.436  0.00  0.00    +0.000 F 
ATOM     21  F   UNL     1      10.140  10.494  17.331  0.00  0.00    +0.000 F 
ATOM     22  F   UNL     1       9.173  12.364  17.870  0.00  0.00    +0.000 F 
ENDBRANCH  18  19
ENDBRANCH  17  18
ENDBRANCH  15  17
ENDBRANCH   1   6
BRANCH   1  24
ATOM     23  C   UNL     1       2.832   2.584  17.593  0.00  0.00    +0.000 C 
ATOM     24  C   UNL     1       2.186   3.761  18.344  0.00  0.00    +0.000 C 
ATOM     25  C   UNL     1       1.328   4.522  17.331  0.00  0.00    +0.000 C 
ENDBRANCH   1  24
BRANCH   4  26
ATOM     26  N   UNL     1       2.090   7.888  20.514  0.00  0.00    +0.000 NA
ATOM     27  H   UNL     1       3.071   7.958  20.785  0.00  0.00    +0.000 HD
BRANCH  26  28
ATOM     28  C   UNL     1       1.205   8.225  21.652  0.00  0.00    +0.000 C 
ATOM     29  C   UNL     1       1.539   9.550  22.352  0.00  0.00    +0.000 C 
ATOM     30  C   UNL     1       1.303  10.723  21.413  0.00  0.00    +0.000 C 
ATOM     31  O   UNL     1      -0.063  10.775  21.006  0.00  0.00    +0.000 OA
ATOM     32  C   UNL     1      -0.520   9.580  20.359  0.00  0.00    +0.000 C 
ATOM     33  C   UNL     1      -0.263   8.314  21.181  0.00  0.00    +0.000 C 
ATOM     34  F   UNL     1      -1.069   8.347  22.285  0.00  0.00    +0.000 F 
ENDBRANCH  26  28
ENDBRANCH   4  26
TORSDOF 7
ENDMDL
MODEL 4
REMARK VINA RESULT:      -7.4      1.352      1.612
REMARK  Name = 
REMARK  9 active torsions:
REMARK  status: ('A' for Active; 'I' for Inactive)
REMARK    1  A    between atoms: C_1  and  C_2
REMARK    2  A    between atoms: C_2  and  C_3
REMARK    3  A    between atoms: C_2  and  C_4
REMARK    4  A    between atoms: C_4  and  C_5
REMARK    5  A    between atoms: C_14  and  C_16
REMARK    6  A    between atoms: C_16  and  C_17
REMARK    7  A    between atoms: C_17  and  C_18
REMARK    8  A    between atoms: C_24  and  N_25
REMARK    9  A    between atoms: N_25  and  C_26
REMARK                            x       y       z     vdW  Elec       q    Type
REMARK                         _______ _______ _______ _____ _____    ______ ____
ROOT
ATOM      1  C   UNL     1       3.256   4.744  18.954  0.00  0.00    +0.000 C 
ATOM      2  C   UNL     1       2.748   4.456  20.403  0.00  0.00    +0.000 C 
ATOM      3  C   UNL     1       1.545   5.359  20.613  0.00  0.00    +0.000 C 
ATOM      4  C   UNL     1       1.813   6.597  19.753  0.00  0.00    +0.000 C 
ATOM      5  C   UNL     1       3.087   6.281  18.956  0.00  0.00    +0.000 C 
ENDROOT
BRANCH   1   6
ATOM      6  C   UNL     1       4.744   4.306  18.923  0.00  0.00    +0.000 C 
ATOM      7  O   UNL     1       5.098   3.309  19.563  0.00  0.00    +0.000 OA
ATOM      8  N   UNL     1       5.677   4.963  18.162  0.00  0.00    +0.000 N 
ATOM      9  C   UNL     1       5.591   6.148  17.293  0.00  0.00    +0.000 C 
ATOM     10  C   UNL     1       7.080   6.401  16.951  0.00  0.00    +0.000 C 
ATOM     11  C   UNL     1       7.604   4.964  16.867  0.00  0.00    +0.000 C 
ATOM     12  C   UNL     1       7.112   4.624  18.276  0.00  0.00    +0.000 C 
ATOM     13  C   UNL     1       7.820   5.734  19.101  0.00  0.00    +0.000 C 
ATOM     14  N   UNL     1       7.753   6.867  18.169  0.00  0.00    +0.000 N 
ATOM     15  C   UNL     1       8.239   8.110  18.469  0.00  0.00    +0.000 C 
ATOM     16  O   UNL     1       8.849   8.334  19.510  0.00  0.00    +0.000 OA
BRANCH  15  17
ATOM     17  C   UNL     1       7.998   9.193  17.437  0.00  0.00    +0.000 C 
BRANCH  17  18
ATOM     18  C   UNL     1       7.975  10.589  18.052  0.00  0.00    +0.000 C 
BRANCH  18  19
ATOM     19  C   UNL     1       9.338  11.256  18.093  0.00  0.00    +0.000 C 
ATOM     20  F   UNL     1      10.283  10.562  17.426  0.00  0.00    +0.000 F 
ATOM     21  F   UNL     1       9.294  12.511  17.601  0.00  0.00    +0.000 F 
ATOM     22  F   UNL     1       9.757  11.350  19.379  0.00  0.00    +0.000 F 
ENDBRANCH  18  19
ENDBRANCH  17  18
ENDBRANCH  15  17
ENDBRANCH   1   6
BRANCH   1  24
ATOM     23  C   UNL     1       1.511   2.865  18.496  0.00  0.00    +0.000 C 
ATOM     24  C   UNL     1       2.355   4.004  17.899  0.00  0.00    +0.000 C 
ATOM     25  C   UNL     1       3.087   3.431  16.683  0.00  0.00    +0.000 C 
ENDBRANCH   1  24
BRANCH   4  26
ATOM     26  N   UNL     1       1.928   7.780  20.603  0.00  0.00    +0.000 NA
ATOM     27  H   UNL     1       2.517   7.553  21.403  0.00  0.00    +0.000 HD
BRANCH  26  28
ATOM     28  C   UNL     1       0.666   8.418  21.043  0.00  0.00    +0.000 C 
ATOM     29  C   UNL     1       0.730   9.069  22.432  0.00  0.00    +0.000 C 
ATOM     30  C   UNL     1       1.692  10.247  22.425  0.00  0.00    +0.000 C 
ATOM     31  O   UNL     1       1.265  11.241  21.496  0.00  0.00    +0.000 OA
ATOM     32  C   UNL     1       1.134  10.758  20.152  0.00  0.00    +0.000 C 
ATOM     33  C   UNL     1       0.243   9.516  20.043  0.00  0.00    +0.000 C 
ATOM     34  F   UNL     1      -1.043   9.883  20.324  0.00  0.00    +0.000 F 
ENDBRANCH  26  28
ENDBRANCH   4  26
TORSDOF 7
ENDMDL
MODEL 5
REMARK VINA RESULT:      -7.3      3.503      8.088
REMARK  Name = 
REMARK  9 active torsions:
REMARK  status: ('A' for Active; 'I' for Inactive)
REMARK    1  A    between atoms: C_1  and  C_2
REMARK    2  A    between atoms: C_2  and  C_3
REMARK    3  A    between atoms: C_2  and  C_4
REMARK    4  A    between atoms: C_4  and  C_5
REMARK    5  A    between atoms: C_14  and  C_16
REMARK    6  A    between atoms: C_16  and  C_17
REMARK    7  A    between atoms: C_17  and  C_18
REMARK    8  A    between atoms: C_24  and  N_25
REMARK    9  A    between atoms: N_25  and  C_26
REMARK                            x       y       z     vdW  Elec       q    Type
REMARK                         _______ _______ _______ _____ _____    ______ ____
ROOT
ATOM      1  C   UNL     1       2.227   5.472  19.742  0.00  0.00    +0.000 C 
ATOM      2  C   UNL     1       1.875   5.497  18.220  0.00  0.00    +0.000 C 
ATOM      3  C   UNL     1       2.534   4.270  17.616  0.00  0.00    +0.000 C 
ATOM      4  C   UNL     1       3.784   4.023  18.466  0.00  0.00    +0.000 C 
ATOM      5  C   UNL     1       3.702   5.026  19.625  0.00  0.00    +0.000 C 
ENDROOT
BRANCH   1   6
ATOM      6  C   UNL     1       2.081   6.933  20.242  0.00  0.00    +0.000 C 
ATOM      7  O   UNL     1       2.296   7.193  21.431  0.00  0.00    +0.000 OA
ATOM      8  N   UNL     1       1.766   7.963  19.392  0.00  0.00    +0.000 N 
ATOM      9  C   UNL     1       1.467   8.001  17.951  0.00  0.00    +0.000 C 
ATOM     10  C   UNL     1       1.010   9.469  17.760  0.00  0.00    +0.000 C 
ATOM     11  C   UNL     1       1.931  10.188  18.751  0.00  0.00    +0.000 C 
ATOM     12  C   UNL     1       1.477   9.312  19.921  0.00  0.00    +0.000 C 
ATOM     13  C   UNL     1      -0.059   9.545  19.874  0.00  0.00    +0.000 C 
ATOM     14  N   UNL     1      -0.288   9.630  18.426  0.00  0.00    +0.000 N 
ATOM     15  C   UNL     1      -1.527   9.810  17.876  0.00  0.00    +0.000 C 
ATOM     16  O   UNL     1      -2.522  10.005  18.569  0.00  0.00    +0.000 OA
BRANCH  15  17
ATOM     17  C   UNL     1      -1.604   9.773  16.363  0.00  0.00    +0.000 C 
BRANCH  17  18
ATOM     18  C   UNL     1      -2.992   9.389  15.860  0.00  0.00    +0.000 C 
BRANCH  18  19
ATOM     19  C   UNL     1      -3.398  10.115  14.589  0.00  0.00    +0.000 C 
ATOM     20  F   UNL     1      -4.601   9.721  14.120  0.00  0.00    +0.000 F 
ATOM     21  F   UNL     1      -3.417  11.452  14.763  0.00  0.00    +0.000 F 
ATOM     22  F   UNL     1      -2.494   9.855  13.612  0.00  0.00    +0.000 F 
ENDBRANCH  18  19
ENDBRANCH  17  18
ENDBRANCH  15  17
ENDBRANCH   1   6
BRANCH   1  24
ATOM     23  C   UNL     1       2.022   3.701  21.641  0.00  0.00    +0.000 C 
ATOM     24  C   UNL     1       1.308   4.447  20.501  0.00  0.00    +0.000 C 
ATOM     25  C   UNL     1       0.628   3.390  19.629  0.00  0.00    +0.000 C 
ENDBRANCH   1  24
BRANCH   4  26
ATOM     26  N   UNL     1       4.983   4.168  17.643  0.00  0.00    +0.000 NA
ATOM     27  H   UNL     1       5.749   4.491  18.233  0.00  0.00    +0.000 HD
BRANCH  26  28
ATOM     28  C   UNL     1       4.869   5.005  16.426  0.00  0.00    +0.000 C 
ATOM     29  C   UNL     1       5.279   6.472  16.618  0.00  0.00    +0.000 C 
ATOM     30  C   UNL     1       6.764   6.573  16.931  0.00  0.00    +0.000 C 
ATOM     31  O   UNL     1       7.541   6.038  15.862  0.00  0.00    +0.000 OA
ATOM     32  C   UNL     1       7.238   4.671  15.554  0.00  0.00    +0.000 C 
ATOM     33  C   UNL     1       5.748   4.428  15.295  0.00  0.00    +0.000 C 
ATOM     34  F   UNL     1       5.408   5.050  14.126  0.00  0.00    +0.000 F 
ENDBRANCH  26  28
ENDBRANCH   4  26
TORSDOF 7
ENDMDL
MODEL 6
REMARK VINA RESULT:      -7.3      0.913      1.496
REMARK  Name = 
REMARK  9 active torsions:
REMARK  status: ('A' for Active; 'I' for Inactive)
REMARK    1  A    between atoms: C_1  and  C_2
REMARK    2  A    between atoms: C_2  and  C_3
REMARK    3  A    between atoms: C_2  and  C_4
REMARK    4  A    between atoms: C_4  and  C_5
REMARK    5  A    between atoms: C_14  and  C_16
REMARK    6  A    between atoms: C_16  and  C_17
REMARK    7  A    between atoms: C_17  and  C_18
REMARK    8  A    between atoms: C_24  and  N_25
REMARK    9  A    between atoms: N_25  and  C_26
REMARK                            x       y       z     vdW  Elec       q    Type
REMARK                         _______ _______ _______ _____ _____    ______ ____
ROOT
ATOM      1  C   UNL     1       2.336   5.187  19.069  0.00  0.00    +0.000 C 
ATOM      2  C   UNL     1       2.919   5.886  20.338  0.00  0.00    +0.000 C 
ATOM      3  C   UNL     1       1.925   6.971  20.713  0.00  0.00    +0.000 C 
ATOM      4  C   UNL     1       1.291   7.413  19.391  0.00  0.00    +0.000 C 
ATOM      5  C   UNL     1       1.832   6.446  18.328  0.00  0.00    +0.000 C 
ENDROOT
BRANCH   1   6
ATOM      6  C   UNL     1       3.539   4.514  18.357  0.00  0.00    +0.000 C 
ATOM      7  O   UNL     1       3.658   3.284  18.393  0.00  0.00    +0.000 OA
ATOM      8  N   UNL     1       4.455   5.241  17.639  0.00  0.00    +0.000 N 
ATOM      9  C   UNL     1       4.596   6.684  17.388  0.00  0.00    +0.000 C 
ATOM     10  C   UNL     1       5.971   6.750  16.677  0.00  0.00    +0.000 C 
ATOM     11  C   UNL     1       5.938   5.452  15.866  0.00  0.00    +0.000 C 
ATOM     12  C   UNL     1       5.674   4.597  17.107  0.00  0.00    +0.000 C 
ATOM     13  C   UNL     1       6.880   5.005  17.998  0.00  0.00    +0.000 C 
ATOM     14  N   UNL     1       7.008   6.430  17.665  0.00  0.00    +0.000 N 
ATOM     15  C   UNL     1       7.944   7.248  18.235  0.00  0.00    +0.000 C 
ATOM     16  O   UNL     1       8.802   6.817  19.000  0.00  0.00    +0.000 OA
BRANCH  15  17
ATOM     17  C   UNL     1       7.874   8.714  17.859  0.00  0.00    +0.000 C 
BRANCH  17  18
ATOM     18  C   UNL     1       8.718   9.592  18.778  0.00  0.00    +0.000 C 
BRANCH  18  19
ATOM     19  C   UNL     1       9.022  10.962  18.198  0.00  0.00    +0.000 C 
ATOM     20  F   UNL     1       8.047  11.414  17.381  0.00  0.00    +0.000 F 
ATOM     21  F   UNL     1       9.237  11.877  19.164  0.00  0.00    +0.000 F 
ATOM     22  F   UNL     1      10.155  10.897  17.455  0.00  0.00    +0.000 F 
ENDBRANCH  18  19
ENDBRANCH  17  18
ENDBRANCH  15  17
ENDBRANCH   1   6
BRANCH   1  24
ATOM     23  C   UNL     1       1.425   3.493  20.826  0.00  0.00    +0.000 C 
ATOM     24  C   UNL     1       1.195   4.182  19.471  0.00  0.00    +0.000 C 
ATOM     25  C   UNL     1       0.888   3.082  18.453  0.00  0.00    +0.000 C 
ENDBRANCH   1  24
BRANCH   4  26
ATOM     26  N   UNL     1       1.608   8.816  19.129  0.00  0.00    +0.000 NA
ATOM     27  H   UNL     1       2.618   8.910  19.024  0.00  0.00    +0.000 HD
BRANCH  26  28
ATOM     28  C   UNL     1       1.084   9.815  20.087  0.00  0.00    +0.000 C 
ATOM     29  C   UNL     1       1.480  11.266  19.778  0.00  0.00    +0.000 C 
ATOM     30  C   UNL     1       0.852  11.724  18.471  0.00  0.00    +0.000 C 
ATOM     31  O   UNL     1      -0.571  11.666  18.548  0.00  0.00    +0.000 OA
ATOM     32  C   UNL     1      -1.081  10.363  18.862  0.00  0.00    +0.000 C 
ATOM     33  C   UNL     1      -0.459   9.762  20.126  0.00  0.00    +0.000 C 
ATOM     34  F   UNL     1      -0.889  10.485  21.203  0.00  0.00    +0.000 F 
ENDBRANCH  26  28
ENDBRANCH   4  26
TORSDOF 7
ENDMDL
MODEL 7
REMARK VINA RESULT:      -7.3      0.928      1.016
REMARK  Name = 
REMARK  9 active torsions:
REMARK  status: ('A' for Active; 'I' for Inactive)
REMARK    1  A    between atoms: C_1  and  C_2
REMARK    2  A    between atoms: C_2  and  C_3
REMARK    3  A    between atoms: C_2  and  C_4
REMARK    4  A    between atoms: C_4  and  C_5
REMARK    5  A    between atoms: C_14  and  C_16
REMARK    6  A    between atoms: C_16  and  C_17
REMARK    7  A    between atoms: C_17  and  C_18
REMARK    8  A    between atoms: C_24  and  N_25
REMARK    9  A    between atoms: N_25  and  C_26
REMARK                            x       y       z     vdW  Elec       q    Type
REMARK                         _______ _______ _______ _____ _____    ______ ____
ROOT
ATOM      1  C   UNL     1       2.541   5.078  18.967  0.00  0.00    +0.000 C 
ATOM      2  C   UNL     1       2.933   5.548  20.404  0.00  0.00    +0.000 C 
ATOM      3  C   UNL     1       1.932   6.626  20.781  0.00  0.00    +0.000 C 
ATOM      4  C   UNL     1       1.540   7.294  19.460  0.00  0.00    +0.000 C 
ATOM      5  C   UNL     1       2.211   6.461  18.359  0.00  0.00    +0.000 C 
ENDROOT
BRANCH   1   6
ATOM      6  C   UNL     1       3.818   4.445  18.356  0.00  0.00    +0.000 C 
ATOM      7  O   UNL     1       4.006   3.228  18.467  0.00  0.00    +0.000 OA
ATOM      8  N   UNL     1       4.728   5.188  17.649  0.00  0.00    +0.000 N 
ATOM      9  C   UNL     1       4.799   6.622  17.325  0.00  0.00    +0.000 C 
ATOM     10  C   UNL     1       6.205   6.735  16.685  0.00  0.00    +0.000 C 
ATOM     11  C   UNL     1       6.293   5.397  15.946  0.00  0.00    +0.000 C 
ATOM     12  C   UNL     1       6.011   4.592  17.217  0.00  0.00    +0.000 C 
ATOM     13  C   UNL     1       7.140   5.120  18.146  0.00  0.00    +0.000 C 
ATOM     14  N   UNL     1       7.203   6.531  17.742  0.00  0.00    +0.000 N 
ATOM     15  C   UNL     1       8.056   7.433  18.314  0.00  0.00    +0.000 C 
ATOM     16  O   UNL     1       8.895   7.096  19.145  0.00  0.00    +0.000 OA
BRANCH  15  17
ATOM     17  C   UNL     1       7.922   8.871  17.854  0.00  0.00    +0.000 C 
BRANCH  17  18
ATOM     18  C   UNL     1       8.599   9.852  18.807  0.00  0.00    +0.000 C 
BRANCH  18  19
ATOM     19  C   UNL     1       9.196  11.061  18.108  0.00  0.00    +0.000 C 
ATOM     20  F   UNL     1      10.278  10.756  17.363  0.00  0.00    +0.000 F 
ATOM     21  F   UNL     1       8.291  11.681  17.324  0.00  0.00    +0.000 F 
ATOM     22  F   UNL     1       9.601  11.964  19.035  0.00  0.00    +0.000 F 
ENDBRANCH  18  19
ENDBRANCH  17  18
ENDBRANCH  15  17
ENDBRANCH   1   6
BRANCH   1  24
ATOM     23  C   UNL     1       1.162   3.374  20.374  0.00  0.00    +0.000 C 
ATOM     24  C   UNL     1       1.313   4.098  19.026  0.00  0.00    +0.000 C 
ATOM     25  C   UNL     1       1.262   3.028  17.933  0.00  0.00    +0.000 C 
ENDBRANCH   1  24
BRANCH   4  26
ATOM     26  N   UNL     1       1.948   8.698  19.470  0.00  0.00    +0.000 NA
ATOM     27  H   UNL     1       1.510   9.161  20.267  0.00  0.00    +0.000 HD
BRANCH  26  28
ATOM     28  C   UNL     1       1.728   9.472  18.227  0.00  0.00    +0.000 C 
ATOM     29  C   UNL     1       0.262   9.561  17.780  0.00  0.00    +0.000 C 
ATOM     30  C   UNL     1      -0.556  10.350  18.790  0.00  0.00    +0.000 C 
ATOM     31  O   UNL     1      -0.056  11.679  18.916  0.00  0.00    +0.000 OA
ATOM     32  C   UNL     1       1.323  11.744  19.304  0.00  0.00    +0.000 C 
ATOM     33  C   UNL     1       2.242  10.918  18.399  0.00  0.00    +0.000 C 
ATOM     34  F   UNL     1       2.281  11.511  17.168  0.00  0.00    +0.000 F 
ENDBRANCH  26  28
ENDBRANCH   4  26
TORSDOF 7
ENDMDL
MODEL 8
REMARK VINA RESULT:      -7.2      1.145      1.417
REMARK  Name = 
REMARK  9 active torsions:
REMARK  status: ('A' for Active; 'I' for Inactive)
REMARK    1  A    between atoms: C_1  and  C_2
REMARK    2  A    between atoms: C_2  and  C_3
REMARK    3  A    between atoms: C_2  and  C_4
REMARK    4  A    between atoms: C_4  and  C_5
REMARK    5  A    between atoms: C_14  and  C_16
REMARK    6  A    between atoms: C_16  and  C_17
REMARK    7  A    between atoms: C_17  and  C_18
REMARK    8  A    between atoms: C_24  and  N_25
REMARK    9  A    between atoms: N_25  and  C_26
REMARK                            x       y       z     vdW  Elec       q    Type
REMARK                         _______ _______ _______ _____ _____    ______ ____
ROOT
ATOM      1  C   UNL     1       3.206   4.920  18.976  0.00  0.00    +0.000 C 
ATOM      2  C   UNL     1       2.829   5.121  20.479  0.00  0.00    +0.000 C 
ATOM      3  C   UNL     1       1.647   6.073  20.491  0.00  0.00    +0.000 C 
ATOM      4  C   UNL     1       1.833   6.967  19.262  0.00  0.00    +0.000 C 
ATOM      5  C   UNL     1       3.032   6.382  18.502  0.00  0.00    +0.000 C 
ENDROOT
BRANCH   1   6
ATOM      6  C   UNL     1       4.687   4.458  18.960  0.00  0.00    +0.000 C 
ATOM      7  O   UNL     1       5.024   3.473  19.627  0.00  0.00    +0.000 OA
ATOM      8  N   UNL     1       5.632   5.081  18.185  0.00  0.00    +0.000 N 
ATOM      9  C   UNL     1       5.566   6.243  17.285  0.00  0.00    +0.000 C 
ATOM     10  C   UNL     1       7.059   6.463  16.939  0.00  0.00    +0.000 C 
ATOM     11  C   UNL     1       7.561   5.017  16.894  0.00  0.00    +0.000 C 
ATOM     12  C   UNL     1       7.061   4.722  18.311  0.00  0.00    +0.000 C 
ATOM     13  C   UNL     1       7.784   5.842  19.108  0.00  0.00    +0.000 C 
ATOM     14  N   UNL     1       7.737   6.951  18.146  0.00  0.00    +0.000 N 
ATOM     15  C   UNL     1       8.242   8.193  18.414  0.00  0.00    +0.000 C 
ATOM     16  O   UNL     1       8.854   8.435  19.451  0.00  0.00    +0.000 OA
BRANCH  15  17
ATOM     17  C   UNL     1       8.021   9.253  17.353  0.00  0.00    +0.000 C 
BRANCH  17  18
ATOM     18  C   UNL     1       7.852  10.647  17.950  0.00  0.00    +0.000 C 
BRANCH  18  19
ATOM     19  C   UNL     1       9.148  11.436  18.021  0.00  0.00    +0.000 C 
ATOM     20  F   UNL     1       9.454  11.830  19.275  0.00  0.00    +0.000 F 
ATOM     21  F   UNL     1      10.186  10.737  17.521  0.00  0.00    +0.000 F 
ATOM     22  F   UNL     1       9.032  12.563  17.275  0.00  0.00    +0.000 F 
ENDBRANCH  18  19
ENDBRANCH  17  18
ENDBRANCH  15  17
ENDBRANCH   1   6
BRANCH   1  24
ATOM     23  C   UNL     1       1.719   2.797  19.235  0.00  0.00    +0.000 C 
ATOM     24  C   UNL     1       2.218   3.906  18.293  0.00  0.00    +0.000 C 
ATOM     25  C   UNL     1       2.737   3.220  17.027  0.00  0.00    +0.000 C 
ENDBRANCH   1  24
BRANCH   4  26
ATOM     26  N   UNL     1       2.018   8.356  19.677  0.00  0.00    +0.000 NA
ATOM     27  H   UNL     1       2.445   8.367  20.603  0.00  0.00    +0.000 HD
BRANCH  26  28
ATOM     28  C   UNL     1       0.828   9.236  19.635  0.00  0.00    +0.000 C 
ATOM     29  C   UNL     1       0.732  10.237  20.796  0.00  0.00    +0.000 C 
ATOM     30  C   UNL     1       1.870  11.243  20.727  0.00  0.00    +0.000 C 
ATOM     31  O   UNL     1       1.817  11.981  19.508  0.00  0.00    +0.000 OA
ATOM     32  C   UNL     1       1.869  11.161  18.333  0.00  0.00    +0.000 C 
ATOM     33  C   UNL     1       0.812  10.053  18.325  0.00  0.00    +0.000 C 
ATOM     34  F   UNL     1      -0.419  10.633  18.194  0.00  0.00    +0.000 F 
ENDBRANCH  26  28
ENDBRANCH   4  26
TORSDOF 7
ENDMDL
MODEL 9
REMARK VINA RESULT:      -7.1      7.803     11.654
REMARK  Name = 
REMARK  9 active torsions:
REMARK  status: ('A' for Active; 'I' for Inactive)
REMARK    1  A    between atoms: C_1  and  C_2
REMARK    2  A    between atoms: C_2  and  C_3
REMARK    3  A    between atoms: C_2  and  C_4
REMARK    4  A    between atoms: C_4  and  C_5
REMARK    5  A    between atoms: C_14  and  C_16
REMARK    6  A    between atoms: C_16  and  C_17
REMARK    7  A    between atoms: C_17  and  C_18
REMARK    8  A    between atoms: C_24  and  N_25
REMARK    9  A    between atoms: N_25  and  C_26
REMARK                            x       y       z     vdW  Elec       q    Type
REMARK                         _______ _______ _______ _____ _____    ______ ____
ROOT
ATOM      1  C   UNL     1      -0.206  13.608  20.728  0.00  0.00    +0.000 C 
ATOM      2  C   UNL     1       0.643  12.424  20.164  0.00  0.00    +0.000 C 
ATOM      3  C   UNL     1       0.697  12.625  18.660  0.00  0.00    +0.000 C 
ATOM      4  C   UNL     1      -0.617  13.324  18.299  0.00  0.00    +0.000 C 
ATOM      5  C   UNL     1      -1.300  13.642  19.636  0.00  0.00    +0.000 C 
ENDROOT
BRANCH   1   6
ATOM      6  C   UNL     1      -0.747  13.135  22.103  0.00  0.00    +0.000 C 
ATOM      7  O   UNL     1      -0.178  12.211  22.695  0.00  0.00    +0.000 OA
ATOM      8  N   UNL     1      -1.813  13.747  22.711  0.00  0.00    +0.000 N 
ATOM      9  C   UNL     1      -2.687  14.857  22.298  0.00  0.00    +0.000 C 
ATOM     10  C   UNL     1      -3.773  14.835  23.401  0.00  0.00    +0.000 C 
ATOM     11  C   UNL     1      -2.937  14.439  24.622  0.00  0.00    +0.000 C 
ATOM     12  C   UNL     1      -2.406  13.176  23.940  0.00  0.00    +0.000 C 
ATOM     13  C   UNL     1      -3.739  12.471  23.566  0.00  0.00    +0.000 C 
ATOM     14  N   UNL     1      -4.581  13.623  23.218  0.00  0.00    +0.000 N 
ATOM     15  C   UNL     1      -5.874  13.500  22.790  0.00  0.00    +0.000 C 
ATOM     16  O   UNL     1      -6.445  12.413  22.757  0.00  0.00    +0.000 OA
BRANCH  15  17
ATOM     17  C   UNL     1      -6.570  14.780  22.374  0.00  0.00    +0.000 C 
BRANCH  17  18
ATOM     18  C   UNL     1      -7.084  14.724  20.939  0.00  0.00    +0.000 C 
BRANCH  18  19
ATOM     19  C   UNL     1      -6.003  14.958  19.898  0.00  0.00    +0.000 C 
ATOM     20  F   UNL     1      -5.107  15.894  20.273  0.00  0.00    +0.000 F 
ATOM     21  F   UNL     1      -5.343  13.821  19.600  0.00  0.00    +0.000 F 
ATOM     22  F   UNL     1      -6.571  15.399  18.748  0.00  0.00    +0.000 F 
ENDBRANCH  18  19
ENDBRANCH  17  18
ENDBRANCH  15  17
ENDBRANCH   1   6
BRANCH   1  24
ATOM     23  C   UNL     1       1.198  15.225  22.213  0.00  0.00    +0.000 C 
ATOM     24  C   UNL     1       0.661  14.917  20.805  0.00  0.00    +0.000 C 
ATOM     25  C   UNL     1      -0.013  16.193  20.293  0.00  0.00    +0.000 C 
ENDBRANCH   1  24
BRANCH   4  26
ATOM     26  N   UNL     1      -1.412  12.469  17.419  0.00  0.00    +0.000 NA
ATOM     27  H   UNL     1      -1.984  13.060  16.816  0.00  0.00    +0.000 HD
BRANCH  26  28
ATOM     28  C   UNL     1      -2.236  11.420  18.062  0.00  0.00    +0.000 C 
ATOM     29  C   UNL     1      -3.750  11.664  17.991  0.00  0.00    +0.000 C 
ATOM     30  C   UNL     1      -4.232  11.602  16.550  0.00  0.00    +0.000 C 
ATOM     31  O   UNL     1      -3.969  10.320  15.985  0.00  0.00    +0.000 OA
ATOM     32  C   UNL     1      -2.584   9.950  16.013  0.00  0.00    +0.000 C 
ATOM     33  C   UNL     1      -1.962  10.048  17.409  0.00  0.00    +0.000 C 
ATOM     34  F   UNL     1      -2.517   9.077  18.196  0.00  0.00    +0.000 F 
ENDBRANCH  26  28
ENDBRANCH   4  26
TORSDOF 7
ENDMDL
