MODEL 1
REMARK VINA RESULT:      -8.1      0.000      0.000
REMARK  Name = 
REMARK  12 active torsions:
REMARK  status: ('A' for Active; 'I' for Inactive)
REMARK    1  A    between atoms: C_1  and  O_2
REMARK    2  A    between atoms: O_2  and  C_3
REMARK    3  A    between atoms: C_3  and  C_5
REMARK    4  A    between atoms: C_5  and  C_6
REMARK    5  A    between atoms: C_5  and  N_7
REMARK    6  A    between atoms: N_7  and  P_8
REMARK    7  A    between atoms: P_8  and  O_10
REMARK    8  A    between atoms: P_8  and  O_27
REMARK    9  A    between atoms: O_10  and  C_11
REMARK   10  A    between atoms: C_11  and  C_12
REMARK   11  A    between atoms: C_14  and  N_15
REMARK   12  A    between atoms: O_27  and  C_28
REMARK                            x       y       z     vdW  Elec       q    Type
REMARK                         _______ _______ _______ _____ _____    ______ ____
ROOT
ATOM      1  O   UNL     1       3.223   8.105  17.780  0.00  0.00    +0.000 OA
ENDROOT
BRANCH   1   2
ATOM      2  P   UNL     1       3.538   6.421  17.812  0.00  0.00    +0.000 P 
ATOM      3  O   UNL     1       4.717   6.076  18.726  0.00  0.00    +0.000 OA
BRANCH   2   4
ATOM      4  N   UNL     1       4.801   6.692  16.588  0.00  0.00    +0.000 NA
ATOM      5  H   UNL     1       4.449   7.378  15.936  0.00  0.00    +0.000 HD
BRANCH   4   6
ATOM      6  C   UNL     1       5.650   5.689  15.961  0.00  0.00    +0.000 C 
ATOM      7  C   UNL     1       5.054   4.292  15.922  0.00  0.00    +0.000 C 
BRANCH   6   8
ATOM      8  C   UNL     1       7.085   5.649  16.477  0.00  0.00    +0.000 C 
ATOM      9  O   UNL     1       7.636   4.601  16.802  0.00  0.00    +0.000 OA
BRANCH   8  11
ATOM     10  C   UNL     1       7.840   7.322  17.915  0.00  0.00    +0.000 C 
ATOM     11  O   UNL     1       7.667   6.879  16.568  0.00  0.00    +0.000 OA
ENDBRANCH   8  11
ENDBRANCH   6   8
ENDBRANCH   4   6
ENDBRANCH   2   4
BRANCH   2  12
ATOM     12  O   UNL     1       2.311   6.158  19.003  0.00  0.00    +0.000 OA
BRANCH  12  13
ATOM     13  C   UNL     1       1.754   4.890  19.302  0.00  0.00    +0.000 A 
ATOM     14  C   UNL     1       1.444   3.870  18.385  0.00  0.00    +0.000 A 
ATOM     15  C   UNL     1       1.398   2.518  18.737  0.00  0.00    +0.000 A 
ATOM     16  C   UNL     1       1.342   2.182  20.071  0.00  0.00    +0.000 A 
ATOM     17  C   UNL     1       1.313   3.209  21.010  0.00  0.00    +0.000 A 
ATOM     18  C   UNL     1       1.569   4.552  20.640  0.00  0.00    +0.000 A 
ENDBRANCH  12  13
ENDBRANCH   2  12
ENDBRANCH   1   2
BRANCH   1  19
ATOM     19  C   UNL     1       1.864   8.513  17.900  0.00  0.00    +0.000 C 
BRANCH  19  20
ATOM     20  C   UNL     1       1.321   9.733  18.663  0.00  0.00    +0.000 C 
ATOM     21  C   UNL     1       0.965   9.271  20.102  0.00  0.00    +0.000 C 
ATOM     22  C   UNL     1      -0.270  10.093  20.464  0.00  0.00    +0.000 C 
ATOM     23  C   UNL     1      -0.978  10.131  19.131  0.00  0.00    +0.000 C 
ATOM     24  O   UNL     1       0.053  10.179  18.105  0.00  0.00    +0.000 OA
BRANCH  22  25
ATOM     25  N   UNL     1       0.083  11.401  20.969  0.00  0.00    +0.000 N 
ATOM     26  C   UNL     1       1.220  12.106  20.686  0.00  0.00    +0.000 A 
ATOM     27  N   UNL     1       1.228  13.291  21.259  0.00  0.00    +0.000 NA
ATOM     28  C   UNL     1       0.042  13.358  21.943  0.00  0.00    +0.000 A 
ATOM     29  C   UNL     1      -0.534  14.361  22.727  0.00  0.00    +0.000 A 
ATOM     30  N   UNL     1       0.082  15.591  22.918  0.00  0.00    +0.000 N 
ATOM     31  N   UNL     1      -1.723  14.125  23.324  0.00  0.00    +0.000 NA
ATOM     32  C   UNL     1      -2.314  12.927  23.110  0.00  0.00    +0.000 A 
ATOM     33  N   UNL     1      -1.876  11.889  22.360  0.00  0.00    +0.000 NA
ATOM     34  C   UNL     1      -0.690  12.178  21.805  0.00  0.00    +0.000 A 
ATOM     35  H   UNL     1       1.080  15.567  22.729  0.00  0.00    +0.000 HD
ATOM     36  H   UNL     1      -0.227  16.045  23.767  0.00  0.00    +0.000 HD
ENDBRANCH  22  25
ENDBRANCH  19  20
ENDBRANCH   1  19
TORSDOF 10
ENDMDL
MODEL 2
REMARK VINA RESULT:      -8.1      2.210      3.278
REMARK  Name = 
REMARK  12 active torsions:
REMARK  status: ('A' for Active; 'I' for Inactive)
REMARK    1  A    between atoms: C_1  and  O_2
REMARK    2  A    between atoms: O_2  and  C_3
REMARK    3  A    between atoms: C_3  and  C_5
REMARK    4  A    between atoms: C_5  and  C_6
REMARK    5  A    between atoms: C_5  and  N_7
REMARK    6  A    between atoms: N_7  and  P_8
REMARK    7  A    between atoms: P_8  and  O_10
REMARK    8  A    between atoms: P_8  and  O_27
REMARK    9  A    between atoms: O_10  and  C_11
REMARK   10  A    between atoms: C_11  and  C_12
REMARK   11  A    between atoms: C_14  and  N_15
REMARK   12  A    between atoms: O_27  and  C_28
REMARK                            x       y       z     vdW  Elec       q    Type
REMARK                         _______ _______ _______ _____ _____    ______ ____
ROOT
ATOM      1  O   UNL     1       3.362   7.679  17.561  0.00  0.00    +0.000 OA
ENDROOT
BRANCH   1   2
ATOM      2  P   UNL     1       3.622   6.005  17.827  0.00  0.00    +0.000 P 
ATOM      3  O   UNL     1       4.623   5.753  18.957  0.00  0.00    +0.000 OA
BRANCH   2   4
ATOM      4  N   UNL     1       5.077   6.128  16.810  0.00  0.00    +0.000 NA
ATOM      5  H   UNL     1       4.912   5.580  15.977  0.00  0.00    +0.000 HD
BRANCH   4   6
ATOM      6  C   UNL     1       6.464   6.097  17.249  0.00  0.00    +0.000 C 
ATOM      7  C   UNL     1       7.122   7.463  17.361  0.00  0.00    +0.000 C 
BRANCH   6   8
ATOM      8  C   UNL     1       7.359   5.129  16.481  0.00  0.00    +0.000 C 
ATOM      9  O   UNL     1       7.983   4.231  17.039  0.00  0.00    +0.000 OA
BRANCH   8  11
ATOM     10  C   UNL     1       6.770   4.382  14.353  0.00  0.00    +0.000 C 
ATOM     11  O   UNL     1       7.415   5.383  15.143  0.00  0.00    +0.000 OA
ENDBRANCH   8  11
ENDBRANCH   6   8
ENDBRANCH   4   6
ENDBRANCH   2   4
BRANCH   2  12
ATOM     12  O   UNL     1       2.207   5.886  18.816  0.00  0.00    +0.000 OA
BRANCH  12  13
ATOM     13  C   UNL     1       1.850   4.731  19.555  0.00  0.00    +0.000 A 
ATOM     14  C   UNL     1       1.370   3.516  19.036  0.00  0.00    +0.000 A 
ATOM     15  C   UNL     1       1.524   2.293  19.697  0.00  0.00    +0.000 A 
ATOM     16  C   UNL     1       1.869   2.299  21.029  0.00  0.00    +0.000 A 
ATOM     17  C   UNL     1       2.030   3.525  21.665  0.00  0.00    +0.000 A 
ATOM     18  C   UNL     1       2.074   4.736  20.930  0.00  0.00    +0.000 A 
ENDBRANCH  12  13
ENDBRANCH   2  12
ENDBRANCH   1   2
BRANCH   1  19
ATOM     19  C   UNL     1       2.732   8.410  18.607  0.00  0.00    +0.000 C 
BRANCH  19  20
ATOM     20  C   UNL     1       1.285   8.933  18.639  0.00  0.00    +0.000 C 
ATOM     21  C   UNL     1       1.322  10.449  18.312  0.00  0.00    +0.000 C 
ATOM     22  C   UNL     1       0.207  11.044  19.170  0.00  0.00    +0.000 C 
ATOM     23  C   UNL     1       0.335  10.200  20.415  0.00  0.00    +0.000 C 
ATOM     24  O   UNL     1       0.733   8.868  19.984  0.00  0.00    +0.000 OA
BRANCH  22  25
ATOM     25  N   UNL     1      -1.083  10.936  18.527  0.00  0.00    +0.000 N 
ATOM     26  C   UNL     1      -1.382  10.193  17.417  0.00  0.00    +0.000 A 
ATOM     27  N   UNL     1      -2.659  10.259  17.103  0.00  0.00    +0.000 NA
ATOM     28  C   UNL     1      -3.213  11.079  18.052  0.00  0.00    +0.000 A 
ATOM     29  C   UNL     1      -4.522  11.515  18.267  0.00  0.00    +0.000 A 
ATOM     30  N   UNL     1      -5.577  11.102  17.463  0.00  0.00    +0.000 N 
ATOM     31  N   UNL     1      -4.770  12.373  19.281  0.00  0.00    +0.000 NA
ATOM     32  C   UNL     1      -3.730  12.748  20.062  0.00  0.00    +0.000 A 
ATOM     33  N   UNL     1      -2.431  12.383  19.976  0.00  0.00    +0.000 NA
ATOM     34  C   UNL     1      -2.246  11.544  18.946  0.00  0.00    +0.000 A 
ATOM     35  H   UNL     1      -5.272  10.750  16.560  0.00  0.00    +0.000 HD
ATOM     36  H   UNL     1      -6.347  11.756  17.479  0.00  0.00    +0.000 HD
ENDBRANCH  22  25
ENDBRANCH  19  20
ENDBRANCH   1  19
TORSDOF 10
ENDMDL
MODEL 3
REMARK VINA RESULT:      -8.0      2.936      9.559
REMARK  Name = 
REMARK  12 active torsions:
REMARK  status: ('A' for Active; 'I' for Inactive)
REMARK    1  A    between atoms: C_1  and  O_2
REMARK    2  A    between atoms: O_2  and  C_3
REMARK    3  A    between atoms: C_3  and  C_5
REMARK    4  A    between atoms: C_5  and  C_6
REMARK    5  A    between atoms: C_5  and  N_7
REMARK    6  A    between atoms: N_7  and  P_8
REMARK    7  A    between atoms: P_8  and  O_10
REMARK    8  A    between atoms: P_8  and  O_27
REMARK    9  A    between atoms: O_10  and  C_11
REMARK   10  A    between atoms: C_11  and  C_12
REMARK   11  A    between atoms: C_14  and  N_15
REMARK   12  A    between atoms: O_27  and  C_28
REMARK                            x       y       z     vdW  Elec       q    Type
REMARK                         _______ _______ _______ _____ _____    ______ ____
ROOT
ATOM      1  O   UNL     1       1.299   9.584  19.357  0.00  0.00    +0.000 OA
ENDROOT
BRANCH   1   2
ATOM      2  P   UNL     1      -0.020  10.634  19.663  0.00  0.00    +0.000 P 
ATOM      3  O   UNL     1       0.360  12.105  19.471  0.00  0.00    +0.000 OA
BRANCH   2   4
ATOM      4  N   UNL     1       0.625  10.872  21.305  0.00  0.00    +0.000 NA
ATOM      5  H   UNL     1       1.534  10.434  21.340  0.00  0.00    +0.000 HD
BRANCH   4   6
ATOM      6  C   UNL     1      -0.105  10.775  22.561  0.00  0.00    +0.000 C 
ATOM      7  C   UNL     1      -0.748   9.422  22.816  0.00  0.00    +0.000 C 
BRANCH   6   8
ATOM      8  C   UNL     1      -1.103  11.902  22.812  0.00  0.00    +0.000 C 
ATOM      9  O   UNL     1      -2.303  11.778  22.578  0.00  0.00    +0.000 OA
BRANCH   8  11
ATOM     10  C   UNL     1      -0.560  14.120  22.341  0.00  0.00    +0.000 C 
ATOM     11  O   UNL     1      -0.528  13.045  23.282  0.00  0.00    +0.000 OA
ENDBRANCH   8  11
ENDBRANCH   6   8
ENDBRANCH   4   6
ENDBRANCH   2   4
BRANCH   2  12
ATOM     12  O   UNL     1      -0.647  10.404  18.068  0.00  0.00    +0.000 OA
BRANCH  12  13
ATOM     13  C   UNL     1      -2.015  10.540  17.725  0.00  0.00    +0.000 A 
ATOM     14  C   UNL     1      -3.014  11.173  18.486  0.00  0.00    +0.000 A 
ATOM     15  C   UNL     1      -4.166  11.727  17.920  0.00  0.00    +0.000 A 
ATOM     16  C   UNL     1      -4.503  11.381  16.631  0.00  0.00    +0.000 A 
ATOM     17  C   UNL     1      -3.689  10.477  15.955  0.00  0.00    +0.000 A 
ATOM     18  C   UNL     1      -2.426  10.095  16.470  0.00  0.00    +0.000 A 
ENDBRANCH  12  13
ENDBRANCH   2  12
ENDBRANCH   1   2
BRANCH   1  19
ATOM     19  C   UNL     1       1.364   8.385  20.120  0.00  0.00    +0.000 C 
BRANCH  19  20
ATOM     20  C   UNL     1       2.320   7.198  19.913  0.00  0.00    +0.000 C 
ATOM     21  C   UNL     1       2.308   6.838  18.404  0.00  0.00    +0.000 C 
ATOM     22  C   UNL     1       2.456   5.318  18.381  0.00  0.00    +0.000 C 
ATOM     23  C   UNL     1       1.638   4.941  19.592  0.00  0.00    +0.000 C 
ATOM     24  O   UNL     1       1.821   6.000  20.573  0.00  0.00    +0.000 OA
BRANCH  22  25
ATOM     25  N   UNL     1       3.841   4.911  18.468  0.00  0.00    +0.000 N 
ATOM     26  C   UNL     1       4.374   4.014  19.353  0.00  0.00    +0.000 A 
ATOM     27  N   UNL     1       5.659   3.814  19.147  0.00  0.00    +0.000 NA
ATOM     28  C   UNL     1       5.972   4.616  18.079  0.00  0.00    +0.000 A 
ATOM     29  C   UNL     1       7.165   4.828  17.384  0.00  0.00    +0.000 A 
ATOM     30  N   UNL     1       8.334   4.149  17.702  0.00  0.00    +0.000 N 
ATOM     31  N   UNL     1       7.185   5.729  16.377  0.00  0.00    +0.000 NA
ATOM     32  C   UNL     1       6.031   6.366  16.073  0.00  0.00    +0.000 A 
ATOM     33  N   UNL     1       4.813   6.235  16.648  0.00  0.00    +0.000 NA
ATOM     34  C   UNL     1       4.860   5.339  17.645  0.00  0.00    +0.000 A 
ATOM     35  H   UNL     1       8.324   3.764  18.642  0.00  0.00    +0.000 HD
ATOM     36  H   UNL     1       9.159   4.651  17.405  0.00  0.00    +0.000 HD
ENDBRANCH  22  25
ENDBRANCH  19  20
ENDBRANCH   1  19
TORSDOF 10
ENDMDL
MODEL 4
REMARK VINA RESULT:      -8.0      2.094      3.207
REMARK  Name = 
REMARK  12 active torsions:
REMARK  status: ('A' for Active; 'I' for Inactive)
REMARK    1  A    between atoms: C_1  and  O_2
REMARK    2  A    between atoms: O_2  and  C_3
REMARK    3  A    between atoms: C_3  and  C_5
REMARK    4  A    between atoms: C_5  and  C_6
REMARK    5  A    between atoms: C_5  and  N_7
REMARK    6  A    between atoms: N_7  and  P_8
REMARK    7  A    between atoms: P_8  and  O_10
REMARK    8  A    between atoms: P_8  and  O_27
REMARK    9  A    between atoms: O_10  and  C_11
REMARK   10  A    between atoms: C_11  and  C_12
REMARK   11  A    between atoms: C_14  and  N_15
REMARK   12  A    between atoms: O_27  and  C_28
REMARK                            x       y       z     vdW  Elec       q    Type
REMARK                         _______ _______ _______ _____ _____    ______ ____
ROOT
ATOM      1  O   UNL     1       3.800   6.992  18.775  0.00  0.00    +0.000 OA
ENDROOT
BRANCH   1   2
ATOM      2  P   UNL     1       4.532   5.593  18.109  0.00  0.00    +0.000 P 
ATOM      3  O   UNL     1       4.742   4.500  19.161  0.00  0.00    +0.000 OA
BRANCH   2   4
ATOM      4  N   UNL     1       6.098   6.204  18.695  0.00  0.00    +0.000 NA
ATOM      5  H   UNL     1       5.911   7.005  19.280  0.00  0.00    +0.000 HD
BRANCH   4   6
ATOM      6  C   UNL     1       7.336   6.324  17.939  0.00  0.00    +0.000 C 
ATOM      7  C   UNL     1       7.647   7.730  17.455  0.00  0.00    +0.000 C 
BRANCH   6   8
ATOM      8  C   UNL     1       7.495   5.315  16.805  0.00  0.00    +0.000 C 
ATOM      9  O   UNL     1       7.978   4.200  16.983  0.00  0.00    +0.000 OA
BRANCH   8  11
ATOM     10  C   UNL     1       7.066   4.784  14.576  0.00  0.00    +0.000 C 
ATOM     11  O   UNL     1       7.083   5.787  15.594  0.00  0.00    +0.000 OA
ENDBRANCH   8  11
ENDBRANCH   6   8
ENDBRANCH   4   6
ENDBRANCH   2   4
BRANCH   2  12
ATOM     12  O   UNL     1       3.010   5.000  17.539  0.00  0.00    +0.000 OA
BRANCH  12  13
ATOM     13  C   UNL     1       2.141   4.182  18.302  0.00  0.00    +0.000 A 
ATOM     14  C   UNL     1       1.885   2.813  18.106  0.00  0.00    +0.000 A 
ATOM     15  C   UNL     1       1.463   1.963  19.133  0.00  0.00    +0.000 A 
ATOM     16  C   UNL     1       0.978   2.518  20.295  0.00  0.00    +0.000 A 
ATOM     17  C   UNL     1       0.911   3.904  20.387  0.00  0.00    +0.000 A 
ATOM     18  C   UNL     1       1.533   4.738  19.425  0.00  0.00    +0.000 A 
ENDBRANCH  12  13
ENDBRANCH   2  12
ENDBRANCH   1   2
BRANCH   1  19
ATOM     19  C   UNL     1       3.049   7.815  17.888  0.00  0.00    +0.000 C 
BRANCH  19  20
ATOM     20  C   UNL     1       1.667   8.441  18.142  0.00  0.00    +0.000 C 
ATOM     21  C   UNL     1       1.795   9.973  17.934  0.00  0.00    +0.000 C 
ATOM     22  C   UNL     1       0.845  10.572  18.969  0.00  0.00    +0.000 C 
ATOM     23  C   UNL     1       1.047   9.613  20.118  0.00  0.00    +0.000 C 
ATOM     24  O   UNL     1       1.275   8.298  19.537  0.00  0.00    +0.000 OA
BRANCH  22  25
ATOM     25  N   UNL     1      -0.517  10.619  18.487  0.00  0.00    +0.000 N 
ATOM     26  C   UNL     1      -1.032   9.925  17.427  0.00  0.00    +0.000 A 
ATOM     27  N   UNL     1      -2.321  10.141  17.268  0.00  0.00    +0.000 NA
ATOM     28  C   UNL     1      -2.657  11.013  18.271  0.00  0.00    +0.000 A 
ATOM     29  C   UNL     1      -3.871  11.598  18.638  0.00  0.00    +0.000 A 
ATOM     30  N   UNL     1      -5.056  11.316  17.970  0.00  0.00    +0.000 N 
ATOM     31  N   UNL     1      -3.893  12.471  19.669  0.00  0.00    +0.000 NA
ATOM     32  C   UNL     1      -2.730  12.717  20.316  0.00  0.00    +0.000 A 
ATOM     33  N   UNL     1      -1.502  12.203  20.077  0.00  0.00    +0.000 NA
ATOM     34  C   UNL     1      -1.542  11.356  19.039  0.00  0.00    +0.000 A 
ATOM     35  H   UNL     1      -4.904  10.937  17.040  0.00  0.00    +0.000 HD
ATOM     36  H   UNL     1      -5.737  12.055  18.074  0.00  0.00    +0.000 HD
ENDBRANCH  22  25
ENDBRANCH  19  20
ENDBRANCH   1  19
TORSDOF 10
ENDMDL
MODEL 5
REMARK VINA RESULT:      -7.9      2.236      3.121
REMARK  Name = 
REMARK  12 active torsions:
REMARK  status: ('A' for Active; 'I' for Inactive)
REMARK    1  A    between atoms: C_1  and  O_2
REMARK    2  A    between atoms: O_2  and  C_3
REMARK    3  A    between atoms: C_3  and  C_5
REMARK    4  A    between atoms: C_5  and  C_6
REMARK    5  A    between atoms: C_5  and  N_7
REMARK    6  A    between atoms: N_7  and  P_8
REMARK    7  A    between atoms: P_8  and  O_10
REMARK    8  A    between atoms: P_8  and  O_27
REMARK    9  A    between atoms: O_10  and  C_11
REMARK   10  A    between atoms: C_11  and  C_12
REMARK   11  A    between atoms: C_14  and  N_15
REMARK   12  A    between atoms: O_27  and  C_28
REMARK                            x       y       z     vdW  Elec       q    Type
REMARK                         _______ _______ _______ _____ _____    ______ ____
ROOT
ATOM      1  O   UNL     1       3.155   7.760  17.379  0.00  0.00    +0.000 OA
ENDROOT
BRANCH   1   2
ATOM      2  P   UNL     1       3.620   6.139  17.682  0.00  0.00    +0.000 P 
ATOM      3  O   UNL     1       4.324   5.987  19.033  0.00  0.00    +0.000 OA
BRANCH   2   4
ATOM      4  N   UNL     1       5.245   6.554  17.087  0.00  0.00    +0.000 NA
ATOM      5  H   UNL     1       5.186   7.465  16.655  0.00  0.00    +0.000 HD
BRANCH   4   6
ATOM      6  C   UNL     1       6.195   5.670  16.428  0.00  0.00    +0.000 C 
ATOM      7  C   UNL     1       5.581   4.413  15.834  0.00  0.00    +0.000 C 
BRANCH   6   8
ATOM      8  C   UNL     1       7.432   5.327  17.254  0.00  0.00    +0.000 C 
ATOM      9  O   UNL     1       8.041   4.270  17.114  0.00  0.00    +0.000 OA
BRANCH   8  11
ATOM     10  C   UNL     1       7.851   5.787  19.501  0.00  0.00    +0.000 C 
ATOM     11  O   UNL     1       7.762   6.286  18.165  0.00  0.00    +0.000 OA
ENDBRANCH   8  11
ENDBRANCH   6   8
ENDBRANCH   4   6
ENDBRANCH   2   4
BRANCH   2  12
ATOM     12  O   UNL     1       2.040   5.735  18.260  0.00  0.00    +0.000 OA
BRANCH  12  13
ATOM     13  C   UNL     1       1.722   4.521  18.918  0.00  0.00    +0.000 A 
ATOM     14  C   UNL     1       1.789   3.227  18.374  0.00  0.00    +0.000 A 
ATOM     15  C   UNL     1       1.972   2.081  19.154  0.00  0.00    +0.000 A 
ATOM     16  C   UNL     1       1.770   2.166  20.513  0.00  0.00    +0.000 A 
ATOM     17  C   UNL     1       1.372   3.387  21.047  0.00  0.00    +0.000 A 
ATOM     18  C   UNL     1       1.396   4.573  20.271  0.00  0.00    +0.000 A 
ENDBRANCH  12  13
ENDBRANCH   2  12
ENDBRANCH   1   2
BRANCH   1  19
ATOM     19  C   UNL     1       2.549   8.472  18.453  0.00  0.00    +0.000 C 
BRANCH  19  20
ATOM     20  C   UNL     1       1.108   9.005  18.522  0.00  0.00    +0.000 C 
ATOM     21  C   UNL     1       1.146  10.520  18.187  0.00  0.00    +0.000 C 
ATOM     22  C   UNL     1       0.060  11.127  19.073  0.00  0.00    +0.000 C 
ATOM     23  C   UNL     1       0.217  10.288  20.318  0.00  0.00    +0.000 C 
ATOM     24  O   UNL     1       0.593   8.951  19.883  0.00  0.00    +0.000 OA
BRANCH  22  25
ATOM     25  N   UNL     1      -1.248  11.025  18.467  0.00  0.00    +0.000 N 
ATOM     26  C   UNL     1      -1.584  10.280  17.369  0.00  0.00    +0.000 A 
ATOM     27  N   UNL     1      -2.868  10.354  17.091  0.00  0.00    +0.000 NA
ATOM     28  C   UNL     1      -3.390  11.181  18.052  0.00  0.00    +0.000 A 
ATOM     29  C   UNL     1      -4.690  11.627  18.302  0.00  0.00    +0.000 A 
ATOM     30  N   UNL     1      -5.769  11.218  17.530  0.00  0.00    +0.000 N 
ATOM     31  N   UNL     1      -4.902  12.490  19.319  0.00  0.00    +0.000 NA
ATOM     32  C   UNL     1      -3.839  12.861  20.069  0.00  0.00    +0.000 A 
ATOM     33  N   UNL     1      -2.545  12.486  19.948  0.00  0.00    +0.000 NA
ATOM     34  C   UNL     1      -2.395  11.642  18.916  0.00  0.00    +0.000 A 
ATOM     35  H   UNL     1      -5.492  10.860  16.620  0.00  0.00    +0.000 HD
ATOM     36  H   UNL     1      -6.535  11.877  17.565  0.00  0.00    +0.000 HD
ENDBRANCH  22  25
ENDBRANCH  19  20
ENDBRANCH   1  19
TORSDOF 10
ENDMDL
MODEL 6
REMARK VINA RESULT:      -7.9      1.714      2.540
REMARK  Name = 
REMARK  12 active torsions:
REMARK  status: ('A' for Active; 'I' for Inactive)
REMARK    1  A    between atoms: C_1  and  O_2
REMARK    2  A    between atoms: O_2  and  C_3
REMARK    3  A    between atoms: C_3  and  C_5
REMARK    4  A    between atoms: C_5  and  C_6
REMARK    5  A    between atoms: C_5  and  N_7
REMARK    6  A    between atoms: N_7  and  P_8
REMARK    7  A    between atoms: P_8  and  O_10
REMARK    8  A    between atoms: P_8  and  O_27
REMARK    9  A    between atoms: O_10  and  C_11
REMARK   10  A    between atoms: C_11  and  C_12
REMARK   11  A    between atoms: C_14  and  N_15
REMARK   12  A    between atoms: O_27  and  C_28
REMARK                            x       y       z     vdW  Elec       q    Type
REMARK                         _______ _______ _______ _____ _____    ______ ____
ROOT
ATOM      1  O   UNL     1       3.250   7.594  18.503  0.00  0.00    +0.000 OA
ENDROOT
BRANCH   1   2
ATOM      2  P   UNL     1       3.766   6.200  17.649  0.00  0.00    +0.000 P 
ATOM      3  O   UNL     1       4.510   5.216  18.555  0.00  0.00    +0.000 OA
BRANCH   2   4
ATOM      4  N   UNL     1       5.363   6.967  17.476  0.00  0.00    +0.000 NA
ATOM      5  H   UNL     1       5.317   7.585  16.679  0.00  0.00    +0.000 HD
BRANCH   4   6
ATOM      6  C   UNL     1       6.665   6.336  17.637  0.00  0.00    +0.000 C 
ATOM      7  C   UNL     1       7.797   7.298  17.957  0.00  0.00    +0.000 C 
BRANCH   6   8
ATOM      8  C   UNL     1       7.063   5.390  16.509  0.00  0.00    +0.000 C 
ATOM      9  O   UNL     1       7.772   4.405  16.699  0.00  0.00    +0.000 OA
BRANCH   8  11
ATOM     10  C   UNL     1       6.793   4.778  14.275  0.00  0.00    +0.000 C 
ATOM     11  O   UNL     1       6.585   5.765  15.288  0.00  0.00    +0.000 OA
ENDBRANCH   8  11
ENDBRANCH   6   8
ENDBRANCH   4   6
ENDBRANCH   2   4
BRANCH   2  12
ATOM     12  O   UNL     1       2.213   5.454  17.818  0.00  0.00    +0.000 OA
BRANCH  12  13
ATOM     13  C   UNL     1       1.898   4.493  18.809  0.00  0.00    +0.000 A 
ATOM     14  C   UNL     1       1.804   3.101  18.631  0.00  0.00    +0.000 A 
ATOM     15  C   UNL     1       2.004   2.186  19.669  0.00  0.00    +0.000 A 
ATOM     16  C   UNL     1       1.985   2.642  20.968  0.00  0.00    +0.000 A 
ATOM     17  C   UNL     1       1.744   3.994  21.190  0.00  0.00    +0.000 A 
ATOM     18  C   UNL     1       1.752   4.928  20.124  0.00  0.00    +0.000 A 
ENDBRANCH  12  13
ENDBRANCH   2  12
ENDBRANCH   1   2
BRANCH   1  19
ATOM     19  C   UNL     1       2.444   8.527  17.792  0.00  0.00    +0.000 C 
BRANCH  19  20
ATOM     20  C   UNL     1       1.204   9.274  18.313  0.00  0.00    +0.000 C 
ATOM     21  C   UNL     1       1.589  10.767  18.488  0.00  0.00    +0.000 C 
ATOM     22  C   UNL     1       0.801  11.214  19.718  0.00  0.00    +0.000 C 
ATOM     23  C   UNL     1       0.879   9.968  20.566  0.00  0.00    +0.000 C 
ATOM     24  O   UNL     1       0.851   8.833  19.655  0.00  0.00    +0.000 OA
BRANCH  22  25
ATOM     25  N   UNL     1      -0.550  11.601  19.381  0.00  0.00    +0.000 N 
ATOM     26  C   UNL     1      -1.137  11.526  18.147  0.00  0.00    +0.000 A 
ATOM     27  N   UNL     1      -2.397  11.906  18.171  0.00  0.00    +0.000 NA
ATOM     28  C   UNL     1      -2.639  12.240  19.478  0.00  0.00    +0.000 A 
ATOM     29  C   UNL     1      -3.786  12.693  20.134  0.00  0.00    +0.000 A 
ATOM     30  N   UNL     1      -4.995  12.860  19.471  0.00  0.00    +0.000 N 
ATOM     31  N   UNL     1      -3.715  12.988  21.450  0.00  0.00    +0.000 NA
ATOM     32  C   UNL     1      -2.532  12.801  22.080  0.00  0.00    +0.000 A 
ATOM     33  N   UNL     1      -1.363  12.349  21.569  0.00  0.00    +0.000 NA
ATOM     34  C   UNL     1      -1.493  12.087  20.260  0.00  0.00    +0.000 A 
ATOM     35  H   UNL     1      -4.887  12.943  18.465  0.00  0.00    +0.000 HD
ATOM     36  H   UNL     1      -5.597  13.525  19.938  0.00  0.00    +0.000 HD
ENDBRANCH  22  25
ENDBRANCH  19  20
ENDBRANCH   1  19
TORSDOF 10
ENDMDL
MODEL 7
REMARK VINA RESULT:      -7.8      2.485      5.186
REMARK  Name = 
REMARK  12 active torsions:
REMARK  status: ('A' for Active; 'I' for Inactive)
REMARK    1  A    between atoms: C_1  and  O_2
REMARK    2  A    between atoms: O_2  and  C_3
REMARK    3  A    between atoms: C_3  and  C_5
REMARK    4  A    between atoms: C_5  and  C_6
REMARK    5  A    between atoms: C_5  and  N_7
REMARK    6  A    between atoms: N_7  and  P_8
REMARK    7  A    between atoms: P_8  and  O_10
REMARK    8  A    between atoms: P_8  and  O_27
REMARK    9  A    between atoms: O_10  and  C_11
REMARK   10  A    between atoms: C_11  and  C_12
REMARK   11  A    between atoms: C_14  and  N_15
REMARK   12  A    between atoms: O_27  and  C_28
REMARK                            x       y       z     vdW  Elec       q    Type
REMARK                         _______ _______ _______ _____ _____    ______ ____
ROOT
ATOM      1  O   UNL     1       3.518   6.849  18.891  0.00  0.00    +0.000 OA
ENDROOT
BRANCH   1   2
ATOM      2  P   UNL     1       3.283   5.219  18.416  0.00  0.00    +0.000 P 
ATOM      3  O   UNL     1       2.136   5.074  17.412  0.00  0.00    +0.000 OA
BRANCH   2   4
ATOM      4  N   UNL     1       1.989   5.111  19.633  0.00  0.00    +0.000 NA
ATOM      5  H   UNL     1       2.137   5.855  20.300  0.00  0.00    +0.000 HD
BRANCH   4   6
ATOM      6  C   UNL     1       1.445   3.903  20.236  0.00  0.00    +0.000 C 
ATOM      7  C   UNL     1       2.007   3.573  21.609  0.00  0.00    +0.000 C 
BRANCH   6   8
ATOM      8  C   UNL     1       1.466   2.671  19.335  0.00  0.00    +0.000 C 
ATOM      9  O   UNL     1       0.553   2.414  18.555  0.00  0.00    +0.000 OA
BRANCH   8  11
ATOM     10  C   UNL     1       3.276   1.635  18.294  0.00  0.00    +0.000 C 
ATOM     11  O   UNL     1       2.568   1.887  19.509  0.00  0.00    +0.000 OA
ENDBRANCH   8  11
ENDBRANCH   6   8
ENDBRANCH   4   6
ENDBRANCH   2   4
BRANCH   2  12
ATOM     12  O   UNL     1       4.540   5.324  17.232  0.00  0.00    +0.000 OA
BRANCH  12  13
ATOM     13  C   UNL     1       5.860   5.759  17.512  0.00  0.00    +0.000 A 
ATOM     14  C   UNL     1       6.531   6.843  16.919  0.00  0.00    +0.000 A 
ATOM     15  C   UNL     1       7.567   7.535  17.553  0.00  0.00    +0.000 A 
ATOM     16  C   UNL     1       8.173   6.963  18.649  0.00  0.00    +0.000 A 
ATOM     17  C   UNL     1       7.737   5.709  19.065  0.00  0.00    +0.000 A 
ATOM     18  C   UNL     1       6.556   5.128  18.540  0.00  0.00    +0.000 A 
ENDBRANCH  12  13
ENDBRANCH   2  12
ENDBRANCH   1   2
BRANCH   1  19
ATOM     19  C   UNL     1       2.899   7.852  18.092  0.00  0.00    +0.000 C 
BRANCH  19  20
ATOM     20  C   UNL     1       1.514   8.487  18.301  0.00  0.00    +0.000 C 
ATOM     21  C   UNL     1       1.646  10.010  18.035  0.00  0.00    +0.000 C 
ATOM     22  C   UNL     1       0.682  10.649  19.033  0.00  0.00    +0.000 C 
ATOM     23  C   UNL     1       0.865   9.736  20.220  0.00  0.00    +0.000 C 
ATOM     24  O   UNL     1       1.102   8.400  19.695  0.00  0.00    +0.000 OA
BRANCH  22  25
ATOM     25  N   UNL     1      -0.673  10.678  18.528  0.00  0.00    +0.000 N 
ATOM     26  C   UNL     1      -1.162   9.972  17.464  0.00  0.00    +0.000 A 
ATOM     27  N   UNL     1      -2.451  10.172  17.283  0.00  0.00    +0.000 NA
ATOM     28  C   UNL     1      -2.814  11.045  18.276  0.00  0.00    +0.000 A 
ATOM     29  C   UNL     1      -4.041  11.617  18.622  0.00  0.00    +0.000 A 
ATOM     30  N   UNL     1      -5.211  11.318  17.936  0.00  0.00    +0.000 N 
ATOM     31  N   UNL     1      -4.089  12.495  19.647  0.00  0.00    +0.000 NA
ATOM     32  C   UNL     1      -2.940  12.758  20.312  0.00  0.00    +0.000 A 
ATOM     33  N   UNL     1      -1.702  12.258  20.095  0.00  0.00    +0.000 NA
ATOM     34  C   UNL     1      -1.716  11.405  19.060  0.00  0.00    +0.000 A 
ATOM     35  H   UNL     1      -5.041  10.935  17.011  0.00  0.00    +0.000 HD
ATOM     36  H   UNL     1      -5.903  12.049  18.026  0.00  0.00    +0.000 HD
ENDBRANCH  22  25
ENDBRANCH  19  20
ENDBRANCH   1  19
TORSDOF 10
ENDMDL
MODEL 8
REMARK VINA RESULT:      -7.8      1.309      1.856
REMARK  Name = 
REMARK  12 active torsions:
REMARK  status: ('A' for Active; 'I' for Inactive)
REMARK    1  A    between atoms: C_1  and  O_2
REMARK    2  A    between atoms: O_2  and  C_3
REMARK    3  A    between atoms: C_3  and  C_5
REMARK    4  A    between atoms: C_5  and  C_6
REMARK    5  A    between atoms: C_5  and  N_7
REMARK    6  A    between atoms: N_7  and  P_8
REMARK    7  A    between atoms: P_8  and  O_10
REMARK    8  A    between atoms: P_8  and  O_27
REMARK    9  A    between atoms: O_10  and  C_11
REMARK   10  A    between atoms: C_11  and  C_12
REMARK   11  A    between atoms: C_14  and  N_15
REMARK   12  A    between atoms: O_27  and  C_28
REMARK                            x       y       z     vdW  Elec       q    Type
REMARK                         _______ _______ _______ _____ _____    ______ ____
ROOT
ATOM      1  O   UNL     1       3.319   8.079  18.020  0.00  0.00    +0.000 OA
ENDROOT
BRANCH   1   2
ATOM      2  P   UNL     1       3.570   6.390  17.869  0.00  0.00    +0.000 P 
ATOM      3  O   UNL     1       4.491   5.847  18.965  0.00  0.00    +0.000 OA
BRANCH   2   4
ATOM      4  N   UNL     1       5.092   6.750  17.021  0.00  0.00    +0.000 NA
ATOM      5  H   UNL     1       4.967   7.623  16.529  0.00  0.00    +0.000 HD
BRANCH   4   6
ATOM      6  C   UNL     1       5.948   5.811  16.310  0.00  0.00    +0.000 C 
ATOM      7  C   UNL     1       5.246   4.547  15.842  0.00  0.00    +0.000 C 
BRANCH   6   8
ATOM      8  C   UNL     1       7.256   5.471  17.019  0.00  0.00    +0.000 C 
ATOM      9  O   UNL     1       7.880   4.440  16.784  0.00  0.00    +0.000 OA
BRANCH   8  11
ATOM     10  C   UNL     1       7.918   5.836  19.224  0.00  0.00    +0.000 C 
ATOM     11  O   UNL     1       7.633   6.400  17.943  0.00  0.00    +0.000 OA
ENDBRANCH   8  11
ENDBRANCH   6   8
ENDBRANCH   4   6
ENDBRANCH   2   4
BRANCH   2  12
ATOM     12  O   UNL     1       2.089   6.041  18.694  0.00  0.00    +0.000 OA
BRANCH  12  13
ATOM     13  C   UNL     1       1.658   4.734  19.031  0.00  0.00    +0.000 A 
ATOM     14  C   UNL     1       1.570   3.628  18.167  0.00  0.00    +0.000 A 
ATOM     15  C   UNL     1       1.648   2.306  18.614  0.00  0.00    +0.000 A 
ATOM     16  C   UNL     1       1.491   2.049  19.957  0.00  0.00    +0.000 A 
ATOM     17  C   UNL     1       1.241   3.120  20.809  0.00  0.00    +0.000 A 
ATOM     18  C   UNL     1       1.374   4.460  20.367  0.00  0.00    +0.000 A 
ENDBRANCH  12  13
ENDBRANCH   2  12
ENDBRANCH   1   2
BRANCH   1  19
ATOM     19  C   UNL     1       2.057   8.587  17.600  0.00  0.00    +0.000 C 
BRANCH  19  20
ATOM     20  C   UNL     1       1.040   9.372  18.445  0.00  0.00    +0.000 C 
ATOM     21  C   UNL     1       1.528  10.842  18.529  0.00  0.00    +0.000 C 
ATOM     22  C   UNL     1       1.123  11.292  19.932  0.00  0.00    +0.000 C 
ATOM     23  C   UNL     1       1.367  10.022  20.711  0.00  0.00    +0.000 C 
ATOM     24  O   UNL     1       1.041   8.913  19.827  0.00  0.00    +0.000 OA
BRANCH  22  25
ATOM     25  N   UNL     1      -0.250  11.743  19.977  0.00  0.00    +0.000 N 
ATOM     26  C   UNL     1      -1.097  11.888  18.912  0.00  0.00    +0.000 A 
ATOM     27  N   UNL     1      -2.302  12.270  19.282  0.00  0.00    +0.000 NA
ATOM     28  C   UNL     1      -2.234  12.374  20.648  0.00  0.00    +0.000 A 
ATOM     29  C   UNL     1      -3.185  12.717  21.611  0.00  0.00    +0.000 A 
ATOM     30  N   UNL     1      -4.501  13.007  21.276  0.00  0.00    +0.000 N 
ATOM     31  N   UNL     1      -2.812  12.777  22.908  0.00  0.00    +0.000 NA
ATOM     32  C   UNL     1      -1.529  12.474  23.214  0.00  0.00    +0.000 A 
ATOM     33  N   UNL     1      -0.524  12.107  22.386  0.00  0.00    +0.000 NA
ATOM     34  C   UNL     1      -0.952  12.077  21.115  0.00  0.00    +0.000 A 
ATOM     35  H   UNL     1      -4.613  13.262  20.299  0.00  0.00    +0.000 HD
ATOM     36  H   UNL     1      -4.953  13.585  21.971  0.00  0.00    +0.000 HD
ENDBRANCH  22  25
ENDBRANCH  19  20
ENDBRANCH   1  19
TORSDOF 10
ENDMDL
MODEL 9
REMARK VINA RESULT:      -7.8      3.112      9.486
REMARK  Name = 
REMARK  12 active torsions:
REMARK  status: ('A' for Active; 'I' for Inactive)
REMARK    1  A    between atoms: C_1  and  O_2
REMARK    2  A    between atoms: O_2  and  C_3
REMARK    3  A    between atoms: C_3  and  C_5
REMARK    4  A    between atoms: C_5  and  C_6
REMARK    5  A    between atoms: C_5  and  N_7
REMARK    6  A    between atoms: N_7  and  P_8
REMARK    7  A    between atoms: P_8  and  O_10
REMARK    8  A    between atoms: P_8  and  O_27
REMARK    9  A    between atoms: O_10  and  C_11
REMARK   10  A    between atoms: C_11  and  C_12
REMARK   11  A    between atoms: C_14  and  N_15
REMARK   12  A    between atoms: O_27  and  C_28
REMARK                            x       y       z     vdW  Elec       q    Type
REMARK                         _______ _______ _______ _____ _____    ______ ____
ROOT
ATOM      1  O   UNL     1       0.341   9.361  18.073  0.00  0.00    +0.000 OA
ENDROOT
BRANCH   1   2
ATOM      2  P   UNL     1      -0.458  10.633  18.897  0.00  0.00    +0.000 P 
ATOM      3  O   UNL     1       0.271  11.970  18.733  0.00  0.00    +0.000 OA
BRANCH   2   4
ATOM      4  N   UNL     1       0.673  10.391  20.250  0.00  0.00    +0.000 NA
ATOM      5  H   UNL     1       1.506   9.960  19.875  0.00  0.00    +0.000 HD
BRANCH   4   6
ATOM      6  C   UNL     1       0.352   9.940  21.596  0.00  0.00    +0.000 C 
ATOM      7  C   UNL     1      -0.361   8.600  21.661  0.00  0.00    +0.000 C 
BRANCH   6   8
ATOM      8  C   UNL     1      -0.359  10.972  22.466  0.00  0.00    +0.000 C 
ATOM      9  O   UNL     1      -1.183  10.654  23.320  0.00  0.00    +0.000 OA
BRANCH   8  11
ATOM     10  C   UNL     1      -1.106  13.174  22.286  0.00  0.00    +0.000 C 
ATOM     11  O   UNL     1      -0.013  12.259  22.179  0.00  0.00    +0.000 OA
ENDBRANCH   8  11
ENDBRANCH   6   8
ENDBRANCH   4   6
ENDBRANCH   2   4
BRANCH   2  12
ATOM     12  O   UNL     1      -1.558  10.869  17.582  0.00  0.00    +0.000 OA
BRANCH  12  13
ATOM     13  C   UNL     1      -2.858  11.413  17.723  0.00  0.00    +0.000 A 
ATOM     14  C   UNL     1      -3.891  11.379  16.769  0.00  0.00    +0.000 A 
ATOM     15  C   UNL     1      -5.245  11.446  17.110  0.00  0.00    +0.000 A 
ATOM     16  C   UNL     1      -5.590  11.868  18.374  0.00  0.00    +0.000 A 
ATOM     17  C   UNL     1      -4.572  12.231  19.249  0.00  0.00    +0.000 A 
ATOM     18  C   UNL     1      -3.214  11.959  18.953  0.00  0.00    +0.000 A 
ENDBRANCH  12  13
ENDBRANCH   2  12
ENDBRANCH   1   2
BRANCH   1  19
ATOM     19  C   UNL     1       1.765   9.368  18.096  0.00  0.00    +0.000 C 
BRANCH  19  20
ATOM     20  C   UNL     1       2.696   8.209  18.490  0.00  0.00    +0.000 C 
ATOM     21  C   UNL     1       2.517   7.079  17.441  0.00  0.00    +0.000 C 
ATOM     22  C   UNL     1       2.667   5.792  18.249  0.00  0.00    +0.000 C 
ATOM     23  C   UNL     1       1.991   6.192  19.538  0.00  0.00    +0.000 C 
ATOM     24  O   UNL     1       2.278   7.604  19.746  0.00  0.00    +0.000 OA
BRANCH  22  25
ATOM     25  N   UNL     1       4.054   5.419  18.415  0.00  0.00    +0.000 N 
ATOM     26  C   UNL     1       4.673   5.076  19.586  0.00  0.00    +0.000 A 
ATOM     27  N   UNL     1       5.932   4.737  19.404  0.00  0.00    +0.000 NA
ATOM     28  C   UNL     1       6.138   4.863  18.054  0.00  0.00    +0.000 A 
ATOM     29  C   UNL     1       7.256   4.631  17.250  0.00  0.00    +0.000 A 
ATOM     30  N   UNL     1       8.452   4.154  17.771  0.00  0.00    +0.000 N 
ATOM     31  N   UNL     1       7.176   4.888  15.926  0.00  0.00    +0.000 NA
ATOM     32  C   UNL     1       5.996   5.336  15.437  0.00  0.00    +0.000 A 
ATOM     33  N   UNL     1       4.841   5.577  16.099  0.00  0.00    +0.000 NA
ATOM     34  C   UNL     1       4.987   5.316  17.406  0.00  0.00    +0.000 A 
ATOM     35  H   UNL     1       8.535   4.305  18.772  0.00  0.00    +0.000 HD
ATOM     36  H   UNL     1       9.243   4.392  17.190  0.00  0.00    +0.000 HD
ENDBRANCH  22  25
ENDBRANCH  19  20
ENDBRANCH   1  19
TORSDOF 10
ENDMDL
