MODEL 1
REMARK VINA RESULT:      -7.0      0.000      0.000
REMARK  Name = 
REMARK  1 active torsions:
REMARK  status: ('A' for Active; 'I' for Inactive)
REMARK    1  A    between atoms: C_2  and  C_3
REMARK                            x       y       z     vdW  Elec       q    Type
REMARK                         _______ _______ _______ _____ _____    ______ ____
ROOT
ATOM      1  O   UNL     1       2.397   5.547  20.407  0.00  0.00    +0.000 OA
ATOM      2  C   UNL     1       2.738   6.333  19.517  0.00  0.00    +0.000 C 
ATOM      3  N   UNL     1       2.218   7.638  19.518  0.00  0.00    +0.000 N 
ATOM      4  C   UNL     1       2.418   8.651  18.473  0.00  0.00    +0.000 C 
ATOM      5  C   UNL     1       1.114   9.391  18.113  0.00  0.00    +0.000 C 
ATOM      6  N   UNL     1       0.403   9.852  19.306  0.00  0.00    +0.000 N 
ATOM      7  C   UNL     1       0.183  11.192  19.542  0.00  0.00    +0.000 A 
ATOM      8  C   UNL     1      -0.134  12.088  18.509  0.00  0.00    +0.000 A 
ATOM      9  N   UNL     1      -0.366  13.417  18.675  0.00  0.00    +0.000 NA
ATOM     10  C   UNL     1      -0.282  13.844  19.948  0.00  0.00    +0.000 A 
ATOM     11  C   UNL     1       0.013  12.986  20.989  0.00  0.00    +0.000 A 
ATOM     12  N   UNL     1       0.242  11.660  20.810  0.00  0.00    +0.000 NA
ATOM     13  C   UNL     1       0.218   8.867  20.378  0.00  0.00    +0.000 C 
ATOM     14  C   UNL     1       1.527   8.136  20.716  0.00  0.00    +0.000 C 
ENDROOT
BRANCH   2  15
ATOM     15  C   UNL     1       3.672   5.926  18.457  0.00  0.00    +0.000 A 
ATOM     16  N   UNL     1       4.838   6.491  18.213  0.00  0.00    +0.000 NA
ATOM     17  C   UNL     1       5.483   5.832  17.175  0.00  0.00    +0.000 A 
ATOM     18  C   UNL     1       6.738   6.146  16.635  0.00  0.00    +0.000 A 
ATOM     19  N   UNL     1       7.265   5.414  15.622  0.00  0.00    +0.000 NA
ATOM     20  C   UNL     1       6.562   4.371  15.136  0.00  0.00    +0.000 A 
ATOM     21  C   UNL     1       5.313   3.983  15.591  0.00  0.00    +0.000 A 
ATOM     22  C   UNL     1       4.788   4.749  16.635  0.00  0.00    +0.000 A 
ATOM     23  S   UNL     1       3.290   4.574  17.465  0.00  0.00    +0.000 S 
ENDBRANCH   2  15
TORSDOF 1
ENDMDL
MODEL 2
REMARK VINA RESULT:      -6.8      2.759      3.556
REMARK  Name = 
REMARK  1 active torsions:
REMARK  status: ('A' for Active; 'I' for Inactive)
REMARK    1  A    between atoms: C_2  and  C_3
REMARK                            x       y       z     vdW  Elec       q    Type
REMARK                         _______ _______ _______ _____ _____    ______ ____
ROOT
ATOM      1  O   UNL     1       3.054   8.430  17.120  0.00  0.00    +0.000 OA
ATOM      2  C   UNL     1       2.516   7.859  18.074  0.00  0.00    +0.000 C 
ATOM      3  N   UNL     1       1.650   8.585  18.908  0.00  0.00    +0.000 N 
ATOM      4  C   UNL     1       1.029   8.097  20.147  0.00  0.00    +0.000 C 
ATOM      5  C   UNL     1       1.099   9.134  21.288  0.00  0.00    +0.000 C 
ATOM      6  N   UNL     1       0.661  10.458  20.846  0.00  0.00    +0.000 N 
ATOM      7  C   UNL     1      -0.441  11.076  21.398  0.00  0.00    +0.000 A 
ATOM      8  C   UNL     1      -0.736  10.986  22.768  0.00  0.00    +0.000 A 
ATOM      9  N   UNL     1      -1.801  11.572  23.375  0.00  0.00    +0.000 NA
ATOM     10  C   UNL     1      -2.590  12.288  22.552  0.00  0.00    +0.000 A 
ATOM     11  C   UNL     1      -2.319  12.408  21.203  0.00  0.00    +0.000 A 
ATOM     12  N   UNL     1      -1.251  11.818  20.609  0.00  0.00    +0.000 NA
ATOM     13  C   UNL     1       1.242  10.955  19.593  0.00  0.00    +0.000 C 
ATOM     14  C   UNL     1       1.169   9.905  18.473  0.00  0.00    +0.000 C 
ENDROOT
BRANCH   2  15
ATOM     15  C   UNL     1       2.768   6.438  18.353  0.00  0.00    +0.000 A 
ATOM     16  N   UNL     1       1.999   5.439  17.965  0.00  0.00    +0.000 NA
ATOM     17  C   UNL     1       2.554   4.227  18.357  0.00  0.00    +0.000 A 
ATOM     18  C   UNL     1       2.023   2.950  18.126  0.00  0.00    +0.000 A 
ATOM     19  N   UNL     1       2.671   1.838  18.554  0.00  0.00    +0.000 NA
ATOM     20  C   UNL     1       3.841   1.975  19.208  0.00  0.00    +0.000 A 
ATOM     21  C   UNL     1       4.445   3.188  19.495  0.00  0.00    +0.000 A 
ATOM     22  C   UNL     1       3.764   4.322  19.045  0.00  0.00    +0.000 A 
ATOM     23  S   UNL     1       4.196   5.981  19.196  0.00  0.00    +0.000 S 
ENDBRANCH   2  15
TORSDOF 1
ENDMDL
MODEL 3
REMARK VINA RESULT:      -6.8      2.778      3.778
REMARK  Name = 
REMARK  1 active torsions:
REMARK  status: ('A' for Active; 'I' for Inactive)
REMARK    1  A    between atoms: C_2  and  C_3
REMARK                            x       y       z     vdW  Elec       q    Type
REMARK                         _______ _______ _______ _____ _____    ______ ____
ROOT
ATOM      1  O   UNL     1       2.731   8.591  17.383  0.00  0.00    +0.000 OA
ATOM      2  C   UNL     1       2.291   8.132  18.442  0.00  0.00    +0.000 C 
ATOM      3  N   UNL     1       1.398   8.902  19.205  0.00  0.00    +0.000 N 
ATOM      4  C   UNL     1       0.882   8.563  20.538  0.00  0.00    +0.000 C 
ATOM      5  C   UNL     1       0.903   9.768  21.501  0.00  0.00    +0.000 C 
ATOM      6  N   UNL     1       0.322  10.964  20.888  0.00  0.00    +0.000 N 
ATOM      7  C   UNL     1      -0.808  11.562  21.404  0.00  0.00    +0.000 A 
ATOM      8  C   UNL     1      -1.033  11.664  22.786  0.00  0.00    +0.000 A 
ATOM      9  N   UNL     1      -2.121  12.243  23.358  0.00  0.00    +0.000 NA
ATOM     10  C   UNL     1      -3.009  12.749  22.482  0.00  0.00    +0.000 A 
ATOM     11  C   UNL     1      -2.811  12.679  21.118  0.00  0.00    +0.000 A 
ATOM     12  N   UNL     1      -1.719  12.098  20.559  0.00  0.00    +0.000 NA
ATOM     13  C   UNL     1       0.798  11.306  19.543  0.00  0.00    +0.000 C 
ATOM     14  C   UNL     1       0.776  10.091  18.603  0.00  0.00    +0.000 C 
ENDROOT
BRANCH   2  15
ATOM     15  C   UNL     1       2.690   6.800  18.920  0.00  0.00    +0.000 A 
ATOM     16  N   UNL     1       2.101   6.134  19.894  0.00  0.00    +0.000 NA
ATOM     17  C   UNL     1       2.700   4.892  20.057  0.00  0.00    +0.000 A 
ATOM     18  C   UNL     1       2.349   3.909  20.992  0.00  0.00    +0.000 A 
ATOM     19  N   UNL     1       3.010   2.726  21.043  0.00  0.00    +0.000 NA
ATOM     20  C   UNL     1       4.017   2.503  20.175  0.00  0.00    +0.000 A 
ATOM     21  C   UNL     1       4.447   3.409  19.219  0.00  0.00    +0.000 A 
ATOM     22  C   UNL     1       3.753   4.621  19.183  0.00  0.00    +0.000 A 
ATOM     23  S   UNL     1       3.982   5.973  18.143  0.00  0.00    +0.000 S 
ENDBRANCH   2  15
TORSDOF 1
ENDMDL
MODEL 4
REMARK VINA RESULT:      -6.5      2.560      3.341
REMARK  Name = 
REMARK  1 active torsions:
REMARK  status: ('A' for Active; 'I' for Inactive)
REMARK    1  A    between atoms: C_2  and  C_3
REMARK                            x       y       z     vdW  Elec       q    Type
REMARK                         _______ _______ _______ _____ _____    ______ ____
ROOT
ATOM      1  O   UNL     1       2.974   8.567  17.068  0.00  0.00    +0.000 OA
ATOM      2  C   UNL     1       2.499   7.990  18.051  0.00  0.00    +0.000 C 
ATOM      3  N   UNL     1       1.623   8.687  18.900  0.00  0.00    +0.000 N 
ATOM      4  C   UNL     1       1.071   8.196  20.170  0.00  0.00    +0.000 C 
ATOM      5  C   UNL     1       1.124   9.259  21.286  0.00  0.00    +0.000 C 
ATOM      6  N   UNL     1       0.602  10.549  20.832  0.00  0.00    +0.000 N 
ATOM      7  C   UNL     1      -0.512  11.120  21.410  0.00  0.00    +0.000 A 
ATOM      8  C   UNL     1      -0.756  11.045  22.790  0.00  0.00    +0.000 A 
ATOM      9  N   UNL     1      -1.830  11.588  23.422  0.00  0.00    +0.000 NA
ATOM     10  C   UNL     1      -2.682  12.243  22.612  0.00  0.00    +0.000 A 
ATOM     11  C   UNL     1      -2.464  12.347  21.252  0.00  0.00    +0.000 A 
ATOM     12  N   UNL     1      -1.387  11.801  20.633  0.00  0.00    +0.000 NA
ATOM     13  C   UNL     1       1.114  11.047  19.550  0.00  0.00    +0.000 C 
ATOM     14  C   UNL     1       1.059   9.971  18.455  0.00  0.00    +0.000 C 
ENDROOT
BRANCH   2  15
ATOM     15  C   UNL     1       2.836   6.590  18.350  0.00  0.00    +0.000 A 
ATOM     16  N   UNL     1       3.963   6.181  18.899  0.00  0.00    +0.000 NA
ATOM     17  C   UNL     1       3.935   4.804  19.083  0.00  0.00    +0.000 A 
ATOM     18  C   UNL     1       4.951   4.013  19.636  0.00  0.00    +0.000 A 
ATOM     19  N   UNL     1       4.795   2.672  19.771  0.00  0.00    +0.000 NA
ATOM     20  C   UNL     1       3.641   2.105  19.366  0.00  0.00    +0.000 A 
ATOM     21  C   UNL     1       2.582   2.794  18.800  0.00  0.00    +0.000 A 
ATOM     22  C   UNL     1       2.761   4.173  18.670  0.00  0.00    +0.000 A 
ATOM     23  S   UNL     1       1.682   5.355  18.036  0.00  0.00    +0.000 S 
ENDBRANCH   2  15
TORSDOF 1
ENDMDL
MODEL 5
REMARK VINA RESULT:      -6.4      1.827      8.130
REMARK  Name = 
REMARK  1 active torsions:
REMARK  status: ('A' for Active; 'I' for Inactive)
REMARK    1  A    between atoms: C_2  and  C_3
REMARK                            x       y       z     vdW  Elec       q    Type
REMARK                         _______ _______ _______ _____ _____    ______ ____
ROOT
ATOM      1  O   UNL     1       1.576   5.847  20.767  0.00  0.00    +0.000 OA
ATOM      2  C   UNL     1       1.970   6.719  19.986  0.00  0.00    +0.000 C 
ATOM      3  N   UNL     1       2.860   6.368  18.958  0.00  0.00    +0.000 N 
ATOM      4  C   UNL     1       3.519   7.295  18.027  0.00  0.00    +0.000 C 
ATOM      5  C   UNL     1       5.015   6.971  17.835  0.00  0.00    +0.000 C 
ATOM      6  N   UNL     1       5.233   5.549  17.564  0.00  0.00    +0.000 N 
ATOM      7  C   UNL     1       5.785   5.118  16.377  0.00  0.00    +0.000 A 
ATOM      8  C   UNL     1       6.822   5.816  15.740  0.00  0.00    +0.000 A 
ATOM      9  N   UNL     1       7.411   5.443  14.574  0.00  0.00    +0.000 NA
ATOM     10  C   UNL     1       6.928   4.305  14.043  0.00  0.00    +0.000 A 
ATOM     11  C   UNL     1       5.919   3.586  14.652  0.00  0.00    +0.000 A 
ATOM     12  N   UNL     1       5.339   3.969  15.818  0.00  0.00    +0.000 NA
ATOM     13  C   UNL     1       4.560   4.602  18.460  0.00  0.00    +0.000 C 
ATOM     14  C   UNL     1       3.074   4.947  18.644  0.00  0.00    +0.000 C 
ENDROOT
BRANCH   2  15
ATOM     15  C   UNL     1       1.528   8.115  20.116  0.00  0.00    +0.000 A 
ATOM     16  N   UNL     1       1.365   8.957  19.114  0.00  0.00    +0.000 NA
ATOM     17  C   UNL     1       0.896  10.177  19.584  0.00  0.00    +0.000 A 
ATOM     18  C   UNL     1       0.606  11.314  18.818  0.00  0.00    +0.000 A 
ATOM     19  N   UNL     1       0.142  12.448  19.400  0.00  0.00    +0.000 NA
ATOM     20  C   UNL     1      -0.040  12.469  20.735  0.00  0.00    +0.000 A 
ATOM     21  C   UNL     1       0.223  11.405  21.582  0.00  0.00    +0.000 A 
ATOM     22  C   UNL     1       0.700  10.247  20.964  0.00  0.00    +0.000 A 
ATOM     23  S   UNL     1       1.123   8.734  21.668  0.00  0.00    +0.000 S 
ENDBRANCH   2  15
TORSDOF 1
ENDMDL
MODEL 6
REMARK VINA RESULT:      -6.3      3.214      8.523
REMARK  Name = 
REMARK  1 active torsions:
REMARK  status: ('A' for Active; 'I' for Inactive)
REMARK    1  A    between atoms: C_2  and  C_3
REMARK                            x       y       z     vdW  Elec       q    Type
REMARK                         _______ _______ _______ _____ _____    ______ ____
ROOT
ATOM      1  O   UNL     1       1.467   9.635  17.454  0.00  0.00    +0.000 OA
ATOM      2  C   UNL     1       1.478   9.369  18.660  0.00  0.00    +0.000 C 
ATOM      3  N   UNL     1       1.932   8.109  19.081  0.00  0.00    +0.000 N 
ATOM      4  C   UNL     1       1.894   7.588  20.455  0.00  0.00    +0.000 C 
ATOM      5  C   UNL     1       1.401   6.128  20.518  0.00  0.00    +0.000 C 
ATOM      6  N   UNL     1       2.089   5.280  19.543  0.00  0.00    +0.000 N 
ATOM      7  C   UNL     1       2.871   4.216  19.939  0.00  0.00    +0.000 A 
ATOM      8  C   UNL     1       2.516   3.390  21.017  0.00  0.00    +0.000 A 
ATOM      9  N   UNL     1       3.238   2.325  21.454  0.00  0.00    +0.000 NA
ATOM     10  C   UNL     1       4.363   2.088  20.755  0.00  0.00    +0.000 A 
ATOM     11  C   UNL     1       4.733   2.872  19.680  0.00  0.00    +0.000 A 
ATOM     12  N   UNL     1       4.002   3.932  19.252  0.00  0.00    +0.000 NA
ATOM     13  C   UNL     1       2.169   5.792  18.171  0.00  0.00    +0.000 C 
ATOM     14  C   UNL     1       2.654   7.250  18.131  0.00  0.00    +0.000 C 
ENDROOT
BRANCH   2  15
ATOM     15  C   UNL     1       1.020  10.346  19.660  0.00  0.00    +0.000 A 
ATOM     16  N   UNL     1       1.534  11.547  19.839  0.00  0.00    +0.000 NA
ATOM     17  C   UNL     1       0.837  12.224  20.832  0.00  0.00    +0.000 A 
ATOM     18  C   UNL     1       1.092  13.520  21.299  0.00  0.00    +0.000 A 
ATOM     19  N   UNL     1       0.327  14.075  22.272  0.00  0.00    +0.000 NA
ATOM     20  C   UNL     1      -0.690  13.358  22.790  0.00  0.00    +0.000 A 
ATOM     21  C   UNL     1      -1.021  12.069  22.406  0.00  0.00    +0.000 A 
ATOM     22  C   UNL     1      -0.222  11.516  21.402  0.00  0.00    +0.000 A 
ATOM     23  S   UNL     1      -0.325   9.967  20.661  0.00  0.00    +0.000 S 
ENDBRANCH   2  15
TORSDOF 1
ENDMDL
MODEL 7
REMARK VINA RESULT:      -6.3      1.865      8.337
REMARK  Name = 
REMARK  1 active torsions:
REMARK  status: ('A' for Active; 'I' for Inactive)
REMARK    1  A    between atoms: C_2  and  C_3
REMARK                            x       y       z     vdW  Elec       q    Type
REMARK                         _______ _______ _______ _____ _____    ______ ____
ROOT
ATOM      1  O   UNL     1       2.356   4.368  19.212  0.00  0.00    +0.000 OA
ATOM      2  C   UNL     1       2.719   5.397  18.634  0.00  0.00    +0.000 C 
ATOM      3  N   UNL     1       3.570   5.296  17.521  0.00  0.00    +0.000 N 
ATOM      4  C   UNL     1       4.192   6.416  16.801  0.00  0.00    +0.000 C 
ATOM      5  C   UNL     1       5.680   6.160  16.486  0.00  0.00    +0.000 C 
ATOM      6  N   UNL     1       5.890   4.839  15.893  0.00  0.00    +0.000 N 
ATOM      7  C   UNL     1       6.396   4.692  14.619  0.00  0.00    +0.000 A 
ATOM      8  C   UNL     1       7.408   5.527  14.119  0.00  0.00    +0.000 A 
ATOM      9  N   UNL     1       7.952   5.434  12.877  0.00  0.00    +0.000 NA
ATOM     10  C   UNL     1       7.451   4.440  12.121  0.00  0.00    +0.000 A 
ATOM     11  C   UNL     1       6.467   3.591  12.588  0.00  0.00    +0.000 A 
ATOM     12  N   UNL     1       5.932   3.695  13.831  0.00  0.00    +0.000 NA
ATOM     13  C   UNL     1       5.253   3.707  16.575  0.00  0.00    +0.000 C 
ATOM     14  C   UNL     1       3.774   3.986  16.887  0.00  0.00    +0.000 C 
ENDROOT
BRANCH   2  15
ATOM     15  C   UNL     1       2.281   6.723  19.093  0.00  0.00    +0.000 A 
ATOM     16  N   UNL     1       2.164   7.792  18.329  0.00  0.00    +0.000 NA
ATOM     17  C   UNL     1       1.683   8.862  19.071  0.00  0.00    +0.000 A 
ATOM     18  C   UNL     1       1.431  10.160  18.604  0.00  0.00    +0.000 A 
ATOM     19  N   UNL     1       0.950  11.119  19.433  0.00  0.00    +0.000 NA
ATOM     20  C   UNL     1       0.713  10.808  20.723  0.00  0.00    +0.000 A 
ATOM     21  C   UNL     1       0.935   9.562  21.286  0.00  0.00    +0.000 A 
ATOM     22  C   UNL     1       1.430   8.588  20.416  0.00  0.00    +0.000 A 
ATOM     23  S   UNL     1       1.815   6.941  20.734  0.00  0.00    +0.000 S 
ENDBRANCH   2  15
TORSDOF 1
ENDMDL
MODEL 8
REMARK VINA RESULT:      -6.2      2.028      8.242
REMARK  Name = 
REMARK  1 active torsions:
REMARK  status: ('A' for Active; 'I' for Inactive)
REMARK    1  A    between atoms: C_2  and  C_3
REMARK                            x       y       z     vdW  Elec       q    Type
REMARK                         _______ _______ _______ _____ _____    ______ ____
ROOT
ATOM      1  O   UNL     1       1.843   4.534  19.612  0.00  0.00    +0.000 OA
ATOM      2  C   UNL     1       2.292   5.561  19.095  0.00  0.00    +0.000 C 
ATOM      3  N   UNL     1       3.206   5.453  18.034  0.00  0.00    +0.000 N 
ATOM      4  C   UNL     1       3.926   6.561  17.393  0.00  0.00    +0.000 C 
ATOM      5  C   UNL     1       5.417   6.239  17.161  0.00  0.00    +0.000 C 
ATOM      6  N   UNL     1       5.598   4.928  16.536  0.00  0.00    +0.000 N 
ATOM      7  C   UNL     1       6.177   4.797  15.292  0.00  0.00    +0.000 A 
ATOM      8  C   UNL     1       7.258   5.594  14.885  0.00  0.00    +0.000 A 
ATOM      9  N   UNL     1       7.875   5.513  13.677  0.00  0.00    +0.000 NA
ATOM     10  C   UNL     1       7.374   4.570  12.856  0.00  0.00    +0.000 A 
ATOM     11  C   UNL     1       6.322   3.759  13.232  0.00  0.00    +0.000 A 
ATOM     12  N   UNL     1       5.714   3.850  14.442  0.00  0.00    +0.000 NA
ATOM     13  C   UNL     1       4.864   3.809  17.138  0.00  0.00    +0.000 C 
ATOM     14  C   UNL     1       3.384   4.154  17.367  0.00  0.00    +0.000 C 
ENDROOT
BRANCH   2  15
ATOM     15  C   UNL     1       1.891   6.893  19.572  0.00  0.00    +0.000 A 
ATOM     16  N   UNL     1       1.646   7.207  20.829  0.00  0.00    +0.000 NA
ATOM     17  C   UNL     1       1.338   8.558  20.935  0.00  0.00    +0.000 A 
ATOM     18  C   UNL     1       1.020   9.254  22.109  0.00  0.00    +0.000 A 
ATOM     19  N   UNL     1       0.747  10.583  22.080  0.00  0.00    +0.000 NA
ATOM     20  C   UNL     1       0.785  11.231  20.898  0.00  0.00    +0.000 A 
ATOM     21  C   UNL     1       1.079  10.635  19.683  0.00  0.00    +0.000 A 
ATOM     22  C   UNL     1       1.359   9.268  19.734  0.00  0.00    +0.000 A 
ATOM     23  S   UNL     1       1.775   8.194  18.455  0.00  0.00    +0.000 S 
ENDBRANCH   2  15
TORSDOF 1
ENDMDL
MODEL 9
REMARK VINA RESULT:      -6.2      3.302      8.605
REMARK  Name = 
REMARK  1 active torsions:
REMARK  status: ('A' for Active; 'I' for Inactive)
REMARK    1  A    between atoms: C_2  and  C_3
REMARK                            x       y       z     vdW  Elec       q    Type
REMARK                         _______ _______ _______ _____ _____    ______ ____
ROOT
ATOM      1  O   UNL     1       1.567   9.585  17.446  0.00  0.00    +0.000 OA
ATOM      2  C   UNL     1       1.492   9.303  18.646  0.00  0.00    +0.000 C 
ATOM      3  N   UNL     1       1.939   8.046  19.084  0.00  0.00    +0.000 N 
ATOM      4  C   UNL     1       1.808   7.506  20.445  0.00  0.00    +0.000 C 
ATOM      5  C   UNL     1       1.342   6.036  20.452  0.00  0.00    +0.000 C 
ATOM      6  N   UNL     1       2.119   5.214  19.523  0.00  0.00    +0.000 N 
ATOM      7  C   UNL     1       2.891   4.160  19.963  0.00  0.00    +0.000 A 
ATOM      8  C   UNL     1       2.472   3.313  21.001  0.00  0.00    +0.000 A 
ATOM      9  N   UNL     1       3.181   2.257  21.479  0.00  0.00    +0.000 NA
ATOM     10  C   UNL     1       4.360   2.052  20.864  0.00  0.00    +0.000 A 
ATOM     11  C   UNL     1       4.794   2.857  19.830  0.00  0.00    +0.000 A 
ATOM     12  N   UNL     1       4.076   3.909  19.361  0.00  0.00    +0.000 NA
ATOM     13  C   UNL     1       2.291   5.747  18.166  0.00  0.00    +0.000 C 
ATOM     14  C   UNL     1       2.748   7.214  18.182  0.00  0.00    +0.000 C 
ENDROOT
BRANCH   2  15
ATOM     15  C   UNL     1       0.940  10.256  19.619  0.00  0.00    +0.000 A 
ATOM     16  N   UNL     1       0.224   9.932  20.678  0.00  0.00    +0.000 NA
ATOM     17  C   UNL     1      -0.097  11.070  21.408  0.00  0.00    +0.000 A 
ATOM     18  C   UNL     1      -0.847  11.123  22.590  0.00  0.00    +0.000 A 
ATOM     19  N   UNL     1      -1.083  12.303  23.215  0.00  0.00    +0.000 NA
ATOM     20  C   UNL     1      -0.583  13.435  22.681  0.00  0.00    +0.000 A 
ATOM     21  C   UNL     1       0.161  13.494  21.514  0.00  0.00    +0.000 A 
ATOM     22  C   UNL     1       0.394  12.268  20.887  0.00  0.00    +0.000 A 
ATOM     23  S   UNL     1       1.275  11.934  19.446  0.00  0.00    +0.000 S 
ENDBRANCH   2  15
TORSDOF 1
ENDMDL
