MODEL 1
REMARK VINA RESULT:      -7.6      0.000      0.000
REMARK  Name = 
REMARK  12 active torsions:
REMARK  status: ('A' for Active; 'I' for Inactive)
REMARK    1  A    between atoms: C_2  and  C_4
REMARK    2  A    between atoms: C_4  and  C_5
REMARK    3  A    between atoms: C_5  and  O_6
REMARK    4  A    between atoms: C_10  and  C_11
REMARK    5  A    between atoms: C_11  and  C_12
REMARK    6  A    between atoms: C_12  and  C_13
REMARK    7  A    between atoms: C_13  and  O_14
REMARK    8  A    between atoms: C_13  and  C_15
REMARK    9  A    between atoms: C_15  and  C_16
REMARK   10  A    between atoms: C_16  and  C_17
REMARK   11  A    between atoms: C_17  and  C_18
REMARK   12  A    between atoms: C_18  and  C_19
REMARK                            x       y       z     vdW  Elec       q    Type
REMARK                         _______ _______ _______ _____ _____    ______ ____
ROOT
ATOM      1  C   UNL     1       3.219   2.495  17.872  0.00  0.00    +0.000 C 
ENDROOT
BRANCH   1   2
ATOM      2  C   UNL     1       3.523   3.725  17.014  0.00  0.00    +0.000 C 
BRANCH   2   7
ATOM      3  C   UNL     1       7.088   5.251  17.363  0.00  0.00    +0.000 C 
ATOM      4  C   UNL     1       7.378   5.494  15.873  0.00  0.00    +0.000 C 
ATOM      5  C   UNL     1       6.806   4.382  14.993  0.00  0.00    +0.000 C 
ATOM      6  C   UNL     1       5.316   4.175  15.252  0.00  0.00    +0.000 C 
ATOM      7  C   UNL     1       5.024   3.914  16.738  0.00  0.00    +0.000 C 
ATOM      8  C   UNL     1       5.585   5.038  17.616  0.00  0.00    +0.000 C 
BRANCH   3   9
ATOM      9  O   UNL     1       7.735   4.002  17.719  0.00  0.00    +0.000 OA
ATOM     10  H   UNL     1       8.144   3.657  16.906  0.00  0.00    +0.000 HD
ENDBRANCH   3   9
BRANCH   3  11
ATOM     11  C   UNL     1       7.674   6.325  18.274  0.00  0.00    +0.000 C 
BRANCH  11  13
ATOM     12  O   UNL     1       8.525   8.552  18.340  0.00  0.00    +0.000 OA
ATOM     13  C   UNL     1       7.689   7.778  17.796  0.00  0.00    +0.000 C 
ATOM     14  O   UNL     1       6.850   8.032  16.888  0.00  0.00    +0.000 OA
ENDBRANCH  11  13
ENDBRANCH   3  11
ENDBRANCH   2   7
ENDBRANCH   1   2
BRANCH   1  15
ATOM     15  C   UNL     1       1.749   2.413  18.309  0.00  0.00    +0.000 C 
BRANCH  15  16
ATOM     16  O   UNL     1       1.657   1.527  19.423  0.00  0.00    +0.000 OA
ATOM     17  H   UNL     1       1.342   2.019  20.196  0.00  0.00    +0.000 HD
ENDBRANCH  15  16
BRANCH  15  18
ATOM     18  C   UNL     1       1.179   3.765  18.715  0.00  0.00    +0.000 C 
BRANCH  18  19
ATOM     19  C   UNL     1       1.158   3.981  20.231  0.00  0.00    +0.000 C 
BRANCH  19  20
ATOM     20  C   UNL     1       2.149   5.055  20.671  0.00  0.00    +0.000 C 
BRANCH  20  21
ATOM     21  C   UNL     1       2.666   5.866  19.479  0.00  0.00    +0.000 C 
BRANCH  21  22
ATOM     22  C   UNL     1       2.081   7.251  19.451  0.00  0.00    +0.000 A 
ATOM     23  C   UNL     1       2.230   8.037  18.301  0.00  0.00    +0.000 A 
ATOM     24  C   UNL     1       1.700   9.323  18.256  0.00  0.00    +0.000 A 
ATOM     25  C   UNL     1       1.038   9.832  19.372  0.00  0.00    +0.000 A 
ATOM     26  C   UNL     1       0.900   9.056  20.520  0.00  0.00    +0.000 A 
ATOM     27  C   UNL     1       1.425   7.770  20.563  0.00  0.00    +0.000 A 
ENDBRANCH  21  22
ENDBRANCH  20  21
ENDBRANCH  19  20
ENDBRANCH  18  19
ENDBRANCH  15  18
ENDBRANCH   1  15
TORSDOF 12
ENDMDL
MODEL 2
REMARK VINA RESULT:      -7.6      3.358      6.808
REMARK  Name = 
REMARK  12 active torsions:
REMARK  status: ('A' for Active; 'I' for Inactive)
REMARK    1  A    between atoms: C_2  and  C_4
REMARK    2  A    between atoms: C_4  and  C_5
REMARK    3  A    between atoms: C_5  and  O_6
REMARK    4  A    between atoms: C_10  and  C_11
REMARK    5  A    between atoms: C_11  and  C_12
REMARK    6  A    between atoms: C_12  and  C_13
REMARK    7  A    between atoms: C_13  and  O_14
REMARK    8  A    between atoms: C_13  and  C_15
REMARK    9  A    between atoms: C_15  and  C_16
REMARK   10  A    between atoms: C_16  and  C_17
REMARK   11  A    between atoms: C_17  and  C_18
REMARK   12  A    between atoms: C_18  and  C_19
REMARK                            x       y       z     vdW  Elec       q    Type
REMARK                         _______ _______ _______ _____ _____    ______ ____
ROOT
ATOM      1  C   UNL     1       2.444   4.786  20.966  0.00  0.00    +0.000 C 
ENDROOT
BRANCH   1   2
ATOM      2  C   UNL     1       2.537   5.636  19.698  0.00  0.00    +0.000 C 
BRANCH   2   7
ATOM      3  C   UNL     1       0.678   8.751  21.113  0.00  0.00    +0.000 C 
ATOM      4  C   UNL     1       0.519   9.536  19.800  0.00  0.00    +0.000 C 
ATOM      5  C   UNL     1       1.738   9.379  18.891  0.00  0.00    +0.000 C 
ATOM      6  C   UNL     1       2.059   7.908  18.635  0.00  0.00    +0.000 C 
ATOM      7  C   UNL     1       2.236   7.124  19.944  0.00  0.00    +0.000 C 
ATOM      8  C   UNL     1       1.005   7.271  20.846  0.00  0.00    +0.000 C 
BRANCH   3   9
ATOM      9  O   UNL     1       1.834   9.301  21.793  0.00  0.00    +0.000 OA
ATOM     10  H   UNL     1       1.995  10.179  21.408  0.00  0.00    +0.000 HD
ENDBRANCH   3   9
BRANCH   3  11
ATOM     11  C   UNL     1      -0.508   8.913  22.058  0.00  0.00    +0.000 C 
BRANCH  11  13
ATOM     12  O   UNL     1       0.478   9.624  24.110  0.00  0.00    +0.000 OA
ATOM     13  C   UNL     1      -0.394   9.883  23.235  0.00  0.00    +0.000 C 
ATOM     14  O   UNL     1      -1.201  10.853  23.185  0.00  0.00    +0.000 OA
ENDBRANCH  11  13
ENDBRANCH   3  11
ENDBRANCH   2   7
ENDBRANCH   1   2
BRANCH   1  15
ATOM     15  C   UNL     1       2.357   3.279  20.677  0.00  0.00    +0.000 C 
BRANCH  15  16
ATOM     16  O   UNL     1       2.323   2.582  21.920  0.00  0.00    +0.000 OA
ATOM     17  H   UNL     1       3.082   1.979  21.968  0.00  0.00    +0.000 HD
ENDBRANCH  15  16
BRANCH  15  18
ATOM     18  C   UNL     1       1.119   2.905  19.876  0.00  0.00    +0.000 C 
BRANCH  18  19
ATOM     19  C   UNL     1       1.443   2.221  18.544  0.00  0.00    +0.000 C 
BRANCH  19  20
ATOM     20  C   UNL     1       2.917   2.362  18.171  0.00  0.00    +0.000 C 
BRANCH  20  21
ATOM     21  C   UNL     1       3.125   3.429  17.092  0.00  0.00    +0.000 C 
BRANCH  21  22
ATOM     22  C   UNL     1       4.562   3.867  17.013  0.00  0.00    +0.000 A 
ATOM     23  C   UNL     1       5.242   4.207  18.189  0.00  0.00    +0.000 A 
ATOM     24  C   UNL     1       6.571   4.619  18.138  0.00  0.00    +0.000 A 
ATOM     25  C   UNL     1       7.214   4.711  16.904  0.00  0.00    +0.000 A 
ATOM     26  C   UNL     1       6.534   4.385  15.733  0.00  0.00    +0.000 A 
ATOM     27  C   UNL     1       5.209   3.969  15.786  0.00  0.00    +0.000 A 
ENDBRANCH  21  22
ENDBRANCH  20  21
ENDBRANCH  19  20
ENDBRANCH  18  19
ENDBRANCH  15  18
ENDBRANCH   1  15
TORSDOF 12
ENDMDL
MODEL 3
REMARK VINA RESULT:      -7.5      3.480      7.865
REMARK  Name = 
REMARK  12 active torsions:
REMARK  status: ('A' for Active; 'I' for Inactive)
REMARK    1  A    between atoms: C_2  and  C_4
REMARK    2  A    between atoms: C_4  and  C_5
REMARK    3  A    between atoms: C_5  and  O_6
REMARK    4  A    between atoms: C_10  and  C_11
REMARK    5  A    between atoms: C_11  and  C_12
REMARK    6  A    between atoms: C_12  and  C_13
REMARK    7  A    between atoms: C_13  and  O_14
REMARK    8  A    between atoms: C_13  and  C_15
REMARK    9  A    between atoms: C_15  and  C_16
REMARK   10  A    between atoms: C_16  and  C_17
REMARK   11  A    between atoms: C_17  and  C_18
REMARK   12  A    between atoms: C_18  and  C_19
REMARK                            x       y       z     vdW  Elec       q    Type
REMARK                         _______ _______ _______ _____ _____    ______ ____
ROOT
ATOM      1  C   UNL     1       5.581   6.253  16.790  0.00  0.00    +0.000 C 
ENDROOT
BRANCH   1   2
ATOM      2  C   UNL     1       4.173   6.350  17.381  0.00  0.00    +0.000 C 
BRANCH   2   7
ATOM      3  C   UNL     1       1.905   3.580  18.912  0.00  0.00    +0.000 C 
ATOM      4  C   UNL     1       2.893   2.406  18.829  0.00  0.00    +0.000 C 
ATOM      5  C   UNL     1       3.746   2.467  17.561  0.00  0.00    +0.000 C 
ATOM      6  C   UNL     1       4.455   3.812  17.428  0.00  0.00    +0.000 C 
ATOM      7  C   UNL     1       3.468   4.988  17.492  0.00  0.00    +0.000 C 
ATOM      8  C   UNL     1       2.626   4.933  18.772  0.00  0.00    +0.000 C 
BRANCH   3   9
ATOM      9  O   UNL     1       1.028   3.473  17.761  0.00  0.00    +0.000 OA
ATOM     10  H   UNL     1       1.270   4.195  17.157  0.00  0.00    +0.000 HD
ENDBRANCH   3   9
BRANCH   3  11
ATOM     11  C   UNL     1       1.015   3.533  20.150  0.00  0.00    +0.000 C 
BRANCH  11  13
ATOM     12  O   UNL     1       1.351   2.244  22.128  0.00  0.00    +0.000 OA
ATOM     13  C   UNL     1       1.657   3.307  21.519  0.00  0.00    +0.000 C 
ATOM     14  O   UNL     1       2.441   4.228  21.881  0.00  0.00    +0.000 OA
ENDBRANCH  11  13
ENDBRANCH   3  11
ENDBRANCH   2   7
ENDBRANCH   1   2
BRANCH   1  15
ATOM     15  C   UNL     1       6.682   6.646  17.786  0.00  0.00    +0.000 C 
BRANCH  15  16
ATOM     16  O   UNL     1       7.638   5.590  17.845  0.00  0.00    +0.000 OA
ATOM     17  H   UNL     1       7.354   4.871  17.260  0.00  0.00    +0.000 HD
ENDBRANCH  15  16
BRANCH  15  18
ATOM     18  C   UNL     1       7.401   7.930  17.393  0.00  0.00    +0.000 C 
BRANCH  18  19
ATOM     19  C   UNL     1       8.438   8.383  18.424  0.00  0.00    +0.000 C 
BRANCH  19  20
ATOM     20  C   UNL     1       8.805   9.855  18.259  0.00  0.00    +0.000 C 
BRANCH  20  21
ATOM     21  C   UNL     1       9.497  10.406  19.510  0.00  0.00    +0.000 C 
BRANCH  21  22
ATOM     22  C   UNL     1      10.473  11.499  19.170  0.00  0.00    +0.000 A 
ATOM     23  C   UNL     1      10.862  12.406  20.164  0.00  0.00    +0.000 A 
ATOM     24  C   UNL     1      11.762  13.427  19.870  0.00  0.00    +0.000 A 
ATOM     25  C   UNL     1      12.256  13.554  18.572  0.00  0.00    +0.000 A 
ATOM     26  C   UNL     1      11.860  12.660  17.581  0.00  0.00    +0.000 A 
ATOM     27  C   UNL     1      10.966  11.637  17.876  0.00  0.00    +0.000 A 
ENDBRANCH  21  22
ENDBRANCH  20  21
ENDBRANCH  19  20
ENDBRANCH  18  19
ENDBRANCH  15  18
ENDBRANCH   1  15
TORSDOF 12
ENDMDL
MODEL 4
REMARK VINA RESULT:      -7.4      1.984      3.046
REMARK  Name = 
REMARK  12 active torsions:
REMARK  status: ('A' for Active; 'I' for Inactive)
REMARK    1  A    between atoms: C_2  and  C_4
REMARK    2  A    between atoms: C_4  and  C_5
REMARK    3  A    between atoms: C_5  and  O_6
REMARK    4  A    between atoms: C_10  and  C_11
REMARK    5  A    between atoms: C_11  and  C_12
REMARK    6  A    between atoms: C_12  and  C_13
REMARK    7  A    between atoms: C_13  and  O_14
REMARK    8  A    between atoms: C_13  and  C_15
REMARK    9  A    between atoms: C_15  and  C_16
REMARK   10  A    between atoms: C_16  and  C_17
REMARK   11  A    between atoms: C_17  and  C_18
REMARK   12  A    between atoms: C_18  and  C_19
REMARK                            x       y       z     vdW  Elec       q    Type
REMARK                         _______ _______ _______ _____ _____    ______ ____
ROOT
ATOM      1  C   UNL     1       2.737   2.745  17.856  0.00  0.00    +0.000 C 
ENDROOT
BRANCH   1   2
ATOM      2  C   UNL     1       4.192   3.018  18.243  0.00  0.00    +0.000 C 
BRANCH   2   7
ATOM      3  C   UNL     1       6.273   5.071  15.671  0.00  0.00    +0.000 C 
ATOM      4  C   UNL     1       7.019   5.983  16.659  0.00  0.00    +0.000 C 
ATOM      5  C   UNL     1       6.135   6.388  17.839  0.00  0.00    +0.000 C 
ATOM      6  C   UNL     1       5.539   5.167  18.537  0.00  0.00    +0.000 C 
ATOM      7  C   UNL     1       4.778   4.262  17.555  0.00  0.00    +0.000 C 
ATOM      8  C   UNL     1       5.671   3.845  16.382  0.00  0.00    +0.000 C 
BRANCH   3   9
ATOM      9  O   UNL     1       5.148   5.833  15.164  0.00  0.00    +0.000 OA
ATOM     10  H   UNL     1       4.420   5.202  15.030  0.00  0.00    +0.000 HD
ENDBRANCH   3   9
BRANCH   3  11
ATOM     11  C   UNL     1       7.116   4.674  14.464  0.00  0.00    +0.000 C 
BRANCH  11  13
ATOM     12  O   UNL     1       5.202   3.847  13.308  0.00  0.00    +0.000 OA
ATOM     13  C   UNL     1       6.416   4.173  13.200  0.00  0.00    +0.000 C 
ATOM     14  O   UNL     1       7.153   4.154  12.174  0.00  0.00    +0.000 OA
ENDBRANCH  11  13
ENDBRANCH   3  11
ENDBRANCH   2   7
ENDBRANCH   1   2
BRANCH   1  15
ATOM     15  C   UNL     1       1.785   3.886  18.246  0.00  0.00    +0.000 C 
BRANCH  15  16
ATOM     16  O   UNL     1       0.894   4.123  17.159  0.00  0.00    +0.000 OA
ATOM     17  H   UNL     1       0.612   3.274  16.786  0.00  0.00    +0.000 HD
ENDBRANCH  15  16
BRANCH  15  18
ATOM     18  C   UNL     1       0.963   3.567  19.487  0.00  0.00    +0.000 C 
BRANCH  18  19
ATOM     19  C   UNL     1       1.617   4.046  20.787  0.00  0.00    +0.000 C 
BRANCH  19  20
ATOM     20  C   UNL     1       2.427   5.323  20.583  0.00  0.00    +0.000 C 
BRANCH  20  21
ATOM     21  C   UNL     1       1.605   6.571  20.924  0.00  0.00    +0.000 C 
BRANCH  21  22
ATOM     22  C   UNL     1       1.731   7.627  19.861  0.00  0.00    +0.000 A 
ATOM     23  C   UNL     1       2.484   7.358  18.711  0.00  0.00    +0.000 A 
ATOM     24  C   UNL     1       2.616   8.323  17.716  0.00  0.00    +0.000 A 
ATOM     25  C   UNL     1       2.012   9.568  17.884  0.00  0.00    +0.000 A 
ATOM     26  C   UNL     1       1.274   9.841  19.033  0.00  0.00    +0.000 A 
ATOM     27  C   UNL     1       1.137   8.875  20.023  0.00  0.00    +0.000 A 
ENDBRANCH  21  22
ENDBRANCH  20  21
ENDBRANCH  19  20
ENDBRANCH  18  19
ENDBRANCH  15  18
ENDBRANCH   1  15
TORSDOF 12
ENDMDL
MODEL 5
REMARK VINA RESULT:      -7.4      1.739      2.777
REMARK  Name = 
REMARK  12 active torsions:
REMARK  status: ('A' for Active; 'I' for Inactive)
REMARK    1  A    between atoms: C_2  and  C_4
REMARK    2  A    between atoms: C_4  and  C_5
REMARK    3  A    between atoms: C_5  and  O_6
REMARK    4  A    between atoms: C_10  and  C_11
REMARK    5  A    between atoms: C_11  and  C_12
REMARK    6  A    between atoms: C_12  and  C_13
REMARK    7  A    between atoms: C_13  and  O_14
REMARK    8  A    between atoms: C_13  and  C_15
REMARK    9  A    between atoms: C_15  and  C_16
REMARK   10  A    between atoms: C_16  and  C_17
REMARK   11  A    between atoms: C_17  and  C_18
REMARK   12  A    between atoms: C_18  and  C_19
REMARK                            x       y       z     vdW  Elec       q    Type
REMARK                         _______ _______ _______ _____ _____    ______ ____
ROOT
ATOM      1  C   UNL     1       2.369   3.234  17.325  0.00  0.00    +0.000 C 
ENDROOT
BRANCH   1   2
ATOM      2  C   UNL     1       3.882   3.055  17.452  0.00  0.00    +0.000 C 
BRANCH   2   7
ATOM      3  C   UNL     1       6.640   5.219  15.757  0.00  0.00    +0.000 C 
ATOM      4  C   UNL     1       7.136   5.971  17.003  0.00  0.00    +0.000 C 
ATOM      5  C   UNL     1       5.991   6.310  17.958  0.00  0.00    +0.000 C 
ATOM      6  C   UNL     1       5.188   5.066  18.331  0.00  0.00    +0.000 C 
ATOM      7  C   UNL     1       4.675   4.322  17.089  0.00  0.00    +0.000 C 
ATOM      8  C   UNL     1       5.827   3.970  16.141  0.00  0.00    +0.000 C 
BRANCH   3   9
ATOM      9  O   UNL     1       5.716   6.104  15.073  0.00  0.00    +0.000 OA
ATOM     10  H   UNL     1       6.005   6.148  14.146  0.00  0.00    +0.000 HD
ENDBRANCH   3   9
BRANCH   3  11
ATOM     11  C   UNL     1       7.753   4.894  14.766  0.00  0.00    +0.000 C 
BRANCH  11  13
ATOM     12  O   UNL     1       8.093   5.868  12.617  0.00  0.00    +0.000 OA
ATOM     13  C   UNL     1       7.466   4.987  13.267  0.00  0.00    +0.000 C 
ATOM     14  O   UNL     1       6.621   4.146  12.850  0.00  0.00    +0.000 OA
ENDBRANCH  11  13
ENDBRANCH   3  11
ENDBRANCH   2   7
ENDBRANCH   1   2
BRANCH   1  15
ATOM     15  C   UNL     1       1.603   2.817  18.589  0.00  0.00    +0.000 C 
BRANCH  15  16
ATOM     16  O   UNL     1       1.655   1.396  18.702  0.00  0.00    +0.000 OA
ATOM     17  H   UNL     1       1.211   1.125  19.520  0.00  0.00    +0.000 HD
ENDBRANCH  15  16
BRANCH  15  18
ATOM     18  C   UNL     1       2.184   3.426  19.857  0.00  0.00    +0.000 C 
BRANCH  18  19
ATOM     19  C   UNL     1       1.166   4.245  20.657  0.00  0.00    +0.000 C 
BRANCH  19  20
ATOM     20  C   UNL     1       1.664   5.659  20.941  0.00  0.00    +0.000 C 
BRANCH  20  21
ATOM     21  C   UNL     1       2.457   6.225  19.758  0.00  0.00    +0.000 C 
BRANCH  21  22
ATOM     22  C   UNL     1       2.032   7.629  19.425  0.00  0.00    +0.000 A 
ATOM     23  C   UNL     1       1.270   8.354  20.351  0.00  0.00    +0.000 A 
ATOM     24  C   UNL     1       0.864   9.654  20.061  0.00  0.00    +0.000 A 
ATOM     25  C   UNL     1       1.202  10.221  18.833  0.00  0.00    +0.000 A 
ATOM     26  C   UNL     1       1.949   9.496  17.908  0.00  0.00    +0.000 A 
ATOM     27  C   UNL     1       2.359   8.201  18.200  0.00  0.00    +0.000 A 
ENDBRANCH  21  22
ENDBRANCH  20  21
ENDBRANCH  19  20
ENDBRANCH  18  19
ENDBRANCH  15  18
ENDBRANCH   1  15
TORSDOF 12
ENDMDL
MODEL 6
REMARK VINA RESULT:      -7.4      3.449      6.771
REMARK  Name = 
REMARK  12 active torsions:
REMARK  status: ('A' for Active; 'I' for Inactive)
REMARK    1  A    between atoms: C_2  and  C_4
REMARK    2  A    between atoms: C_4  and  C_5
REMARK    3  A    between atoms: C_5  and  O_6
REMARK    4  A    between atoms: C_10  and  C_11
REMARK    5  A    between atoms: C_11  and  C_12
REMARK    6  A    between atoms: C_12  and  C_13
REMARK    7  A    between atoms: C_13  and  O_14
REMARK    8  A    between atoms: C_13  and  C_15
REMARK    9  A    between atoms: C_15  and  C_16
REMARK   10  A    between atoms: C_16  and  C_17
REMARK   11  A    between atoms: C_17  and  C_18
REMARK   12  A    between atoms: C_18  and  C_19
REMARK                            x       y       z     vdW  Elec       q    Type
REMARK                         _______ _______ _______ _____ _____    ______ ____
ROOT
ATOM      1  C   UNL     1       2.312   5.547  20.438  0.00  0.00    +0.000 C 
ENDROOT
BRANCH   1   2
ATOM      2  C   UNL     1       2.727   6.548  19.359  0.00  0.00    +0.000 C 
BRANCH   2   7
ATOM      3  C   UNL     1       0.469   9.325  20.892  0.00  0.00    +0.000 C 
ATOM      4  C   UNL     1       0.048  10.022  19.588  0.00  0.00    +0.000 C 
ATOM      5  C   UNL     1       1.187  10.055  18.567  0.00  0.00    +0.000 C 
ATOM      6  C   UNL     1       1.745   8.658  18.307  0.00  0.00    +0.000 C 
ATOM      7  C   UNL     1       2.183   7.965  19.607  0.00  0.00    +0.000 C 
ATOM      8  C   UNL     1       1.035   7.919  20.622  0.00  0.00    +0.000 C 
BRANCH   3   9
ATOM      9  O   UNL     1       1.563  10.098  21.447  0.00  0.00    +0.000 OA
ATOM     10  H   UNL     1       2.381   9.616  21.238  0.00  0.00    +0.000 HD
ENDBRANCH   3   9
BRANCH   3  11
ATOM     11  C   UNL     1      -0.634   9.303  21.945  0.00  0.00    +0.000 C 
BRANCH  11  13
ATOM     12  O   UNL     1       0.417   9.613  24.063  0.00  0.00    +0.000 OA
ATOM     13  C   UNL     1      -0.432  10.074  23.251  0.00  0.00    +0.000 C 
ATOM     14  O   UNL     1      -1.150  11.107  23.357  0.00  0.00    +0.000 OA
ENDBRANCH  11  13
ENDBRANCH   3  11
ENDBRANCH   2   7
ENDBRANCH   1   2
BRANCH   1  15
ATOM     15  C   UNL     1       1.735   4.244  19.863  0.00  0.00    +0.000 C 
BRANCH  15  16
ATOM     16  O   UNL     1       0.457   4.016  20.453  0.00  0.00    +0.000 OA
ATOM     17  H   UNL     1      -0.234   4.277  19.825  0.00  0.00    +0.000 HD
ENDBRANCH  15  16
BRANCH  15  18
ATOM     18  C   UNL     1       1.571   4.291  18.350  0.00  0.00    +0.000 C 
BRANCH  18  19
ATOM     19  C   UNL     1       2.090   3.033  17.646  0.00  0.00    +0.000 C 
BRANCH  19  20
ATOM     20  C   UNL     1       3.449   3.262  16.991  0.00  0.00    +0.000 C 
BRANCH  20  21
ATOM     21  C   UNL     1       4.557   3.430  18.036  0.00  0.00    +0.000 C 
BRANCH  21  22
ATOM     22  C   UNL     1       5.388   4.655  17.774  0.00  0.00    +0.000 A 
ATOM     23  C   UNL     1       6.594   4.827  18.466  0.00  0.00    +0.000 A 
ATOM     24  C   UNL     1       7.377   5.956  18.242  0.00  0.00    +0.000 A 
ATOM     25  C   UNL     1       6.941   6.926  17.340  0.00  0.00    +0.000 A 
ATOM     26  C   UNL     1       5.736   6.762  16.662  0.00  0.00    +0.000 A 
ATOM     27  C   UNL     1       4.957   5.631  16.881  0.00  0.00    +0.000 A 
ENDBRANCH  21  22
ENDBRANCH  20  21
ENDBRANCH  19  20
ENDBRANCH  18  19
ENDBRANCH  15  18
ENDBRANCH   1  15
TORSDOF 12
ENDMDL
MODEL 7
REMARK VINA RESULT:      -7.3      3.140      5.017
REMARK  Name = 
REMARK  12 active torsions:
REMARK  status: ('A' for Active; 'I' for Inactive)
REMARK    1  A    between atoms: C_2  and  C_4
REMARK    2  A    between atoms: C_4  and  C_5
REMARK    3  A    between atoms: C_5  and  O_6
REMARK    4  A    between atoms: C_10  and  C_11
REMARK    5  A    between atoms: C_11  and  C_12
REMARK    6  A    between atoms: C_12  and  C_13
REMARK    7  A    between atoms: C_13  and  O_14
REMARK    8  A    between atoms: C_13  and  C_15
REMARK    9  A    between atoms: C_15  and  C_16
REMARK   10  A    between atoms: C_16  and  C_17
REMARK   11  A    between atoms: C_17  and  C_18
REMARK   12  A    between atoms: C_18  and  C_19
REMARK                            x       y       z     vdW  Elec       q    Type
REMARK                         _______ _______ _______ _____ _____    ______ ____
ROOT
ATOM      1  C   UNL     1       2.230   7.235  20.251  0.00  0.00    +0.000 C 
ENDROOT
BRANCH   1   2
ATOM      2  C   UNL     1       1.649   5.849  19.967  0.00  0.00    +0.000 C 
BRANCH   2   7
ATOM      3  C   UNL     1       4.843   4.802  18.003  0.00  0.00    +0.000 C 
ATOM      4  C   UNL     1       4.168   3.985  16.889  0.00  0.00    +0.000 C 
ATOM      5  C   UNL     1       2.965   3.198  17.410  0.00  0.00    +0.000 C 
ATOM      6  C   UNL     1       1.969   4.108  18.127  0.00  0.00    +0.000 C 
ATOM      7  C   UNL     1       2.637   4.913  19.252  0.00  0.00    +0.000 C 
ATOM      8  C   UNL     1       3.834   5.713  18.724  0.00  0.00    +0.000 C 
BRANCH   3   9
ATOM      9  O   UNL     1       5.308   3.854  18.997  0.00  0.00    +0.000 OA
ATOM     10  H   UNL     1       5.528   3.035  18.521  0.00  0.00    +0.000 HD
ENDBRANCH   3   9
BRANCH   3  11
ATOM     11  C   UNL     1       6.069   5.575  17.524  0.00  0.00    +0.000 C 
BRANCH  11  13
ATOM     12  O   UNL     1       7.491   4.739  15.803  0.00  0.00    +0.000 OA
ATOM     13  C   UNL     1       7.298   4.799  17.049  0.00  0.00    +0.000 C 
ATOM     14  O   UNL     1       7.992   4.308  17.982  0.00  0.00    +0.000 OA
ENDBRANCH  11  13
ENDBRANCH   3  11
ENDBRANCH   2   7
ENDBRANCH   1   2
BRANCH   1  15
ATOM     15  C   UNL     1       1.286   8.129  21.070  0.00  0.00    +0.000 C 
BRANCH  15  16
ATOM     16  O   UNL     1       1.938   8.477  22.290  0.00  0.00    +0.000 OA
ATOM     17  H   UNL     1       1.270   8.628  22.976  0.00  0.00    +0.000 HD
ENDBRANCH  15  16
BRANCH  15  18
ATOM     18  C   UNL     1       0.908   9.410  20.340  0.00  0.00    +0.000 C 
BRANCH  18  19
ATOM     19  C   UNL     1       1.346   9.422  18.872  0.00  0.00    +0.000 C 
BRANCH  19  20
ATOM     20  C   UNL     1       0.232   9.898  17.945  0.00  0.00    +0.000 C 
BRANCH  20  21
ATOM     21  C   UNL     1      -1.079  10.121  18.707  0.00  0.00    +0.000 C 
BRANCH  21  22
ATOM     22  C   UNL     1      -2.215  10.445  17.777  0.00  0.00    +0.000 A 
ATOM     23  C   UNL     1      -2.240   9.875  16.498  0.00  0.00    +0.000 A 
ATOM     24  C   UNL     1      -3.281  10.165  15.620  0.00  0.00    +0.000 A 
ATOM     25  C   UNL     1      -4.287  11.045  16.016  0.00  0.00    +0.000 A 
ATOM     26  C   UNL     1      -4.256  11.623  17.283  0.00  0.00    +0.000 A 
ATOM     27  C   UNL     1      -3.219  11.328  18.161  0.00  0.00    +0.000 A 
ENDBRANCH  21  22
ENDBRANCH  20  21
ENDBRANCH  19  20
ENDBRANCH  18  19
ENDBRANCH  15  18
ENDBRANCH   1  15
TORSDOF 12
ENDMDL
MODEL 8
REMARK VINA RESULT:      -7.2      1.334      1.413
REMARK  Name = 
REMARK  12 active torsions:
REMARK  status: ('A' for Active; 'I' for Inactive)
REMARK    1  A    between atoms: C_2  and  C_4
REMARK    2  A    between atoms: C_4  and  C_5
REMARK    3  A    between atoms: C_5  and  O_6
REMARK    4  A    between atoms: C_10  and  C_11
REMARK    5  A    between atoms: C_11  and  C_12
REMARK    6  A    between atoms: C_12  and  C_13
REMARK    7  A    between atoms: C_13  and  O_14
REMARK    8  A    between atoms: C_13  and  C_15
REMARK    9  A    between atoms: C_15  and  C_16
REMARK   10  A    between atoms: C_16  and  C_17
REMARK   11  A    between atoms: C_17  and  C_18
REMARK   12  A    between atoms: C_18  and  C_19
REMARK                            x       y       z     vdW  Elec       q    Type
REMARK                         _______ _______ _______ _____ _____    ______ ____
ROOT
ATOM      1  C   UNL     1       3.652   2.188  17.901  0.00  0.00    +0.000 C 
ENDROOT
BRANCH   1   2
ATOM      2  C   UNL     1       3.618   3.295  16.846  0.00  0.00    +0.000 C 
BRANCH   2   7
ATOM      3  C   UNL     1       7.032   5.156  17.059  0.00  0.00    +0.000 C 
ATOM      4  C   UNL     1       7.017   5.818  15.672  0.00  0.00    +0.000 C 
ATOM      5  C   UNL     1       6.395   4.906  14.613  0.00  0.00    +0.000 C 
ATOM      6  C   UNL     1       5.004   4.434  15.028  0.00  0.00    +0.000 C 
ATOM      7  C   UNL     1       5.018   3.756  16.407  0.00  0.00    +0.000 C 
ATOM      8  C   UNL     1       5.627   4.679  17.470  0.00  0.00    +0.000 C 
BRANCH   3   9
ATOM      9  O   UNL     1       7.845   3.961  16.946  0.00  0.00    +0.000 OA
ATOM     10  H   UNL     1       7.975   3.800  15.996  0.00  0.00    +0.000 HD
ENDBRANCH   3   9
BRANCH   3  11
ATOM     11  C   UNL     1       7.675   6.027  18.134  0.00  0.00    +0.000 C 
BRANCH  11  13
ATOM     12  O   UNL     1       9.000   5.050  19.860  0.00  0.00    +0.000 OA
ATOM     13  C   UNL     1       7.849   5.461  19.544  0.00  0.00    +0.000 C 
ATOM     14  O   UNL     1       6.797   5.480  20.242  0.00  0.00    +0.000 OA
ENDBRANCH  11  13
ENDBRANCH   3  11
ENDBRANCH   2   7
ENDBRANCH   1   2
BRANCH   1  15
ATOM     15  C   UNL     1       2.512   2.295  18.925  0.00  0.00    +0.000 C 
BRANCH  15  16
ATOM     16  O   UNL     1       3.073   2.233  20.234  0.00  0.00    +0.000 OA
ATOM     17  H   UNL     1       2.404   2.507  20.881  0.00  0.00    +0.000 HD
ENDBRANCH  15  16
BRANCH  15  18
ATOM     18  C   UNL     1       1.724   3.590  18.795  0.00  0.00    +0.000 C 
BRANCH  18  19
ATOM     19  C   UNL     1       1.145   4.083  20.125  0.00  0.00    +0.000 C 
BRANCH  19  20
ATOM     20  C   UNL     1       2.063   5.091  20.811  0.00  0.00    +0.000 C 
BRANCH  20  21
ATOM     21  C   UNL     1       2.920   5.854  19.796  0.00  0.00    +0.000 C 
BRANCH  21  22
ATOM     22  C   UNL     1       2.307   7.179  19.436  0.00  0.00    +0.000 A 
ATOM     23  C   UNL     1       2.461   7.676  18.135  0.00  0.00    +0.000 A 
ATOM     24  C   UNL     1       1.905   8.902  17.781  0.00  0.00    +0.000 A 
ATOM     25  C   UNL     1       1.212   9.643  18.737  0.00  0.00    +0.000 A 
ATOM     26  C   UNL     1       1.069   9.156  20.034  0.00  0.00    +0.000 A 
ATOM     27  C   UNL     1       1.620   7.928  20.385  0.00  0.00    +0.000 A 
ENDBRANCH  21  22
ENDBRANCH  20  21
ENDBRANCH  19  20
ENDBRANCH  18  19
ENDBRANCH  15  18
ENDBRANCH   1  15
TORSDOF 12
ENDMDL
MODEL 9
REMARK VINA RESULT:      -7.1      3.282      6.607
REMARK  Name = 
REMARK  12 active torsions:
REMARK  status: ('A' for Active; 'I' for Inactive)
REMARK    1  A    between atoms: C_2  and  C_4
REMARK    2  A    between atoms: C_4  and  C_5
REMARK    3  A    between atoms: C_5  and  O_6
REMARK    4  A    between atoms: C_10  and  C_11
REMARK    5  A    between atoms: C_11  and  C_12
REMARK    6  A    between atoms: C_12  and  C_13
REMARK    7  A    between atoms: C_13  and  O_14
REMARK    8  A    between atoms: C_13  and  C_15
REMARK    9  A    between atoms: C_15  and  C_16
REMARK   10  A    between atoms: C_16  and  C_17
REMARK   11  A    between atoms: C_17  and  C_18
REMARK   12  A    between atoms: C_18  and  C_19
REMARK                            x       y       z     vdW  Elec       q    Type
REMARK                         _______ _______ _______ _____ _____    ______ ____
ROOT
ATOM      1  C   UNL     1       1.446   4.969  20.722  0.00  0.00    +0.000 C 
ENDROOT
BRANCH   1   2
ATOM      2  C   UNL     1       2.529   5.784  20.012  0.00  0.00    +0.000 C 
BRANCH   2   7
ATOM      3  C   UNL     1       0.661   9.110  20.793  0.00  0.00    +0.000 C 
ATOM      4  C   UNL     1       0.455   9.599  19.350  0.00  0.00    +0.000 C 
ATOM      5  C   UNL     1       1.653   9.265  18.459  0.00  0.00    +0.000 C 
ATOM      6  C   UNL     1       1.988   7.776  18.508  0.00  0.00    +0.000 C 
ATOM      7  C   UNL     1       2.211   7.287  19.948  0.00  0.00    +0.000 C 
ATOM      8  C   UNL     1       1.003   7.610  20.835  0.00  0.00    +0.000 C 
BRANCH   3   9
ATOM      9  O   UNL     1       1.827   9.801  21.308  0.00  0.00    +0.000 OA
ATOM     10  H   UNL     1       2.579   9.193  21.212  0.00  0.00    +0.000 HD
ENDBRANCH   3   9
BRANCH   3  11
ATOM     11  C   UNL     1      -0.501   9.456  21.717  0.00  0.00    +0.000 C 
BRANCH  11  13
ATOM     12  O   UNL     1      -0.418  11.547  22.861  0.00  0.00    +0.000 OA
ATOM     13  C   UNL     1      -0.235  10.302  22.963  0.00  0.00    +0.000 C 
ATOM     14  O   UNL     1       0.137   9.637  23.970  0.00  0.00    +0.000 OA
ENDBRANCH  11  13
ENDBRANCH   3  11
ENDBRANCH   2   7
ENDBRANCH   1   2
BRANCH   1  15
ATOM     15  C   UNL     1       1.574   3.457  20.484  0.00  0.00    +0.000 C 
BRANCH  15  16
ATOM     16  O   UNL     1       0.981   2.774  21.585  0.00  0.00    +0.000 OA
ATOM     17  H   UNL     1       0.322   3.351  22.001  0.00  0.00    +0.000 HD
ENDBRANCH  15  16
BRANCH  15  18
ATOM     18  C   UNL     1       0.887   3.003  19.203  0.00  0.00    +0.000 C 
BRANCH  18  19
ATOM     19  C   UNL     1       1.851   2.395  18.181  0.00  0.00    +0.000 C 
BRANCH  19  20
ATOM     20  C   UNL     1       2.603   3.465  17.395  0.00  0.00    +0.000 C 
BRANCH  20  21
ATOM     21  C   UNL     1       4.047   3.042  17.107  0.00  0.00    +0.000 C 
BRANCH  21  22
ATOM     22  C   UNL     1       4.930   4.227  16.830  0.00  0.00    +0.000 A 
ATOM     23  C   UNL     1       6.121   4.045  16.115  0.00  0.00    +0.000 A 
ATOM     24  C   UNL     1       6.954   5.128  15.850  0.00  0.00    +0.000 A 
ATOM     25  C   UNL     1       6.606   6.393  16.322  0.00  0.00    +0.000 A 
ATOM     26  C   UNL     1       5.429   6.573  17.044  0.00  0.00    +0.000 A 
ATOM     27  C   UNL     1       4.594   5.492  17.302  0.00  0.00    +0.000 A 
ENDBRANCH  21  22
ENDBRANCH  20  21
ENDBRANCH  19  20
ENDBRANCH  18  19
ENDBRANCH  15  18
ENDBRANCH   1  15
TORSDOF 12
ENDMDL
