MODEL 1
REMARK VINA RESULT:      -7.5      0.000      0.000
REMARK  Name = 
REMARK  3 active torsions:
REMARK  status: ('A' for Active; 'I' for Inactive)
REMARK    1  A    between atoms: O_1  and  C_2
REMARK    2  A    between atoms: C_5  and  N_6
REMARK    3  A    between atoms: C_11  and  C_12
REMARK                            x       y       z     vdW  Elec       q    Type
REMARK                         _______ _______ _______ _____ _____    ______ ____
ROOT
ATOM      1  N   UNL     1       4.325   5.205  19.804  0.00  0.00    +0.000 N 
ATOM      2  C   UNL     1       5.554   5.309  19.146  0.00  0.00    +0.000 A 
ATOM      3  N   UNL     1       6.650   5.509  19.891  0.00  0.00    +0.000 NA
ATOM      4  C   UNL     1       7.833   5.506  19.238  0.00  0.00    +0.000 A 
ATOM      5  C   UNL     1       7.958   5.304  17.886  0.00  0.00    +0.000 A 
ATOM      6  C   UNL     1       6.778   5.126  17.199  0.00  0.00    +0.000 A 
ATOM      7  N   UNL     1       5.585   5.149  17.818  0.00  0.00    +0.000 NA
ATOM      8  H   UNL     1       4.508   5.171  20.800  0.00  0.00    +0.000 HD
ENDROOT
BRANCH   1  12
ATOM      9  C   UNL     1       1.196   2.641  18.626  0.00  0.00    +0.000 A 
ATOM     10  C   UNL     1       1.256   3.921  18.092  0.00  0.00    +0.000 A 
ATOM     11  C   UNL     1       2.296   4.767  18.474  0.00  0.00    +0.000 A 
ATOM     12  C   UNL     1       3.269   4.358  19.402  0.00  0.00    +0.000 A 
ATOM     13  C   UNL     1       3.207   3.052  19.897  0.00  0.00    +0.000 A 
ATOM     14  C   UNL     1       2.164   2.199  19.521  0.00  0.00    +0.000 A 
BRANCH   9  15
ATOM     15  O   UNL     1       0.192   1.784  18.289  0.00  0.00    +0.000 OA
ATOM     16  H   UNL     1       0.573   1.057  17.770  0.00  0.00    +0.000 HD
ENDBRANCH   9  15
ENDBRANCH   1  12
BRANCH   6  17
ATOM     17  C   UNL     1       6.752   4.837  15.755  0.00  0.00    +0.000 A 
ATOM     18  N   UNL     1       7.574   5.359  14.861  0.00  0.00    +0.000 NA
ATOM     19  C   UNL     1       7.304   4.840  13.609  0.00  0.00    +0.000 A 
ATOM     20  C   UNL     1       6.273   3.931  13.546  0.00  0.00    +0.000 A 
ATOM     21  S   UNL     1       5.608   3.708  15.103  0.00  0.00    +0.000 S 
ENDBRANCH   6  17
TORSDOF 3
ENDMDL
MODEL 2
REMARK VINA RESULT:      -7.4      0.069      1.108
REMARK  Name = 
REMARK  3 active torsions:
REMARK  status: ('A' for Active; 'I' for Inactive)
REMARK    1  A    between atoms: O_1  and  C_2
REMARK    2  A    between atoms: C_5  and  N_6
REMARK    3  A    between atoms: C_11  and  C_12
REMARK                            x       y       z     vdW  Elec       q    Type
REMARK                         _______ _______ _______ _____ _____    ______ ____
ROOT
ATOM      1  N   UNL     1       4.332   5.162  19.854  0.00  0.00    +0.000 N 
ATOM      2  C   UNL     1       5.552   5.289  19.182  0.00  0.00    +0.000 A 
ATOM      3  N   UNL     1       6.652   5.517  19.913  0.00  0.00    +0.000 NA
ATOM      4  C   UNL     1       7.827   5.536  19.247  0.00  0.00    +0.000 A 
ATOM      5  C   UNL     1       7.941   5.329  17.895  0.00  0.00    +0.000 A 
ATOM      6  C   UNL     1       6.758   5.122  17.223  0.00  0.00    +0.000 A 
ATOM      7  N   UNL     1       5.572   5.122  17.855  0.00  0.00    +0.000 NA
ATOM      8  H   UNL     1       4.528   5.138  20.848  0.00  0.00    +0.000 HD
ENDROOT
BRANCH   1  12
ATOM      9  C   UNL     1       1.204   2.598  18.677  0.00  0.00    +0.000 A 
ATOM     10  C   UNL     1       2.120   2.155  19.622  0.00  0.00    +0.000 A 
ATOM     11  C   UNL     1       3.150   3.006  20.019  0.00  0.00    +0.000 A 
ATOM     12  C   UNL     1       3.291   4.291  19.468  0.00  0.00    +0.000 A 
ATOM     13  C   UNL     1       2.335   4.727  18.546  0.00  0.00    +0.000 A 
ATOM     14  C   UNL     1       1.301   3.876  18.140  0.00  0.00    +0.000 A 
BRANCH   9  15
ATOM     15  O   UNL     1       0.187   1.796  18.253  0.00  0.00    +0.000 OA
ATOM     16  H   UNL     1      -0.653   2.196  18.530  0.00  0.00    +0.000 HD
ENDBRANCH   9  15
ENDBRANCH   1  12
BRANCH   6  17
ATOM     17  C   UNL     1       6.722   4.824  15.780  0.00  0.00    +0.000 A 
ATOM     18  N   UNL     1       7.536   5.343  14.878  0.00  0.00    +0.000 NA
ATOM     19  C   UNL     1       7.258   4.816  13.630  0.00  0.00    +0.000 A 
ATOM     20  C   UNL     1       6.230   3.904  13.580  0.00  0.00    +0.000 A 
ATOM     21  S   UNL     1       5.577   3.688  15.144  0.00  0.00    +0.000 S 
ENDBRANCH   6  17
TORSDOF 3
ENDMDL
MODEL 3
REMARK VINA RESULT:      -7.1      3.347      4.769
REMARK  Name = 
REMARK  3 active torsions:
REMARK  status: ('A' for Active; 'I' for Inactive)
REMARK    1  A    between atoms: O_1  and  C_2
REMARK    2  A    between atoms: C_5  and  N_6
REMARK    3  A    between atoms: C_11  and  C_12
REMARK                            x       y       z     vdW  Elec       q    Type
REMARK                         _______ _______ _______ _____ _____    ______ ____
ROOT
ATOM      1  N   UNL     1       2.009   6.207  20.807  0.00  0.00    +0.000 N 
ATOM      2  C   UNL     1       2.719   5.059  20.443  0.00  0.00    +0.000 A 
ATOM      3  N   UNL     1       2.233   3.871  20.828  0.00  0.00    +0.000 NA
ATOM      4  C   UNL     1       2.884   2.776  20.378  0.00  0.00    +0.000 A 
ATOM      5  C   UNL     1       3.986   2.826  19.561  0.00  0.00    +0.000 A 
ATOM      6  C   UNL     1       4.426   4.088  19.232  0.00  0.00    +0.000 A 
ATOM      7  N   UNL     1       3.813   5.196  19.685  0.00  0.00    +0.000 NA
ATOM      8  H   UNL     1       1.130   5.912  21.215  0.00  0.00    +0.000 HD
ENDROOT
BRANCH   1  12
ATOM      9  C   UNL     1       1.632   9.681  18.454  0.00  0.00    +0.000 A 
ATOM     10  C   UNL     1       2.247   8.562  17.909  0.00  0.00    +0.000 A 
ATOM     11  C   UNL     1       2.364   7.408  18.684  0.00  0.00    +0.000 A 
ATOM     12  C   UNL     1       1.893   7.364  20.007  0.00  0.00    +0.000 A 
ATOM     13  C   UNL     1       1.245   8.493  20.519  0.00  0.00    +0.000 A 
ATOM     14  C   UNL     1       1.128   9.655  19.748  0.00  0.00    +0.000 A 
BRANCH   9  15
ATOM     15  O   UNL     1       1.505  10.833  17.736  0.00  0.00    +0.000 OA
ATOM     16  H   UNL     1       1.198  11.533  18.334  0.00  0.00    +0.000 HD
ENDBRANCH   9  15
ENDBRANCH   1  12
BRANCH   6  17
ATOM     17  C   UNL     1       5.557   4.306  18.313  0.00  0.00    +0.000 A 
ATOM     18  N   UNL     1       6.806   4.525  18.686  0.00  0.00    +0.000 NA
ATOM     19  C   UNL     1       7.620   4.641  17.575  0.00  0.00    +0.000 A 
ATOM     20  C   UNL     1       6.991   4.520  16.357  0.00  0.00    +0.000 A 
ATOM     21  S   UNL     1       5.321   4.251  16.597  0.00  0.00    +0.000 S 
ENDBRANCH   6  17
TORSDOF 3
ENDMDL
MODEL 4
REMARK VINA RESULT:      -7.0      3.762      6.135
REMARK  Name = 
REMARK  3 active torsions:
REMARK  status: ('A' for Active; 'I' for Inactive)
REMARK    1  A    between atoms: O_1  and  C_2
REMARK    2  A    between atoms: C_5  and  N_6
REMARK    3  A    between atoms: C_11  and  C_12
REMARK                            x       y       z     vdW  Elec       q    Type
REMARK                         _______ _______ _______ _____ _____    ______ ____
ROOT
ATOM      1  N   UNL     1       4.096   3.472  18.083  0.00  0.00    +0.000 N 
ATOM      2  C   UNL     1       3.306   4.224  18.959  0.00  0.00    +0.000 A 
ATOM      3  N   UNL     1       2.981   3.679  20.138  0.00  0.00    +0.000 NA
ATOM      4  C   UNL     1       2.302   4.466  21.002  0.00  0.00    +0.000 A 
ATOM      5  C   UNL     1       1.950   5.765  20.734  0.00  0.00    +0.000 A 
ATOM      6  C   UNL     1       2.309   6.235  19.491  0.00  0.00    +0.000 A 
ATOM      7  N   UNL     1       2.963   5.467  18.602  0.00  0.00    +0.000 NA
ATOM      8  H   UNL     1       4.407   2.645  18.580  0.00  0.00    +0.000 HD
ENDROOT
BRANCH   1  12
ATOM      9  C   UNL     1       7.005   5.065  15.486  0.00  0.00    +0.000 A 
ATOM     10  C   UNL     1       7.264   5.033  16.850  0.00  0.00    +0.000 A 
ATOM     11  C   UNL     1       6.306   4.497  17.710  0.00  0.00    +0.000 A 
ATOM     12  C   UNL     1       5.079   4.011  17.226  0.00  0.00    +0.000 A 
ATOM     13  C   UNL     1       4.858   4.021  15.845  0.00  0.00    +0.000 A 
ATOM     14  C   UNL     1       5.814   4.561  14.978  0.00  0.00    +0.000 A 
BRANCH   9  15
ATOM     15  O   UNL     1       7.909   5.588  14.611  0.00  0.00    +0.000 OA
ATOM     16  H   UNL     1       7.539   5.526  13.716  0.00  0.00    +0.000 HD
ENDBRANCH   9  15
ENDBRANCH   1  12
BRANCH   6  17
ATOM     17  C   UNL     1       2.056   7.627  19.080  0.00  0.00    +0.000 A 
ATOM     18  N   UNL     1       2.361   8.137  17.899  0.00  0.00    +0.000 NA
ATOM     19  C   UNL     1       1.948   9.454  17.830  0.00  0.00    +0.000 A 
ATOM     20  C   UNL     1       1.337   9.951  18.959  0.00  0.00    +0.000 A 
ATOM     21  S   UNL     1       1.272   8.736  20.158  0.00  0.00    +0.000 S 
ENDBRANCH   6  17
TORSDOF 3
ENDMDL
MODEL 5
REMARK VINA RESULT:      -7.0      3.308      4.727
REMARK  Name = 
REMARK  3 active torsions:
REMARK  status: ('A' for Active; 'I' for Inactive)
REMARK    1  A    between atoms: O_1  and  C_2
REMARK    2  A    between atoms: C_5  and  N_6
REMARK    3  A    between atoms: C_11  and  C_12
REMARK                            x       y       z     vdW  Elec       q    Type
REMARK                         _______ _______ _______ _____ _____    ______ ____
ROOT
ATOM      1  N   UNL     1       1.998   6.122  20.835  0.00  0.00    +0.000 N 
ATOM      2  C   UNL     1       2.713   4.985  20.446  0.00  0.00    +0.000 A 
ATOM      3  N   UNL     1       2.235   3.788  20.810  0.00  0.00    +0.000 NA
ATOM      4  C   UNL     1       2.892   2.705  20.337  0.00  0.00    +0.000 A 
ATOM      5  C   UNL     1       3.991   2.778  19.517  0.00  0.00    +0.000 A 
ATOM      6  C   UNL     1       4.422   4.049  19.212  0.00  0.00    +0.000 A 
ATOM      7  N   UNL     1       3.804   5.143  19.688  0.00  0.00    +0.000 NA
ATOM      8  H   UNL     1       1.122   5.814  21.240  0.00  0.00    +0.000 HD
ENDROOT
BRANCH   1  12
ATOM      9  C   UNL     1       1.649   9.599  18.482  0.00  0.00    +0.000 A 
ATOM     10  C   UNL     1       1.165   9.615  19.783  0.00  0.00    +0.000 A 
ATOM     11  C   UNL     1       1.289   8.467  20.566  0.00  0.00    +0.000 A 
ATOM     12  C   UNL     1       1.872   7.294  20.058  0.00  0.00    +0.000 A 
ATOM     13  C   UNL     1       2.384   7.316  18.757  0.00  0.00    +0.000 A 
ATOM     14  C   UNL     1       2.259   8.463  17.965  0.00  0.00    +0.000 A 
BRANCH   9  15
ATOM     15  O   UNL     1       1.541  10.694  17.678  0.00  0.00    +0.000 OA
ATOM     16  H   UNL     1       1.891  11.461  18.159  0.00  0.00    +0.000 HD
ENDBRANCH   9  15
ENDBRANCH   1  12
BRANCH   6  17
ATOM     17  C   UNL     1       5.549   4.291  18.293  0.00  0.00    +0.000 A 
ATOM     18  N   UNL     1       6.796   4.518  18.667  0.00  0.00    +0.000 NA
ATOM     19  C   UNL     1       7.606   4.659  17.555  0.00  0.00    +0.000 A 
ATOM     20  C   UNL     1       6.976   4.547  16.337  0.00  0.00    +0.000 A 
ATOM     21  S   UNL     1       5.310   4.256  16.577  0.00  0.00    +0.000 S 
ENDBRANCH   6  17
TORSDOF 3
ENDMDL
MODEL 6
REMARK VINA RESULT:      -6.9      3.785      6.074
REMARK  Name = 
REMARK  3 active torsions:
REMARK  status: ('A' for Active; 'I' for Inactive)
REMARK    1  A    between atoms: O_1  and  C_2
REMARK    2  A    between atoms: C_5  and  N_6
REMARK    3  A    between atoms: C_11  and  C_12
REMARK                            x       y       z     vdW  Elec       q    Type
REMARK                         _______ _______ _______ _____ _____    ______ ____
ROOT
ATOM      1  N   UNL     1       3.998   3.483  18.102  0.00  0.00    +0.000 N 
ATOM      2  C   UNL     1       3.236   4.255  18.985  0.00  0.00    +0.000 A 
ATOM      3  N   UNL     1       2.936   3.729  20.181  0.00  0.00    +0.000 NA
ATOM      4  C   UNL     1       2.285   4.535  21.049  0.00  0.00    +0.000 A 
ATOM      5  C   UNL     1       1.936   5.833  20.770  0.00  0.00    +0.000 A 
ATOM      6  C   UNL     1       2.268   6.281  19.512  0.00  0.00    +0.000 A 
ATOM      7  N   UNL     1       2.893   5.494  18.619  0.00  0.00    +0.000 NA
ATOM      8  H   UNL     1       4.315   2.661  18.604  0.00  0.00    +0.000 HD
ENDROOT
BRANCH   1  12
ATOM      9  C   UNL     1       6.909   5.042  15.486  0.00  0.00    +0.000 A 
ATOM     10  C   UNL     1       5.688   4.630  14.968  0.00  0.00    +0.000 A 
ATOM     11  C   UNL     1       4.720   4.123  15.835  0.00  0.00    +0.000 A 
ATOM     12  C   UNL     1       4.964   4.001  17.213  0.00  0.00    +0.000 A 
ATOM     13  C   UNL     1       6.188   4.456  17.714  0.00  0.00    +0.000 A 
ATOM     14  C   UNL     1       7.164   4.962  16.850  0.00  0.00    +0.000 A 
BRANCH   9  15
ATOM     15  O   UNL     1       7.886   5.535  14.675  0.00  0.00    +0.000 OA
ATOM     16  H   UNL     1       7.957   6.491  14.829  0.00  0.00    +0.000 HD
ENDBRANCH   9  15
ENDBRANCH   1  12
BRANCH   6  17
ATOM     17  C   UNL     1       2.016   7.669  19.086  0.00  0.00    +0.000 A 
ATOM     18  N   UNL     1       2.323   8.166  17.900  0.00  0.00    +0.000 NA
ATOM     19  C   UNL     1       1.910   9.483  17.817  0.00  0.00    +0.000 A 
ATOM     20  C   UNL     1       1.297   9.991  18.939  0.00  0.00    +0.000 A 
ATOM     21  S   UNL     1       1.229   8.788  20.150  0.00  0.00    +0.000 S 
ENDBRANCH   6  17
TORSDOF 3
ENDMDL
MODEL 7
REMARK VINA RESULT:      -6.8      3.416      6.114
REMARK  Name = 
REMARK  3 active torsions:
REMARK  status: ('A' for Active; 'I' for Inactive)
REMARK    1  A    between atoms: O_1  and  C_2
REMARK    2  A    between atoms: C_5  and  N_6
REMARK    3  A    between atoms: C_11  and  C_12
REMARK                            x       y       z     vdW  Elec       q    Type
REMARK                         _______ _______ _______ _____ _____    ______ ____
ROOT
ATOM      1  N   UNL     1       4.288   3.152  17.976  0.00  0.00    +0.000 N 
ATOM      2  C   UNL     1       3.506   3.809  18.931  0.00  0.00    +0.000 A 
ATOM      3  N   UNL     1       3.247   3.170  20.079  0.00  0.00    +0.000 NA
ATOM      4  C   UNL     1       2.573   3.867  21.021  0.00  0.00    +0.000 A 
ATOM      5  C   UNL     1       2.162   5.167  20.860  0.00  0.00    +0.000 A 
ATOM      6  C   UNL     1       2.455   5.736  19.641  0.00  0.00    +0.000 A 
ATOM      7  N   UNL     1       3.102   5.059  18.677  0.00  0.00    +0.000 NA
ATOM      8  H   UNL     1       4.648   2.306  18.401  0.00  0.00    +0.000 HD
ENDROOT
BRANCH   1  12
ATOM      9  C   UNL     1       7.035   5.034  15.396  0.00  0.00    +0.000 A 
ATOM     10  C   UNL     1       7.298   5.010  16.759  0.00  0.00    +0.000 A 
ATOM     11  C   UNL     1       6.395   4.378  17.613  0.00  0.00    +0.000 A 
ATOM     12  C   UNL     1       5.216   3.788  17.125  0.00  0.00    +0.000 A 
ATOM     13  C   UNL     1       4.993   3.795  15.744  0.00  0.00    +0.000 A 
ATOM     14  C   UNL     1       5.894   4.430  14.882  0.00  0.00    +0.000 A 
BRANCH   9  15
ATOM     15  O   UNL     1       7.886   5.647  14.526  0.00  0.00    +0.000 OA
ATOM     16  H   UNL     1       8.168   6.490  14.917  0.00  0.00    +0.000 HD
ENDBRANCH   9  15
ENDBRANCH   1  12
BRANCH   6  17
ATOM     17  C   UNL     1       2.135   7.143  19.340  0.00  0.00    +0.000 A 
ATOM     18  N   UNL     1       1.554   7.984  20.178  0.00  0.00    +0.000 NA
ATOM     19  C   UNL     1       1.443   9.233  19.594  0.00  0.00    +0.000 A 
ATOM     20  C   UNL     1       1.931   9.340  18.312  0.00  0.00    +0.000 A 
ATOM     21  S   UNL     1       2.553   7.832  17.805  0.00  0.00    +0.000 S 
ENDBRANCH   6  17
TORSDOF 3
ENDMDL
MODEL 8
REMARK VINA RESULT:      -6.7      3.317      4.482
REMARK  Name = 
REMARK  3 active torsions:
REMARK  status: ('A' for Active; 'I' for Inactive)
REMARK    1  A    between atoms: O_1  and  C_2
REMARK    2  A    between atoms: C_5  and  N_6
REMARK    3  A    between atoms: C_11  and  C_12
REMARK                            x       y       z     vdW  Elec       q    Type
REMARK                         _______ _______ _______ _____ _____    ______ ____
ROOT
ATOM      1  N   UNL     1       2.463   6.085  20.631  0.00  0.00    +0.000 N 
ATOM      2  C   UNL     1       3.074   4.947  20.096  0.00  0.00    +0.000 A 
ATOM      3  N   UNL     1       2.722   3.753  20.592  0.00  0.00    +0.000 NA
ATOM      4  C   UNL     1       3.254   2.667  19.988  0.00  0.00    +0.000 A 
ATOM      5  C   UNL     1       4.108   2.733  18.915  0.00  0.00    +0.000 A 
ATOM      6  C   UNL     1       4.428   4.000  18.487  0.00  0.00    +0.000 A 
ATOM      7  N   UNL     1       3.934   5.099  19.083  0.00  0.00    +0.000 NA
ATOM      8  H   UNL     1       1.723   5.777  21.251  0.00  0.00    +0.000 HD
ENDROOT
BRANCH   1  12
ATOM      9  C   UNL     1       1.431   9.542  18.455  0.00  0.00    +0.000 A 
ATOM     10  C   UNL     1       2.108   8.517  17.810  0.00  0.00    +0.000 A 
ATOM     11  C   UNL     1       2.441   7.368  18.526  0.00  0.00    +0.000 A 
ATOM     12  C   UNL     1       2.126   7.238  19.890  0.00  0.00    +0.000 A 
ATOM     13  C   UNL     1       1.412   8.270  20.507  0.00  0.00    +0.000 A 
ATOM     14  C   UNL     1       1.078   9.427  19.794  0.00  0.00    +0.000 A 
BRANCH   9  15
ATOM     15  O   UNL     1       1.093  10.686  17.797  0.00  0.00    +0.000 OA
ATOM     16  H   UNL     1       0.580  10.445  17.009  0.00  0.00    +0.000 HD
ENDBRANCH   9  15
ENDBRANCH   1  12
BRANCH   6  17
ATOM     17  C   UNL     1       5.282   4.233  17.309  0.00  0.00    +0.000 A 
ATOM     18  N   UNL     1       4.887   4.125  16.052  0.00  0.00    +0.000 NA
ATOM     19  C   UNL     1       5.923   4.456  15.199  0.00  0.00    +0.000 A 
ATOM     20  C   UNL     1       7.109   4.807  15.803  0.00  0.00    +0.000 A 
ATOM     21  S   UNL     1       6.934   4.724  17.500  0.00  0.00    +0.000 S 
ENDBRANCH   6  17
TORSDOF 3
ENDMDL
MODEL 9
REMARK VINA RESULT:      -6.6      3.316      4.563
REMARK  Name = 
REMARK  3 active torsions:
REMARK  status: ('A' for Active; 'I' for Inactive)
REMARK    1  A    between atoms: O_1  and  C_2
REMARK    2  A    between atoms: C_5  and  N_6
REMARK    3  A    between atoms: C_11  and  C_12
REMARK                            x       y       z     vdW  Elec       q    Type
REMARK                         _______ _______ _______ _____ _____    ______ ____
ROOT
ATOM      1  N   UNL     1       2.250   5.955  20.736  0.00  0.00    +0.000 N 
ATOM      2  C   UNL     1       2.863   4.823  20.189  0.00  0.00    +0.000 A 
ATOM      3  N   UNL     1       2.461   3.620  20.621  0.00  0.00    +0.000 NA
ATOM      4  C   UNL     1       3.000   2.546  20.004  0.00  0.00    +0.000 A 
ATOM      5  C   UNL     1       3.910   2.631  18.979  0.00  0.00    +0.000 A 
ATOM      6  C   UNL     1       4.279   3.906  18.616  0.00  0.00    +0.000 A 
ATOM      7  N   UNL     1       3.777   4.993  19.228  0.00  0.00    +0.000 NA
ATOM      8  H   UNL     1       1.472   5.641  21.305  0.00  0.00    +0.000 HD
ENDROOT
BRANCH   1  12
ATOM      9  C   UNL     1       1.459   9.481  18.570  0.00  0.00    +0.000 A 
ATOM     10  C   UNL     1       1.072   9.406  19.901  0.00  0.00    +0.000 A 
ATOM     11  C   UNL     1       1.342   8.244  20.622  0.00  0.00    +0.000 A 
ATOM     12  C   UNL     1       1.976   7.142  20.023  0.00  0.00    +0.000 A 
ATOM     13  C   UNL     1       2.388   7.256  18.691  0.00  0.00    +0.000 A 
ATOM     14  C   UNL     1       2.117   8.418  17.961  0.00  0.00    +0.000 A 
BRANCH   9  15
ATOM     15  O   UNL     1       1.208  10.594  17.825  0.00  0.00    +0.000 OA
ATOM     16  H   UNL     1       1.595  10.466  16.944  0.00  0.00    +0.000 HD
ENDBRANCH   9  15
ENDBRANCH   1  12
BRANCH   6  17
ATOM     17  C   UNL     1       5.197   4.163  17.492  0.00  0.00    +0.000 A 
ATOM     18  N   UNL     1       4.896   4.001  16.215  0.00  0.00    +0.000 NA
ATOM     19  C   UNL     1       5.968   4.374  15.425  0.00  0.00    +0.000 A 
ATOM     20  C   UNL     1       7.086   4.810  16.099  0.00  0.00    +0.000 A 
ATOM     21  S   UNL     1       6.800   4.756  17.782  0.00  0.00    +0.000 S 
ENDBRANCH   6  17
TORSDOF 3
ENDMDL
