MODEL 1
REMARK VINA RESULT:      -7.1      0.000      0.000
REMARK  Name = 
REMARK  3 active torsions:
REMARK  status: ('A' for Active; 'I' for Inactive)
REMARK    1  A    between atoms: C_1  and  O_2
REMARK    2  A    between atoms: O_2  and  C_3
REMARK    3  A    between atoms: C_6  and  C_7
REMARK                            x       y       z     vdW  Elec       q    Type
REMARK                         _______ _______ _______ _____ _____    ______ ____
ROOT
ATOM      1  C   UNL     1       4.961   5.440  17.235  0.00  0.00    +0.000 A 
ATOM      2  C   UNL     1       4.183   6.538  17.270  0.00  0.00    +0.000 A 
ATOM      3  O   UNL     1       3.488   7.014  18.358  0.00  0.00    +0.000 OA
ATOM      4  C   UNL     1       3.130   6.072  19.283  0.00  0.00    +0.000 A 
ATOM      5  C   UNL     1       2.021   6.328  20.080  0.00  0.00    +0.000 A 
ATOM      6  C   UNL     1       1.508   5.301  20.873  0.00  0.00    +0.000 A 
ATOM      7  C   UNL     1       2.128   4.047  20.883  0.00  0.00    +0.000 A 
ATOM      8 CL   UNL     1       1.384   2.747  21.726  0.00  0.00    +0.000 Cl
ATOM      9  C   UNL     1       3.303   3.827  20.169  0.00  0.00    +0.000 A 
ATOM     10  C   UNL     1       3.799   4.855  19.369  0.00  0.00    +0.000 A 
ATOM     11  C   UNL     1       4.980   4.663  18.509  0.00  0.00    +0.000 A 
ATOM     12  O   UNL     1       5.864   3.880  18.830  0.00  0.00    +0.000 OA
ENDROOT
BRANCH   1  16
ATOM     13  C   UNL     1       6.679   4.356  13.430  0.00  0.00    +0.000 A 
ATOM     14  C   UNL     1       7.394   5.139  14.329  0.00  0.00    +0.000 A 
ATOM     15  C   UNL     1       6.874   5.421  15.594  0.00  0.00    +0.000 A 
ATOM     16  C   UNL     1       5.598   4.971  15.974  0.00  0.00    +0.000 A 
ATOM     17  C   UNL     1       4.914   4.131  15.080  0.00  0.00    +0.000 A 
ATOM     18  C   UNL     1       5.450   3.826  13.816  0.00  0.00    +0.000 A 
BRANCH  13  20
ATOM     19  C   UNL     1       7.037   2.982  11.532  0.00  0.00    +0.000 C 
ATOM     20  O   UNL     1       7.272   4.207  12.210  0.00  0.00    +0.000 OA
ENDBRANCH  13  20
ENDBRANCH   1  16
TORSDOF 2
ENDMDL
MODEL 2
REMARK VINA RESULT:      -7.0      0.319      1.112
REMARK  Name = 
REMARK  3 active torsions:
REMARK  status: ('A' for Active; 'I' for Inactive)
REMARK    1  A    between atoms: C_1  and  O_2
REMARK    2  A    between atoms: O_2  and  C_3
REMARK    3  A    between atoms: C_6  and  C_7
REMARK                            x       y       z     vdW  Elec       q    Type
REMARK                         _______ _______ _______ _____ _____    ______ ____
ROOT
ATOM      1  C   UNL     1       4.867   5.589  17.210  0.00  0.00    +0.000 A 
ATOM      2  C   UNL     1       4.080   6.674  17.341  0.00  0.00    +0.000 A 
ATOM      3  O   UNL     1       3.425   7.077  18.481  0.00  0.00    +0.000 OA
ATOM      4  C   UNL     1       3.112   6.079  19.362  0.00  0.00    +0.000 A 
ATOM      5  C   UNL     1       2.033   6.274  20.215  0.00  0.00    +0.000 A 
ATOM      6  C   UNL     1       1.561   5.196  20.965  0.00  0.00    +0.000 A 
ATOM      7  C   UNL     1       2.193   3.951  20.876  0.00  0.00    +0.000 A 
ATOM      8 CL   UNL     1       1.495   2.595  21.669  0.00  0.00    +0.000 Cl
ATOM      9  C   UNL     1       3.341   3.787  20.106  0.00  0.00    +0.000 A 
ATOM     10  C   UNL     1       3.795   4.866  19.349  0.00  0.00    +0.000 A 
ATOM     11  C   UNL     1       4.943   4.739  18.434  0.00  0.00    +0.000 A 
ATOM     12  O   UNL     1       5.847   3.949  18.674  0.00  0.00    +0.000 OA
ENDROOT
BRANCH   1  16
ATOM     13  C   UNL     1       6.650   4.166  13.550  0.00  0.00    +0.000 A 
ATOM     14  C   UNL     1       5.293   3.982  13.792  0.00  0.00    +0.000 A 
ATOM     15  C   UNL     1       4.698   4.515  14.937  0.00  0.00    +0.000 A 
ATOM     16  C   UNL     1       5.457   5.202  15.900  0.00  0.00    +0.000 A 
ATOM     17  C   UNL     1       6.812   5.433  15.613  0.00  0.00    +0.000 A 
ATOM     18  C   UNL     1       7.406   4.918  14.447  0.00  0.00    +0.000 A 
BRANCH  13  20
ATOM     19  C   UNL     1       6.223   2.661  11.769  0.00  0.00    +0.000 C 
ATOM     20  O   UNL     1       7.118   3.544  12.429  0.00  0.00    +0.000 OA
ENDBRANCH  13  20
ENDBRANCH   1  16
TORSDOF 2
ENDMDL
MODEL 3
REMARK VINA RESULT:      -6.7      2.905      4.475
REMARK  Name = 
REMARK  3 active torsions:
REMARK  status: ('A' for Active; 'I' for Inactive)
REMARK    1  A    between atoms: C_1  and  O_2
REMARK    2  A    between atoms: O_2  and  C_3
REMARK    3  A    between atoms: C_6  and  C_7
REMARK                            x       y       z     vdW  Elec       q    Type
REMARK                         _______ _______ _______ _____ _____    ______ ____
ROOT
ATOM      1  C   UNL     1       4.954   5.435  17.653  0.00  0.00    +0.000 A 
ATOM      2  C   UNL     1       4.993   4.318  16.902  0.00  0.00    +0.000 A 
ATOM      3  O   UNL     1       3.998   3.376  16.784  0.00  0.00    +0.000 OA
ATOM      4  C   UNL     1       3.161   3.269  17.860  0.00  0.00    +0.000 A 
ATOM      5  C   UNL     1       2.519   2.055  18.069  0.00  0.00    +0.000 A 
ATOM      6  C   UNL     1       1.837   1.850  19.269  0.00  0.00    +0.000 A 
ATOM      7  C   UNL     1       1.779   2.869  20.225  0.00  0.00    +0.000 A 
ATOM      8 CL   UNL     1       1.087   2.542  21.765  0.00  0.00    +0.000 Cl
ATOM      9  C   UNL     1       2.328   4.122  19.966  0.00  0.00    +0.000 A 
ATOM     10  C   UNL     1       3.021   4.311  18.771  0.00  0.00    +0.000 A 
ATOM     11  C   UNL     1       3.714   5.577  18.471  0.00  0.00    +0.000 A 
ATOM     12  O   UNL     1       3.297   6.637  18.919  0.00  0.00    +0.000 OA
ENDROOT
BRANCH   1  16
ATOM     13  C   UNL     1       8.206   8.200  18.270  0.00  0.00    +0.000 A 
ATOM     14  C   UNL     1       8.223   6.946  18.871  0.00  0.00    +0.000 A 
ATOM     15  C   UNL     1       7.213   6.019  18.606  0.00  0.00    +0.000 A 
ATOM     16  C   UNL     1       6.128   6.342  17.772  0.00  0.00    +0.000 A 
ATOM     17  C   UNL     1       6.156   7.588  17.125  0.00  0.00    +0.000 A 
ATOM     18  C   UNL     1       7.187   8.512  17.372  0.00  0.00    +0.000 A 
BRANCH  13  20
ATOM     19  C   UNL     1       9.038  10.416  18.403  0.00  0.00    +0.000 C 
ATOM     20  O   UNL     1       9.216   9.031  18.660  0.00  0.00    +0.000 OA
ENDBRANCH  13  20
ENDBRANCH   1  16
TORSDOF 2
ENDMDL
MODEL 4
REMARK VINA RESULT:      -6.6      6.188      8.655
REMARK  Name = 
REMARK  3 active torsions:
REMARK  status: ('A' for Active; 'I' for Inactive)
REMARK    1  A    between atoms: C_1  and  O_2
REMARK    2  A    between atoms: O_2  and  C_3
REMARK    3  A    between atoms: C_6  and  C_7
REMARK                            x       y       z     vdW  Elec       q    Type
REMARK                         _______ _______ _______ _____ _____    ______ ____
ROOT
ATOM      1  C   UNL     1      -0.151  10.840  19.635  0.00  0.00    +0.000 A 
ATOM      2  C   UNL     1      -1.125  11.128  18.750  0.00  0.00    +0.000 A 
ATOM      3  O   UNL     1      -2.125  12.059  18.908  0.00  0.00    +0.000 OA
ATOM      4  C   UNL     1      -2.480  12.324  20.201  0.00  0.00    +0.000 A 
ATOM      5  C   UNL     1      -3.767  12.790  20.443  0.00  0.00    +0.000 A 
ATOM      6  C   UNL     1      -4.224  12.861  21.759  0.00  0.00    +0.000 A 
ATOM      7  C   UNL     1      -3.380  12.496  22.814  0.00  0.00    +0.000 A 
ATOM      8 CL   UNL     1      -4.013  12.422  24.411  0.00  0.00    +0.000 Cl
ATOM      9  C   UNL     1      -2.056  12.137  22.577  0.00  0.00    +0.000 A 
ATOM     10  C   UNL     1      -1.614  12.055  21.257  0.00  0.00    +0.000 A 
ATOM     11  C   UNL     1      -0.258  11.584  20.924  0.00  0.00    +0.000 A 
ATOM     12  O   UNL     1       0.673  11.769  21.697  0.00  0.00    +0.000 OA
ENDROOT
BRANCH   1  16
ATOM     13  C   UNL     1       2.437   7.488  18.818  0.00  0.00    +0.000 A 
ATOM     14  C   UNL     1       2.207   8.455  17.846  0.00  0.00    +0.000 A 
ATOM     15  C   UNL     1       1.437   9.583  18.136  0.00  0.00    +0.000 A 
ATOM     16  C   UNL     1       0.831   9.748  19.393  0.00  0.00    +0.000 A 
ATOM     17  C   UNL     1       1.122   8.795  20.383  0.00  0.00    +0.000 A 
ATOM     18  C   UNL     1       1.919   7.672  20.099  0.00  0.00    +0.000 A 
BRANCH  13  20
ATOM     19  C   UNL     1       3.598   5.501  19.385  0.00  0.00    +0.000 C 
ATOM     20  O   UNL     1       3.153   6.409  18.389  0.00  0.00    +0.000 OA
ENDBRANCH  13  20
ENDBRANCH   1  16
TORSDOF 2
ENDMDL
MODEL 5
REMARK VINA RESULT:      -6.6      3.408      7.188
REMARK  Name = 
REMARK  3 active torsions:
REMARK  status: ('A' for Active; 'I' for Inactive)
REMARK    1  A    between atoms: C_1  and  O_2
REMARK    2  A    between atoms: O_2  and  C_3
REMARK    3  A    between atoms: C_6  and  C_7
REMARK                            x       y       z     vdW  Elec       q    Type
REMARK                         _______ _______ _______ _____ _____    ______ ____
ROOT
ATOM      1  C   UNL     1       3.816   6.164  17.857  0.00  0.00    +0.000 A 
ATOM      2  C   UNL     1       3.290   4.951  17.599  0.00  0.00    +0.000 A 
ATOM      3  O   UNL     1       3.947   3.876  17.045  0.00  0.00    +0.000 OA
ATOM      4  C   UNL     1       5.001   4.188  16.233  0.00  0.00    +0.000 A 
ATOM      5  C   UNL     1       5.357   3.278  15.246  0.00  0.00    +0.000 A 
ATOM      6  C   UNL     1       6.279   3.662  14.272  0.00  0.00    +0.000 A 
ATOM      7  C   UNL     1       6.855   4.936  14.318  0.00  0.00    +0.000 A 
ATOM      8 CL   UNL     1       7.853   5.456  13.017  0.00  0.00    +0.000 Cl
ATOM      9  C   UNL     1       6.582   5.805  15.370  0.00  0.00    +0.000 A 
ATOM     10  C   UNL     1       5.647   5.417  16.329  0.00  0.00    +0.000 A 
ATOM     11  C   UNL     1       5.232   6.323  17.415  0.00  0.00    +0.000 A 
ATOM     12  O   UNL     1       6.007   7.160  17.858  0.00  0.00    +0.000 OA
ENDROOT
BRANCH   1  16
ATOM     13  C   UNL     1       1.136   9.237  19.264  0.00  0.00    +0.000 A 
ATOM     14  C   UNL     1       1.499   8.183  20.095  0.00  0.00    +0.000 A 
ATOM     15  C   UNL     1       2.431   7.234  19.671  0.00  0.00    +0.000 A 
ATOM     16  C   UNL     1       2.985   7.283  18.379  0.00  0.00    +0.000 A 
ATOM     17  C   UNL     1       2.656   8.386  17.575  0.00  0.00    +0.000 A 
ATOM     18  C   UNL     1       1.737   9.356  18.012  0.00  0.00    +0.000 A 
BRANCH  13  20
ATOM     19  C   UNL     1      -0.898  10.401  18.909  0.00  0.00    +0.000 C 
ATOM     20  O   UNL     1       0.174  10.059  19.774  0.00  0.00    +0.000 OA
ENDBRANCH  13  20
ENDBRANCH   1  16
TORSDOF 2
ENDMDL
MODEL 6
REMARK VINA RESULT:      -6.6      3.247      4.858
REMARK  Name = 
REMARK  3 active torsions:
REMARK  status: ('A' for Active; 'I' for Inactive)
REMARK    1  A    between atoms: C_1  and  O_2
REMARK    2  A    between atoms: O_2  and  C_3
REMARK    3  A    between atoms: C_6  and  C_7
REMARK                            x       y       z     vdW  Elec       q    Type
REMARK                         _______ _______ _______ _____ _____    ______ ____
ROOT
ATOM      1  C   UNL     1       5.637   5.729  17.263  0.00  0.00    +0.000 A 
ATOM      2  C   UNL     1       5.934   4.502  16.794  0.00  0.00    +0.000 A 
ATOM      3  O   UNL     1       5.039   3.498  16.504  0.00  0.00    +0.000 OA
ATOM      4  C   UNL     1       3.868   3.534  17.210  0.00  0.00    +0.000 A 
ATOM      5  C   UNL     1       3.181   2.340  17.396  0.00  0.00    +0.000 A 
ATOM      6  C   UNL     1       2.109   2.310  18.288  0.00  0.00    +0.000 A 
ATOM      7  C   UNL     1       1.719   3.477  18.955  0.00  0.00    +0.000 A 
ATOM      8 CL   UNL     1       0.514   3.386  20.177  0.00  0.00    +0.000 Cl
ATOM      9  C   UNL     1       2.338   4.694  18.683  0.00  0.00    +0.000 A 
ATOM     10  C   UNL     1       3.418   4.710  17.801  0.00  0.00    +0.000 A 
ATOM     11  C   UNL     1       4.186   5.941  17.542  0.00  0.00    +0.000 A 
ATOM     12  O   UNL     1       3.646   7.037  17.608  0.00  0.00    +0.000 OA
ENDROOT
BRANCH   1  16
ATOM     13  C   UNL     1       8.507   8.675  18.560  0.00  0.00    +0.000 A 
ATOM     14  C   UNL     1       8.527   7.389  19.090  0.00  0.00    +0.000 A 
ATOM     15  C   UNL     1       7.653   6.411  18.611  0.00  0.00    +0.000 A 
ATOM     16  C   UNL     1       6.697   6.708  17.624  0.00  0.00    +0.000 A 
ATOM     17  C   UNL     1       6.730   7.992  17.056  0.00  0.00    +0.000 A 
ATOM     18  C   UNL     1       7.627   8.970  17.521  0.00  0.00    +0.000 A 
BRANCH  13  20
ATOM     19  C   UNL     1       9.485  10.834  18.565  0.00  0.00    +0.000 C 
ATOM     20  O   UNL     1       9.368   9.549  19.157  0.00  0.00    +0.000 OA
ENDBRANCH  13  20
ENDBRANCH   1  16
TORSDOF 2
ENDMDL
MODEL 7
REMARK VINA RESULT:      -6.5      3.267      4.512
REMARK  Name = 
REMARK  3 active torsions:
REMARK  status: ('A' for Active; 'I' for Inactive)
REMARK    1  A    between atoms: C_1  and  O_2
REMARK    2  A    between atoms: O_2  and  C_3
REMARK    3  A    between atoms: C_6  and  C_7
REMARK                            x       y       z     vdW  Elec       q    Type
REMARK                         _______ _______ _______ _____ _____    ______ ____
ROOT
ATOM      1  C   UNL     1       2.921   6.841  18.646  0.00  0.00    +0.000 A 
ATOM      2  C   UNL     1       2.556   6.285  19.816  0.00  0.00    +0.000 A 
ATOM      3  O   UNL     1       1.538   6.706  20.640  0.00  0.00    +0.000 OA
ATOM      4  C   UNL     1       1.230   8.036  20.559  0.00  0.00    +0.000 A 
ATOM      5  C   UNL     1       0.649   8.641  21.667  0.00  0.00    +0.000 A 
ATOM      6  C   UNL     1       0.526  10.030  21.691  0.00  0.00    +0.000 A 
ATOM      7  C   UNL     1       0.954  10.790  20.598  0.00  0.00    +0.000 A 
ATOM      8 CL   UNL     1       0.958  12.506  20.714  0.00  0.00    +0.000 Cl
ATOM      9  C   UNL     1       1.433  10.175  19.444  0.00  0.00    +0.000 A 
ATOM     10  C   UNL     1       1.566   8.787  19.436  0.00  0.00    +0.000 A 
ATOM     11  C   UNL     1       2.158   8.074  18.291  0.00  0.00    +0.000 A 
ATOM     12  O   UNL     1       2.050   8.519  17.156  0.00  0.00    +0.000 OA
ENDROOT
BRANCH   1  16
ATOM     13  C   UNL     1       6.206   5.583  16.151  0.00  0.00    +0.000 A 
ATOM     14  C   UNL     1       6.278   6.774  16.864  0.00  0.00    +0.000 A 
ATOM     15  C   UNL     1       5.252   7.142  17.736  0.00  0.00    +0.000 A 
ATOM     16  C   UNL     1       4.098   6.351  17.878  0.00  0.00    +0.000 A 
ATOM     17  C   UNL     1       4.067   5.123  17.199  0.00  0.00    +0.000 A 
ATOM     18  C   UNL     1       5.112   4.740  16.340  0.00  0.00    +0.000 A 
BRANCH  13  20
ATOM     19  C   UNL     1       6.929   4.755  14.050  0.00  0.00    +0.000 C 
ATOM     20  O   UNL     1       7.243   5.372  15.289  0.00  0.00    +0.000 OA
ENDBRANCH  13  20
ENDBRANCH   1  16
TORSDOF 2
ENDMDL
MODEL 8
REMARK VINA RESULT:      -6.5      3.369      7.249
REMARK  Name = 
REMARK  3 active torsions:
REMARK  status: ('A' for Active; 'I' for Inactive)
REMARK    1  A    between atoms: C_1  and  O_2
REMARK    2  A    between atoms: O_2  and  C_3
REMARK    3  A    between atoms: C_6  and  C_7
REMARK                            x       y       z     vdW  Elec       q    Type
REMARK                         _______ _______ _______ _____ _____    ______ ____
ROOT
ATOM      1  C   UNL     1       3.649   6.124  17.909  0.00  0.00    +0.000 A 
ATOM      2  C   UNL     1       3.224   4.859  17.730  0.00  0.00    +0.000 A 
ATOM      3  O   UNL     1       3.962   3.810  17.233  0.00  0.00    +0.000 OA
ATOM      4  C   UNL     1       4.981   4.158  16.390  0.00  0.00    +0.000 A 
ATOM      5  C   UNL     1       5.403   3.222  15.454  0.00  0.00    +0.000 A 
ATOM      6  C   UNL     1       6.283   3.621  14.449  0.00  0.00    +0.000 A 
ATOM      7  C   UNL     1       6.753   4.938  14.411  0.00  0.00    +0.000 A 
ATOM      8 CL   UNL     1       7.694   5.459  13.070  0.00  0.00    +0.000 Cl
ATOM      9  C   UNL     1       6.416   5.844  15.413  0.00  0.00    +0.000 A 
ATOM     10  C   UNL     1       5.525   5.439  16.405  0.00  0.00    +0.000 A 
ATOM     11  C   UNL     1       5.044   6.372  17.440  0.00  0.00    +0.000 A 
ATOM     12  O   UNL     1       5.751   7.294  17.824  0.00  0.00    +0.000 OA
ENDROOT
BRANCH   1  16
ATOM     13  C   UNL     1       1.271   9.418  19.355  0.00  0.00    +0.000 A 
ATOM     14  C   UNL     1       1.714   9.393  18.037  0.00  0.00    +0.000 A 
ATOM     15  C   UNL     1       2.412   8.289  17.545  0.00  0.00    +0.000 A 
ATOM     16  C   UNL     1       2.734   7.201  18.375  0.00  0.00    +0.000 A 
ATOM     17  C   UNL     1       2.227   7.213  19.684  0.00  0.00    +0.000 A 
ATOM     18  C   UNL     1       1.502   8.314  20.173  0.00  0.00    +0.000 A 
BRANCH  13  20
ATOM     19  C   UNL     1      -0.135  10.533  20.905  0.00  0.00    +0.000 C 
ATOM     20  O   UNL     1       0.655  10.579  19.726  0.00  0.00    +0.000 OA
ENDBRANCH  13  20
ENDBRANCH   1  16
TORSDOF 2
ENDMDL
MODEL 9
REMARK VINA RESULT:      -6.4      3.421      4.884
REMARK  Name = 
REMARK  3 active torsions:
REMARK  status: ('A' for Active; 'I' for Inactive)
REMARK    1  A    between atoms: C_1  and  O_2
REMARK    2  A    between atoms: O_2  and  C_3
REMARK    3  A    between atoms: C_6  and  C_7
REMARK                            x       y       z     vdW  Elec       q    Type
REMARK                         _______ _______ _______ _____ _____    ______ ____
ROOT
ATOM      1  C   UNL     1       2.558   6.987  18.687  0.00  0.00    +0.000 A 
ATOM      2  C   UNL     1       2.302   6.488  19.912  0.00  0.00    +0.000 A 
ATOM      3  O   UNL     1       1.397   6.980  20.823  0.00  0.00    +0.000 OA
ATOM      4  C   UNL     1       1.134   8.318  20.724  0.00  0.00    +0.000 A 
ATOM      5  C   UNL     1       0.701   8.985  21.863  0.00  0.00    +0.000 A 
ATOM      6  C   UNL     1       0.635  10.379  21.846  0.00  0.00    +0.000 A 
ATOM      7  C   UNL     1       0.970  11.082  20.684  0.00  0.00    +0.000 A 
ATOM      8 CL   UNL     1       1.052  12.799  20.732  0.00  0.00    +0.000 Cl
ATOM      9  C   UNL     1       1.296  10.406  19.511  0.00  0.00    +0.000 A 
ATOM     10  C   UNL     1       1.373   9.015  19.543  0.00  0.00    +0.000 A 
ATOM     11  C   UNL     1       1.810   8.238  18.369  0.00  0.00    +0.000 A 
ATOM     12  O   UNL     1       1.595   8.647  17.236  0.00  0.00    +0.000 OA
ENDROOT
BRANCH   1  16
ATOM     13  C   UNL     1       5.815   5.260  16.449  0.00  0.00    +0.000 A 
ATOM     14  C   UNL     1       4.722   4.483  16.817  0.00  0.00    +0.000 A 
ATOM     15  C   UNL     1       3.629   5.059  17.468  0.00  0.00    +0.000 A 
ATOM     16  C   UNL     1       3.625   6.421  17.817  0.00  0.00    +0.000 A 
ATOM     17  C   UNL     1       4.707   7.204  17.386  0.00  0.00    +0.000 A 
ATOM     18  C   UNL     1       5.796   6.629  16.707  0.00  0.00    +0.000 A 
BRANCH  13  20
ATOM     19  C   UNL     1       7.054   4.773  14.487  0.00  0.00    +0.000 C 
ATOM     20  O   UNL     1       6.839   4.564  15.874  0.00  0.00    +0.000 OA
ENDBRANCH  13  20
ENDBRANCH   1  16
TORSDOF 2
ENDMDL
