MODEL 1
REMARK VINA RESULT:      -7.7      0.000      0.000
REMARK  Name = 
REMARK  7 active torsions:
REMARK  status: ('A' for Active; 'I' for Inactive)
REMARK    1  A    between atoms: C_1  and  C_2
REMARK    2  A    between atoms: C_3  and  N_4
REMARK    3  A    between atoms: N_4  and  C_5
REMARK    4  A    between atoms: C_5  and  N_7
REMARK    5  A    between atoms: C_8  and  C_10
REMARK    6  A    between atoms: N_19  and  C_20
REMARK    7  A    between atoms: N_26  and  C_27
REMARK                            x       y       z     vdW  Elec       q    Type
REMARK                         _______ _______ _______ _____ _____    ______ ____
ROOT
ATOM      1  N   UNL     1       2.309   6.429  20.421  0.00  0.00    +0.000 N 
ATOM      2  H   UNL     1       2.720   6.468  21.359  0.00  0.00    +0.000 HD
ENDROOT
BRANCH   1   5
ATOM      3  C   UNL     1       2.979   7.949  17.603  0.00  0.00    +0.000 C 
ATOM      4  C   UNL     1       2.185   8.345  18.806  0.00  0.00    +0.000 A 
ATOM      5  C   UNL     1       1.969   7.680  19.957  0.00  0.00    +0.000 A 
ATOM      6  C   UNL     1       1.075   8.590  20.779  0.00  0.00    +0.000 A 
ATOM      7  O   UNL     1       0.660   8.316  21.895  0.00  0.00    +0.000 OA
ATOM      8  N   UNL     1       0.849   9.728  19.996  0.00  0.00    +0.000 N 
ATOM      9  N   UNL     1       1.447   9.537  18.735  0.00  0.00    +0.000 N 
ATOM     10  C   UNL     1       1.933  10.700  17.992  0.00  0.00    +0.000 C 
BRANCH   8  11
ATOM     11  C   UNL     1      -0.057  10.779  20.243  0.00  0.00    +0.000 A 
ATOM     12  C   UNL     1       0.274  11.799  21.140  0.00  0.00    +0.000 A 
ATOM     13  C   UNL     1      -0.509  12.957  21.204  0.00  0.00    +0.000 A 
ATOM     14  C   UNL     1      -1.651  13.084  20.411  0.00  0.00    +0.000 A 
ATOM     15  C   UNL     1      -2.030  12.041  19.570  0.00  0.00    +0.000 A 
ATOM     16  C   UNL     1      -1.237  10.895  19.491  0.00  0.00    +0.000 A 
ENDBRANCH   8  11
ENDBRANCH   1   5
BRANCH   1  17
ATOM     17  C   UNL     1       2.225   5.160  19.901  0.00  0.00    +0.000 C 
ATOM     18  S   UNL     1       1.155   3.958  20.354  0.00  0.00    +0.000 S 
BRANCH  17  19
ATOM     19  N   UNL     1       3.075   4.889  18.831  0.00  0.00    +0.000 N 
ATOM     20  C   UNL     1       4.454   5.022  18.814  0.00  0.00    +0.000 C 
ATOM     21  O   UNL     1       5.098   5.361  19.810  0.00  0.00    +0.000 OA
ATOM     22  H   UNL     1       2.609   4.507  18.018  0.00  0.00    +0.000 HD
BRANCH  20  23
ATOM     23  C   UNL     1       5.214   4.779  17.554  0.00  0.00    +0.000 A 
ATOM     24  C   UNL     1       4.709   4.064  16.462  0.00  0.00    +0.000 A 
ATOM     25  C   UNL     1       5.393   4.095  15.234  0.00  0.00    +0.000 A 
ATOM     26  C   UNL     1       6.577   4.824  15.103  0.00  0.00    +0.000 A 
ATOM     27 CL   UNL     1       7.355   4.940  13.573  0.00  0.00    +0.000 Cl
ATOM     28  C   UNL     1       7.115   5.491  16.197  0.00  0.00    +0.000 A 
ATOM     29  C   UNL     1       6.438   5.462  17.417  0.00  0.00    +0.000 A 
ENDBRANCH  20  23
ENDBRANCH  17  19
ENDBRANCH   1  17
TORSDOF 5
ENDMDL
MODEL 2
REMARK VINA RESULT:      -7.3      0.917      1.445
REMARK  Name = 
REMARK  7 active torsions:
REMARK  status: ('A' for Active; 'I' for Inactive)
REMARK    1  A    between atoms: C_1  and  C_2
REMARK    2  A    between atoms: C_3  and  N_4
REMARK    3  A    between atoms: N_4  and  C_5
REMARK    4  A    between atoms: C_5  and  N_7
REMARK    5  A    between atoms: C_8  and  C_10
REMARK    6  A    between atoms: N_19  and  C_20
REMARK    7  A    between atoms: N_26  and  C_27
REMARK                            x       y       z     vdW  Elec       q    Type
REMARK                         _______ _______ _______ _____ _____    ______ ____
ROOT
ATOM      1  N   UNL     1       2.148   6.746  20.547  0.00  0.00    +0.000 N 
ATOM      2  H   UNL     1       2.688   6.749  21.418  0.00  0.00    +0.000 HD
ENDROOT
BRANCH   1   5
ATOM      3  C   UNL     1       2.450   8.453  17.774  0.00  0.00    +0.000 C 
ATOM      4  C   UNL     1       1.786   8.748  19.079  0.00  0.00    +0.000 A 
ATOM      5  C   UNL     1       1.721   8.009  20.204  0.00  0.00    +0.000 A 
ATOM      6  C   UNL     1       0.899   8.835  21.175  0.00  0.00    +0.000 A 
ATOM      7  O   UNL     1       0.622   8.480  22.310  0.00  0.00    +0.000 OA
ATOM      8  N   UNL     1       0.553  10.009  20.495  0.00  0.00    +0.000 N 
ATOM      9  N   UNL     1       1.009   9.915  19.166  0.00  0.00    +0.000 N 
ATOM     10  C   UNL     1       1.374  11.136  18.449  0.00  0.00    +0.000 C 
BRANCH   8  11
ATOM     11  C   UNL     1      -0.350  11.010  20.907  0.00  0.00    +0.000 A 
ATOM     12  C   UNL     1      -1.369  11.436  20.050  0.00  0.00    +0.000 A 
ATOM     13  C   UNL     1      -2.402  12.244  20.539  0.00  0.00    +0.000 A 
ATOM     14  C   UNL     1      -2.398  12.671  21.868  0.00  0.00    +0.000 A 
ATOM     15  C   UNL     1      -1.347  12.314  22.707  0.00  0.00    +0.000 A 
ATOM     16  C   UNL     1      -0.328  11.491  22.226  0.00  0.00    +0.000 A 
ENDBRANCH   8  11
ENDBRANCH   1   5
BRANCH   1  17
ATOM     17  C   UNL     1       2.015   5.502  19.977  0.00  0.00    +0.000 C 
ATOM     18  S   UNL     1       1.076   4.237  20.535  0.00  0.00    +0.000 S 
BRANCH  17  19
ATOM     19  N   UNL     1       2.677   5.321  18.765  0.00  0.00    +0.000 N 
ATOM     20  C   UNL     1       4.048   5.291  18.565  0.00  0.00    +0.000 C 
ATOM     21  O   UNL     1       4.853   5.375  19.495  0.00  0.00    +0.000 OA
ATOM     22  H   UNL     1       2.063   5.141  17.980  0.00  0.00    +0.000 HD
BRANCH  20  23
ATOM     23  C   UNL     1       4.601   5.180  17.184  0.00  0.00    +0.000 A 
ATOM     24  C   UNL     1       4.917   6.279  16.378  0.00  0.00    +0.000 A 
ATOM     25  C   UNL     1       5.656   6.085  15.198  0.00  0.00    +0.000 A 
ATOM     26  C   UNL     1       6.066   4.803  14.822  0.00  0.00    +0.000 A 
ATOM     27 CL   UNL     1       7.055   4.586  13.432  0.00  0.00    +0.000 Cl
ATOM     28  C   UNL     1       5.709   3.701  15.588  0.00  0.00    +0.000 A 
ATOM     29  C   UNL     1       4.975   3.889  16.761  0.00  0.00    +0.000 A 
ENDBRANCH  20  23
ENDBRANCH  17  19
ENDBRANCH   1  17
TORSDOF 5
ENDMDL
MODEL 3
REMARK VINA RESULT:      -7.2      3.311      8.106
REMARK  Name = 
REMARK  7 active torsions:
REMARK  status: ('A' for Active; 'I' for Inactive)
REMARK    1  A    between atoms: C_1  and  C_2
REMARK    2  A    between atoms: C_3  and  N_4
REMARK    3  A    between atoms: N_4  and  C_5
REMARK    4  A    between atoms: C_5  and  N_7
REMARK    5  A    between atoms: C_8  and  C_10
REMARK    6  A    between atoms: N_19  and  C_20
REMARK    7  A    between atoms: N_26  and  C_27
REMARK                            x       y       z     vdW  Elec       q    Type
REMARK                         _______ _______ _______ _____ _____    ______ ____
ROOT
ATOM      1  N   UNL     1       4.623   3.624  19.421  0.00  0.00    +0.000 N 
ATOM      2  H   UNL     1       5.031   2.715  19.662  0.00  0.00    +0.000 HD
ENDROOT
BRANCH   1   5
ATOM      3  C   UNL     1       7.148   5.699  19.547  0.00  0.00    +0.000 C 
ATOM      4  C   UNL     1       6.391   5.090  18.412  0.00  0.00    +0.000 A 
ATOM      5  C   UNL     1       5.333   4.257  18.426  0.00  0.00    +0.000 A 
ATOM      6  C   UNL     1       5.027   3.980  16.966  0.00  0.00    +0.000 A 
ATOM      7  O   UNL     1       4.124   3.252  16.583  0.00  0.00    +0.000 OA
ATOM      8  N   UNL     1       5.972   4.698  16.224  0.00  0.00    +0.000 N 
ATOM      9  N   UNL     1       6.882   5.302  17.113  0.00  0.00    +0.000 N 
ATOM     10  C   UNL     1       7.525   6.559  16.731  0.00  0.00    +0.000 C 
BRANCH   8  11
ATOM     11  C   UNL     1       6.216   4.627  14.838  0.00  0.00    +0.000 A 
ATOM     12  C   UNL     1       7.360   5.217  14.292  0.00  0.00    +0.000 A 
ATOM     13  C   UNL     1       7.726   4.943  12.969  0.00  0.00    +0.000 A 
ATOM     14  C   UNL     1       6.929   4.121  12.171  0.00  0.00    +0.000 A 
ATOM     15  C   UNL     1       5.747   3.591  12.683  0.00  0.00    +0.000 A 
ATOM     16  C   UNL     1       5.394   3.847  14.008  0.00  0.00    +0.000 A 
ENDBRANCH   8  11
ENDBRANCH   1   5
BRANCH   1  17
ATOM     17  C   UNL     1       3.498   3.940  20.145  0.00  0.00    +0.000 C 
ATOM     18  S   UNL     1       2.626   2.921  21.143  0.00  0.00    +0.000 S 
BRANCH  17  19
ATOM     19  N   UNL     1       3.103   5.275  20.093  0.00  0.00    +0.000 N 
ATOM     20  C   UNL     1       2.407   5.893  19.067  0.00  0.00    +0.000 C 
ATOM     21  O   UNL     1       2.005   5.279  18.076  0.00  0.00    +0.000 OA
ATOM     22  H   UNL     1       3.316   5.803  20.929  0.00  0.00    +0.000 HD
BRANCH  20  23
ATOM     23  C   UNL     1       2.139   7.360  19.121  0.00  0.00    +0.000 A 
ATOM     24  C   UNL     1       2.214   8.210  18.012  0.00  0.00    +0.000 A 
ATOM     25  C   UNL     1       1.711   9.519  18.106  0.00  0.00    +0.000 A 
ATOM     26  C   UNL     1       1.149   9.978  19.300  0.00  0.00    +0.000 A 
ATOM     27 CL   UNL     1       0.445  11.546  19.376  0.00  0.00    +0.000 Cl
ATOM     28  C   UNL     1       1.122   9.159  20.421  0.00  0.00    +0.000 A 
ATOM     29  C   UNL     1       1.621   7.858  20.332  0.00  0.00    +0.000 A 
ENDBRANCH  20  23
ENDBRANCH  17  19
ENDBRANCH   1  17
TORSDOF 5
ENDMDL
MODEL 4
REMARK VINA RESULT:      -7.0      3.655      9.004
REMARK  Name = 
REMARK  7 active torsions:
REMARK  status: ('A' for Active; 'I' for Inactive)
REMARK    1  A    between atoms: C_1  and  C_2
REMARK    2  A    between atoms: C_3  and  N_4
REMARK    3  A    between atoms: N_4  and  C_5
REMARK    4  A    between atoms: C_5  and  N_7
REMARK    5  A    between atoms: C_8  and  C_10
REMARK    6  A    between atoms: N_19  and  C_20
REMARK    7  A    between atoms: N_26  and  C_27
REMARK                            x       y       z     vdW  Elec       q    Type
REMARK                         _______ _______ _______ _____ _____    ______ ____
ROOT
ATOM      1  N   UNL     1       3.893   7.295  18.051  0.00  0.00    +0.000 N 
ATOM      2  H   UNL     1       4.028   8.280  17.805  0.00  0.00    +0.000 HD
ENDROOT
BRANCH   1   5
ATOM      3  C   UNL     1       5.938   5.165  19.460  0.00  0.00    +0.000 C 
ATOM      4  C   UNL     1       5.726   5.581  18.041  0.00  0.00    +0.000 A 
ATOM      5  C   UNL     1       4.880   6.493  17.523  0.00  0.00    +0.000 A 
ATOM      6  C   UNL     1       5.121   6.452  16.026  0.00  0.00    +0.000 A 
ATOM      7  O   UNL     1       4.524   7.146  15.218  0.00  0.00    +0.000 OA
ATOM      8  N   UNL     1       6.112   5.486  15.815  0.00  0.00    +0.000 N 
ATOM      9  N   UNL     1       6.415   4.871  17.045  0.00  0.00    +0.000 N 
ATOM     10  C   UNL     1       7.762   4.346  17.267  0.00  0.00    +0.000 C 
BRANCH   8  11
ATOM     11  C   UNL     1       6.552   4.956  14.585  0.00  0.00    +0.000 A 
ATOM     12  C   UNL     1       5.866   3.895  13.988  0.00  0.00    +0.000 A 
ATOM     13  C   UNL     1       6.151   3.532  12.666  0.00  0.00    +0.000 A 
ATOM     14  C   UNL     1       7.153   4.190  11.952  0.00  0.00    +0.000 A 
ATOM     15  C   UNL     1       7.894   5.197  12.565  0.00  0.00    +0.000 A 
ATOM     16  C   UNL     1       7.595   5.574  13.876  0.00  0.00    +0.000 A 
ENDBRANCH   8  11
ENDBRANCH   1   5
BRANCH   1  17
ATOM     17  C   UNL     1       2.786   7.061  18.832  0.00  0.00    +0.000 C 
ATOM     18  S   UNL     1       2.385   5.634  19.604  0.00  0.00    +0.000 S 
BRANCH  17  19
ATOM     19  N   UNL     1       1.965   8.164  19.058  0.00  0.00    +0.000 N 
ATOM     20  C   UNL     1       1.730   9.215  18.185  0.00  0.00    +0.000 C 
ATOM     21  O   UNL     1       2.209   9.251  17.050  0.00  0.00    +0.000 OA
ATOM     22  H   UNL     1       1.462   8.133  19.936  0.00  0.00    +0.000 HD
BRANCH  20  23
ATOM     23  C   UNL     1       0.892  10.371  18.616  0.00  0.00    +0.000 A 
ATOM     24  C   UNL     1      -0.434  10.257  19.049  0.00  0.00    +0.000 A 
ATOM     25  C   UNL     1      -1.061  11.355  19.664  0.00  0.00    +0.000 A 
ATOM     26  C   UNL     1      -0.372  12.559  19.833  0.00  0.00    +0.000 A 
ATOM     27 CL   UNL     1      -1.111  13.865  20.675  0.00  0.00    +0.000 Cl
ATOM     28  C   UNL     1       0.925  12.698  19.356  0.00  0.00    +0.000 A 
ATOM     29  C   UNL     1       1.550  11.609  18.745  0.00  0.00    +0.000 A 
ENDBRANCH  20  23
ENDBRANCH  17  19
ENDBRANCH   1  17
TORSDOF 5
ENDMDL
MODEL 5
REMARK VINA RESULT:      -7.0      3.596      8.841
REMARK  Name = 
REMARK  7 active torsions:
REMARK  status: ('A' for Active; 'I' for Inactive)
REMARK    1  A    between atoms: C_1  and  C_2
REMARK    2  A    between atoms: C_3  and  N_4
REMARK    3  A    between atoms: N_4  and  C_5
REMARK    4  A    between atoms: C_5  and  N_7
REMARK    5  A    between atoms: C_8  and  C_10
REMARK    6  A    between atoms: N_19  and  C_20
REMARK    7  A    between atoms: N_26  and  C_27
REMARK                            x       y       z     vdW  Elec       q    Type
REMARK                         _______ _______ _______ _____ _____    ______ ____
ROOT
ATOM      1  N   UNL     1       1.825   8.217  19.384  0.00  0.00    +0.000 N 
ATOM      2  H   UNL     1       1.922   8.825  18.565  0.00  0.00    +0.000 HD
ENDROOT
BRANCH   1   5
ATOM      3  C   UNL     1       1.389   5.259  20.711  0.00  0.00    +0.000 C 
ATOM      4  C   UNL     1       2.376   5.793  19.725  0.00  0.00    +0.000 A 
ATOM      5  C   UNL     1       2.523   7.040  19.236  0.00  0.00    +0.000 A 
ATOM      6  C   UNL     1       3.686   6.951  18.266  0.00  0.00    +0.000 A 
ATOM      7  O   UNL     1       4.111   7.896  17.618  0.00  0.00    +0.000 OA
ATOM      8  N   UNL     1       4.111   5.617  18.284  0.00  0.00    +0.000 N 
ATOM      9  N   UNL     1       3.240   4.875  19.105  0.00  0.00    +0.000 N 
ATOM     10  C   UNL     1       3.752   3.702  19.814  0.00  0.00    +0.000 C 
BRANCH   8  11
ATOM     11  C   UNL     1       5.041   4.996  17.427  0.00  0.00    +0.000 A 
ATOM     12  C   UNL     1       4.625   4.457  16.207  0.00  0.00    +0.000 A 
ATOM     13  C   UNL     1       5.573   4.062  15.256  0.00  0.00    +0.000 A 
ATOM     14  C   UNL     1       6.938   4.155  15.536  0.00  0.00    +0.000 A 
ATOM     15  C   UNL     1       7.360   4.619  16.779  0.00  0.00    +0.000 A 
ATOM     16  C   UNL     1       6.415   5.033  17.719  0.00  0.00    +0.000 A 
ENDBRANCH   8  11
ENDBRANCH   1   5
BRANCH   1  17
ATOM     17  C   UNL     1       1.043   8.747  20.383  0.00  0.00    +0.000 C 
ATOM     18  S   UNL     1       1.467   8.955  21.986  0.00  0.00    +0.000 S 
BRANCH  17  19
ATOM     19  N   UNL     1      -0.201   9.229  19.982  0.00  0.00    +0.000 N 
ATOM     20  C   UNL     1      -0.477   9.961  18.838  0.00  0.00    +0.000 C 
ATOM     21  O   UNL     1       0.385  10.225  17.998  0.00  0.00    +0.000 OA
ATOM     22  H   UNL     1      -0.966   8.952  20.584  0.00  0.00    +0.000 HD
BRANCH  20  23
ATOM     23  C   UNL     1      -1.854  10.485  18.599  0.00  0.00    +0.000 A 
ATOM     24  C   UNL     1      -2.396  11.589  19.265  0.00  0.00    +0.000 A 
ATOM     25  C   UNL     1      -3.597  12.157  18.805  0.00  0.00    +0.000 A 
ATOM     26  C   UNL     1      -4.254  11.619  17.696  0.00  0.00    +0.000 A 
ATOM     27 CL   UNL     1      -5.668  12.380  17.077  0.00  0.00    +0.000 Cl
ATOM     28  C   UNL     1      -3.752  10.490  17.063  0.00  0.00    +0.000 A 
ATOM     29  C   UNL     1      -2.559   9.923  17.518  0.00  0.00    +0.000 A 
ENDBRANCH  20  23
ENDBRANCH  17  19
ENDBRANCH   1  17
TORSDOF 5
ENDMDL
MODEL 6
REMARK VINA RESULT:      -7.0      5.871      8.033
REMARK  Name = 
REMARK  7 active torsions:
REMARK  status: ('A' for Active; 'I' for Inactive)
REMARK    1  A    between atoms: C_1  and  C_2
REMARK    2  A    between atoms: C_3  and  N_4
REMARK    3  A    between atoms: N_4  and  C_5
REMARK    4  A    between atoms: C_5  and  N_7
REMARK    5  A    between atoms: C_8  and  C_10
REMARK    6  A    between atoms: N_19  and  C_20
REMARK    7  A    between atoms: N_26  and  C_27
REMARK                            x       y       z     vdW  Elec       q    Type
REMARK                         _______ _______ _______ _____ _____    ______ ____
ROOT
ATOM      1  N   UNL     1       7.607   6.569  17.480  0.00  0.00    +0.000 N 
ATOM      2  H   UNL     1       8.025   7.173  16.767  0.00  0.00    +0.000 HD
ENDROOT
BRANCH   1   5
ATOM      3  C   UNL     1       7.414   4.973  14.632  0.00  0.00    +0.000 C 
ATOM      4  C   UNL     1       6.504   5.052  15.814  0.00  0.00    +0.000 A 
ATOM      5  C   UNL     1       6.627   5.756  16.956  0.00  0.00    +0.000 A 
ATOM      6  C   UNL     1       5.394   5.412  17.770  0.00  0.00    +0.000 A 
ATOM      7  O   UNL     1       5.160   5.862  18.881  0.00  0.00    +0.000 OA
ATOM      8  N   UNL     1       4.655   4.507  16.998  0.00  0.00    +0.000 N 
ATOM      9  N   UNL     1       5.386   4.201  15.834  0.00  0.00    +0.000 N 
ATOM     10  C   UNL     1       4.666   3.850  14.610  0.00  0.00    +0.000 C 
BRANCH   8  11
ATOM     11  C   UNL     1       3.525   3.762  17.389  0.00  0.00    +0.000 A 
ATOM     12  C   UNL     1       3.662   2.429  17.786  0.00  0.00    +0.000 A 
ATOM     13  C   UNL     1       2.592   1.767  18.400  0.00  0.00    +0.000 A 
ATOM     14  C   UNL     1       1.367   2.414  18.574  0.00  0.00    +0.000 A 
ATOM     15  C   UNL     1       1.198   3.716  18.112  0.00  0.00    +0.000 A 
ATOM     16  C   UNL     1       2.271   4.383  17.520  0.00  0.00    +0.000 A 
ENDBRANCH   8  11
ENDBRANCH   1   5
BRANCH   1  17
ATOM     17  C   UNL     1       8.142   6.735  18.736  0.00  0.00    +0.000 C 
ATOM     18  S   UNL     1       8.343   5.558  19.906  0.00  0.00    +0.000 S 
BRANCH  17  19
ATOM     19  N   UNL     1       8.636   8.007  19.017  0.00  0.00    +0.000 N 
ATOM     20  C   UNL     1       8.387   9.169  18.304  0.00  0.00    +0.000 C 
ATOM     21  O   UNL     1       7.625   9.199  17.335  0.00  0.00    +0.000 OA
ATOM     22  H   UNL     1       9.185   8.060  19.865  0.00  0.00    +0.000 HD
BRANCH  20  23
ATOM     23  C   UNL     1       9.069  10.440  18.682  0.00  0.00    +0.000 A 
ATOM     24  C   UNL     1       9.966  10.557  19.750  0.00  0.00    +0.000 A 
ATOM     25  C   UNL     1      10.743  11.722  19.880  0.00  0.00    +0.000 A 
ATOM     26  C   UNL     1      10.615  12.764  18.958  0.00  0.00    +0.000 A 
ATOM     27 CL   UNL     1      11.640  14.142  19.066  0.00  0.00    +0.000 Cl
ATOM     28  C   UNL     1       9.688  12.679  17.928  0.00  0.00    +0.000 A 
ATOM     29  C   UNL     1       8.915  11.523  17.796  0.00  0.00    +0.000 A 
ENDBRANCH  20  23
ENDBRANCH  17  19
ENDBRANCH   1  17
TORSDOF 5
ENDMDL
MODEL 7
REMARK VINA RESULT:      -6.9      3.877      5.857
REMARK  Name = 
REMARK  7 active torsions:
REMARK  status: ('A' for Active; 'I' for Inactive)
REMARK    1  A    between atoms: C_1  and  C_2
REMARK    2  A    between atoms: C_3  and  N_4
REMARK    3  A    between atoms: N_4  and  C_5
REMARK    4  A    between atoms: C_5  and  N_7
REMARK    5  A    between atoms: C_8  and  C_10
REMARK    6  A    between atoms: N_19  and  C_20
REMARK    7  A    between atoms: N_26  and  C_27
REMARK                            x       y       z     vdW  Elec       q    Type
REMARK                         _______ _______ _______ _____ _____    ______ ____
ROOT
ATOM      1  N   UNL     1      -0.683  11.479  19.609  0.00  0.00    +0.000 N 
ATOM      2  H   UNL     1      -0.654  11.256  20.609  0.00  0.00    +0.000 HD
ENDROOT
BRANCH   1   5
ATOM      3  C   UNL     1      -2.165  10.139  17.019  0.00  0.00    +0.000 C 
ATOM      4  C   UNL     1      -2.647  11.036  18.112  0.00  0.00    +0.000 A 
ATOM      5  C   UNL     1      -1.975  11.582  19.144  0.00  0.00    +0.000 A 
ATOM      6  C   UNL     1      -3.010  12.380  19.915  0.00  0.00    +0.000 A 
ATOM      7  O   UNL     1      -2.767  13.015  20.929  0.00  0.00    +0.000 OA
ATOM      8  N   UNL     1      -4.222  12.209  19.235  0.00  0.00    +0.000 N 
ATOM      9  N   UNL     1      -4.026  11.296  18.181  0.00  0.00    +0.000 N 
ATOM     10  C   UNL     1      -4.847  11.410  16.976  0.00  0.00    +0.000 C 
BRANCH   8  11
ATOM     11  C   UNL     1      -5.509  12.603  19.653  0.00  0.00    +0.000 A 
ATOM     12  C   UNL     1      -6.330  11.709  20.345  0.00  0.00    +0.000 A 
ATOM     13  C   UNL     1      -7.497  12.167  20.968  0.00  0.00    +0.000 A 
ATOM     14  C   UNL     1      -7.876  13.507  20.862  0.00  0.00    +0.000 A 
ATOM     15  C   UNL     1      -7.103  14.388  20.110  0.00  0.00    +0.000 A 
ATOM     16  C   UNL     1      -5.929  13.936  19.507  0.00  0.00    +0.000 A 
ENDBRANCH   8  11
ENDBRANCH   1   5
BRANCH   1  17
ATOM     17  C   UNL     1       0.556  11.617  19.031  0.00  0.00    +0.000 C 
ATOM     18  S   UNL     1       1.409  13.037  18.810  0.00  0.00    +0.000 S 
BRANCH  17  19
ATOM     19  N   UNL     1       1.188  10.429  18.669  0.00  0.00    +0.000 N 
ATOM     20  C   UNL     1       1.277   9.273  19.428  0.00  0.00    +0.000 C 
ATOM     21  O   UNL     1       0.737   9.162  20.530  0.00  0.00    +0.000 OA
ATOM     22  H   UNL     1       1.560  10.428  17.727  0.00  0.00    +0.000 HD
BRANCH  20  23
ATOM     23  C   UNL     1       2.072   8.111  18.931  0.00  0.00    +0.000 A 
ATOM     24  C   UNL     1       2.829   8.128  17.755  0.00  0.00    +0.000 A 
ATOM     25  C   UNL     1       3.733   7.084  17.496  0.00  0.00    +0.000 A 
ATOM     26  C   UNL     1       3.870   6.027  18.399  0.00  0.00    +0.000 A 
ATOM     27 CL   UNL     1       5.050   4.805  18.125  0.00  0.00    +0.000 Cl
ATOM     28  C   UNL     1       3.083   5.974  19.541  0.00  0.00    +0.000 A 
ATOM     29  C   UNL     1       2.183   7.010  19.802  0.00  0.00    +0.000 A 
ENDBRANCH  20  23
ENDBRANCH  17  19
ENDBRANCH   1  17
TORSDOF 5
ENDMDL
MODEL 8
REMARK VINA RESULT:      -6.9      4.443      9.348
REMARK  Name = 
REMARK  7 active torsions:
REMARK  status: ('A' for Active; 'I' for Inactive)
REMARK    1  A    between atoms: C_1  and  C_2
REMARK    2  A    between atoms: C_3  and  N_4
REMARK    3  A    between atoms: N_4  and  C_5
REMARK    4  A    between atoms: C_5  and  N_7
REMARK    5  A    between atoms: C_8  and  C_10
REMARK    6  A    between atoms: N_19  and  C_20
REMARK    7  A    between atoms: N_26  and  C_27
REMARK                            x       y       z     vdW  Elec       q    Type
REMARK                         _______ _______ _______ _____ _____    ______ ____
ROOT
ATOM      1  N   UNL     1       1.170  10.303  18.577  0.00  0.00    +0.000 N 
ATOM      2  H   UNL     1       0.750  10.309  17.643  0.00  0.00    +0.000 HD
ENDROOT
BRANCH   1   5
ATOM      3  C   UNL     1       0.569   8.594  21.300  0.00  0.00    +0.000 C 
ATOM      4  C   UNL     1       1.311   8.273  20.044  0.00  0.00    +0.000 A 
ATOM      5  C   UNL     1       1.551   9.037  18.961  0.00  0.00    +0.000 A 
ATOM      6  C   UNL     1       2.341   8.151  18.017  0.00  0.00    +0.000 A 
ATOM      7  O   UNL     1       2.736   8.504  16.916  0.00  0.00    +0.000 OA
ATOM      8  N   UNL     1       2.483   6.917  18.665  0.00  0.00    +0.000 N 
ATOM      9  N   UNL     1       1.760   6.953  19.872  0.00  0.00    +0.000 N 
ATOM     10  C   UNL     1       2.216   6.143  21.002  0.00  0.00    +0.000 C 
BRANCH   8  11
ATOM     11  C   UNL     1       2.984   5.714  18.128  0.00  0.00    +0.000 A 
ATOM     12  C   UNL     1       4.362   5.483  18.080  0.00  0.00    +0.000 A 
ATOM     13  C   UNL     1       4.848   4.206  17.778  0.00  0.00    +0.000 A 
ATOM     14  C   UNL     1       3.967   3.167  17.473  0.00  0.00    +0.000 A 
ATOM     15  C   UNL     1       2.595   3.408  17.444  0.00  0.00    +0.000 A 
ATOM     16  C   UNL     1       2.110   4.676  17.767  0.00  0.00    +0.000 A 
ENDBRANCH   8  11
ENDBRANCH   1   5
BRANCH   1  17
ATOM     17  C   UNL     1       1.239  11.544  19.165  0.00  0.00    +0.000 C 
ATOM     18  S   UNL     1       2.261  12.798  18.746  0.00  0.00    +0.000 S 
BRANCH  17  19
ATOM     19  N   UNL     1       0.298  11.791  20.162  0.00  0.00    +0.000 N 
ATOM     20  C   UNL     1      -1.075  11.888  19.999  0.00  0.00    +0.000 C 
ATOM     21  O   UNL     1      -1.627  11.705  18.912  0.00  0.00    +0.000 OA
ATOM     22  H   UNL     1       0.687  11.846  21.095  0.00  0.00    +0.000 HD
BRANCH  20  23
ATOM     23  C   UNL     1      -1.942  12.251  21.158  0.00  0.00    +0.000 A 
ATOM     24  C   UNL     1      -3.215  12.817  21.035  0.00  0.00    +0.000 A 
ATOM     25  C   UNL     1      -4.052  12.897  22.162  0.00  0.00    +0.000 A 
ATOM     26  C   UNL     1      -3.616  12.425  23.402  0.00  0.00    +0.000 A 
ATOM     27 CL   UNL     1      -4.681  12.434  24.753  0.00  0.00    +0.000 Cl
ATOM     28  C   UNL     1      -2.333  11.913  23.545  0.00  0.00    +0.000 A 
ATOM     29  C   UNL     1      -1.498  11.832  22.428  0.00  0.00    +0.000 A 
ENDBRANCH  20  23
ENDBRANCH  17  19
ENDBRANCH   1  17
TORSDOF 5
ENDMDL
MODEL 9
REMARK VINA RESULT:      -6.9      3.038      4.554
REMARK  Name = 
REMARK  7 active torsions:
REMARK  status: ('A' for Active; 'I' for Inactive)
REMARK    1  A    between atoms: C_1  and  C_2
REMARK    2  A    between atoms: C_3  and  N_4
REMARK    3  A    between atoms: N_4  and  C_5
REMARK    4  A    between atoms: C_5  and  N_7
REMARK    5  A    between atoms: C_8  and  C_10
REMARK    6  A    between atoms: N_19  and  C_20
REMARK    7  A    between atoms: N_26  and  C_27
REMARK                            x       y       z     vdW  Elec       q    Type
REMARK                         _______ _______ _______ _____ _____    ______ ____
ROOT
ATOM      1  N   UNL     1       0.508   9.688  19.849  0.00  0.00    +0.000 N 
ATOM      2  H   UNL     1       0.434   8.855  20.440  0.00  0.00    +0.000 HD
ENDROOT
BRANCH   1   5
ATOM      3  C   UNL     1      -1.871  11.223  18.210  0.00  0.00    +0.000 C 
ATOM      4  C   UNL     1      -1.388  11.315  19.621  0.00  0.00    +0.000 A 
ATOM      5  C   UNL     1      -0.376  10.672  20.233  0.00  0.00    +0.000 A 
ATOM      6  C   UNL     1      -0.391  11.176  21.664  0.00  0.00    +0.000 A 
ATOM      7  O   UNL     1       0.389  10.807  22.528  0.00  0.00    +0.000 OA
ATOM      8  N   UNL     1      -1.450  12.089  21.745  0.00  0.00    +0.000 N 
ATOM      9  N   UNL     1      -2.134  12.102  20.515  0.00  0.00    +0.000 N 
ATOM     10  C   UNL     1      -2.806  13.328  20.084  0.00  0.00    +0.000 C 
BRANCH   8  11
ATOM     11  C   UNL     1      -1.981  12.693  22.903  0.00  0.00    +0.000 A 
ATOM     12  C   UNL     1      -1.396  13.848  23.428  0.00  0.00    +0.000 A 
ATOM     13  C   UNL     1      -2.058  14.579  24.421  0.00  0.00    +0.000 A 
ATOM     14  C   UNL     1      -3.280  14.136  24.930  0.00  0.00    +0.000 A 
ATOM     15  C   UNL     1      -3.833  12.945  24.467  0.00  0.00    +0.000 A 
ATOM     16  C   UNL     1      -3.183  12.228  23.461  0.00  0.00    +0.000 A 
ENDBRANCH   8  11
ENDBRANCH   1   5
BRANCH   1  17
ATOM     17  C   UNL     1       1.459   9.589  18.861  0.00  0.00    +0.000 C 
ATOM     18  S   UNL     1       2.203  10.848  18.053  0.00  0.00    +0.000 S 
BRANCH  17  19
ATOM     19  N   UNL     1       1.894   8.297  18.572  0.00  0.00    +0.000 N 
ATOM     20  C   UNL     1       2.116   7.274  19.480  0.00  0.00    +0.000 C 
ATOM     21  O   UNL     1       1.889   7.400  20.685  0.00  0.00    +0.000 OA
ATOM     22  H   UNL     1       1.996   8.106  17.583  0.00  0.00    +0.000 HD
BRANCH  20  23
ATOM     23  C   UNL     1       2.673   5.970  19.017  0.00  0.00    +0.000 A 
ATOM     24  C   UNL     1       3.777   5.340  19.602  0.00  0.00    +0.000 A 
ATOM     25  C   UNL     1       4.078   4.009  19.263  0.00  0.00    +0.000 A 
ATOM     26  C   UNL     1       3.289   3.319  18.339  0.00  0.00    +0.000 A 
ATOM     27 CL   UNL     1       3.602   1.661  18.005  0.00  0.00    +0.000 Cl
ATOM     28  C   UNL     1       2.224   3.955  17.713  0.00  0.00    +0.000 A 
ATOM     29  C   UNL     1       1.923   5.277  18.047  0.00  0.00    +0.000 A 
ENDBRANCH  20  23
ENDBRANCH  17  19
ENDBRANCH   1  17
TORSDOF 5
ENDMDL
