MODEL 1
REMARK VINA RESULT:      -6.2      0.000      0.000
REMARK  Name = 
REMARK  4 active torsions:
REMARK  status: ('A' for Active; 'I' for Inactive)
REMARK    1  A    between atoms: C_2  and  C_3
REMARK    2  A    between atoms: C_3  and  C_4
REMARK    3  A    between atoms: C_4  and  N_5
REMARK    4  A    between atoms: C_8  and  O_9
REMARK                            x       y       z     vdW  Elec       q    Type
REMARK                         _______ _______ _______ _____ _____    ______ ____
ROOT
ATOM      1  C   UNL     1       4.677   3.560  17.215  0.00  0.00    +0.000 C 
ENDROOT
BRANCH   1   3
ATOM      2  O   UNL     1       4.994   5.264  15.550  0.00  0.00    +0.000 OA
ATOM      3  C   UNL     1       5.152   4.918  16.721  0.00  0.00    +0.000 C 
ATOM      4  N   UNL     1       5.748   5.752  17.652  0.00  0.00    +0.000 N 
ATOM      5  C   UNL     1       6.134   7.112  17.268  0.00  0.00    +0.000 C 
ATOM      6  C   UNL     1       7.647   7.301  17.418  0.00  0.00    +0.000 C 
ATOM      7  O   UNL     1       8.078   6.965  18.749  0.00  0.00    +0.000 OA
ATOM      8  C   UNL     1       7.752   5.601  19.064  0.00  0.00    +0.000 C 
ATOM      9  C   UNL     1       6.237   5.360  18.978  0.00  0.00    +0.000 C 
ENDBRANCH   1   3
BRANCH   1  10
ATOM     10  C   UNL     1       3.165   3.563  17.454  0.00  0.00    +0.000 C 
BRANCH  10  11
ATOM     11  N   UNL     1       2.796   3.776  18.863  0.00  0.00    +0.000 NA
ATOM     12  C   UNL     1       1.356   4.040  18.991  0.00  0.00    +0.000 C 
ATOM     13  C   UNL     1       1.109   3.837  20.473  0.00  0.00    +0.000 C 
ATOM     14  C   UNL     1       1.982   2.638  20.813  0.00  0.00    +0.000 C 
ATOM     15  C   UNL     1       3.063   2.612  19.722  0.00  0.00    +0.000 C 
BRANCH  14  16
ATOM     16  O   UNL     1       2.528   2.768  22.118  0.00  0.00    +0.000 OA
ATOM     17  H   UNL     1       1.782   2.911  22.728  0.00  0.00    +0.000 HD
ENDBRANCH  14  16
ENDBRANCH  10  11
ENDBRANCH   1  10
TORSDOF 4
ENDMDL
MODEL 2
REMARK VINA RESULT:      -6.1      2.258      5.976
REMARK  Name = 
REMARK  4 active torsions:
REMARK  status: ('A' for Active; 'I' for Inactive)
REMARK    1  A    between atoms: C_2  and  C_3
REMARK    2  A    between atoms: C_3  and  C_4
REMARK    3  A    between atoms: C_4  and  N_5
REMARK    4  A    between atoms: C_8  and  O_9
REMARK                            x       y       z     vdW  Elec       q    Type
REMARK                         _______ _______ _______ _____ _____    ______ ____
ROOT
ATOM      1  C   UNL     1       5.298   5.130  19.297  0.00  0.00    +0.000 C 
ENDROOT
BRANCH   1   3
ATOM      2  O   UNL     1       5.163   2.800  19.869  0.00  0.00    +0.000 OA
ATOM      3  C   UNL     1       4.559   3.828  19.564  0.00  0.00    +0.000 C 
ATOM      4  N   UNL     1       3.177   3.860  19.468  0.00  0.00    +0.000 N 
ATOM      5  C   UNL     1       2.397   2.669  19.813  0.00  0.00    +0.000 C 
ATOM      6  C   UNL     1       1.602   2.181  18.598  0.00  0.00    +0.000 C 
ATOM      7  O   UNL     1       0.783   3.236  18.062  0.00  0.00    +0.000 OA
ATOM      8  C   UNL     1       1.588   4.358  17.663  0.00  0.00    +0.000 C 
ATOM      9  C   UNL     1       2.376   4.924  18.854  0.00  0.00    +0.000 C 
ENDBRANCH   1   3
BRANCH   1  10
ATOM     10  C   UNL     1       6.447   4.914  18.309  0.00  0.00    +0.000 C 
BRANCH  10  11
ATOM     11  N   UNL     1       5.995   4.564  16.952  0.00  0.00    +0.000 NA
ATOM     12  C   UNL     1       5.318   5.703  16.318  0.00  0.00    +0.000 C 
ATOM     13  C   UNL     1       5.289   5.303  14.855  0.00  0.00    +0.000 C 
ATOM     14  C   UNL     1       6.646   4.647  14.645  0.00  0.00    +0.000 C 
ATOM     15  C   UNL     1       7.092   4.197  16.045  0.00  0.00    +0.000 C 
BRANCH  14  16
ATOM     16  O   UNL     1       6.544   3.564  13.731  0.00  0.00    +0.000 OA
ATOM     17  H   UNL     1       5.681   3.644  13.287  0.00  0.00    +0.000 HD
ENDBRANCH  14  16
ENDBRANCH  10  11
ENDBRANCH   1  10
TORSDOF 4
ENDMDL
MODEL 3
REMARK VINA RESULT:      -6.0      1.468      5.190
REMARK  Name = 
REMARK  4 active torsions:
REMARK  status: ('A' for Active; 'I' for Inactive)
REMARK    1  A    between atoms: C_2  and  C_3
REMARK    2  A    between atoms: C_3  and  C_4
REMARK    3  A    between atoms: C_4  and  N_5
REMARK    4  A    between atoms: C_8  and  O_9
REMARK                            x       y       z     vdW  Elec       q    Type
REMARK                         _______ _______ _______ _____ _____    ______ ____
ROOT
ATOM      1  C   UNL     1       5.405   4.223  16.223  0.00  0.00    +0.000 C 
ENDROOT
BRANCH   1   3
ATOM      2  O   UNL     1       4.085   6.104  16.928  0.00  0.00    +0.000 OA
ATOM      3  C   UNL     1       4.291   4.893  17.013  0.00  0.00    +0.000 C 
ATOM      4  N   UNL     1       3.509   4.075  17.812  0.00  0.00    +0.000 N 
ATOM      5  C   UNL     1       2.355   4.637  18.518  0.00  0.00    +0.000 C 
ATOM      6  C   UNL     1       2.529   4.484  20.032  0.00  0.00    +0.000 C 
ATOM      7  O   UNL     1       2.772   3.110  20.386  0.00  0.00    +0.000 OA
ATOM      8  C   UNL     1       3.954   2.615  19.735  0.00  0.00    +0.000 C 
ATOM      9  C   UNL     1       3.820   2.697  18.207  0.00  0.00    +0.000 C 
ENDBRANCH   1   3
BRANCH   1  10
ATOM     10  C   UNL     1       6.474   5.241  15.816  0.00  0.00    +0.000 C 
BRANCH  10  11
ATOM     11  N   UNL     1       7.429   5.549  16.894  0.00  0.00    +0.000 NA
ATOM     12  C   UNL     1       7.380   6.976  17.242  0.00  0.00    +0.000 C 
ATOM     13  C   UNL     1       8.097   7.019  18.577  0.00  0.00    +0.000 C 
ATOM     14  C   UNL     1       7.611   5.759  19.277  0.00  0.00    +0.000 C 
ATOM     15  C   UNL     1       7.155   4.825  18.144  0.00  0.00    +0.000 C 
BRANCH  14  16
ATOM     16  O   UNL     1       8.647   5.191  20.066  0.00  0.00    +0.000 OA
ATOM     17  H   UNL     1       8.876   5.845  20.752  0.00  0.00    +0.000 HD
ENDBRANCH  14  16
ENDBRANCH  10  11
ENDBRANCH   1  10
TORSDOF 4
ENDMDL
MODEL 4
REMARK VINA RESULT:      -6.0      1.703      2.210
REMARK  Name = 
REMARK  4 active torsions:
REMARK  status: ('A' for Active; 'I' for Inactive)
REMARK    1  A    between atoms: C_2  and  C_3
REMARK    2  A    between atoms: C_3  and  C_4
REMARK    3  A    between atoms: C_4  and  N_5
REMARK    4  A    between atoms: C_8  and  O_9
REMARK                            x       y       z     vdW  Elec       q    Type
REMARK                         _______ _______ _______ _____ _____    ______ ____
ROOT
ATOM      1  C   UNL     1       2.958   5.578  17.980  0.00  0.00    +0.000 C 
ENDROOT
BRANCH   1   3
ATOM      2  O   UNL     1       3.726   3.456  17.155  0.00  0.00    +0.000 OA
ATOM      3  C   UNL     1       3.876   4.678  17.169  0.00  0.00    +0.000 C 
ATOM      4  N   UNL     1       4.873   5.297  16.432  0.00  0.00    +0.000 N 
ATOM      5  C   UNL     1       5.726   4.499  15.548  0.00  0.00    +0.000 C 
ATOM      6  C   UNL     1       7.190   4.600  15.985  0.00  0.00    +0.000 C 
ATOM      7  O   UNL     1       7.612   5.974  16.059  0.00  0.00    +0.000 OA
ATOM      8  C   UNL     1       6.803   6.708  16.993  0.00  0.00    +0.000 C 
ATOM      9  C   UNL     1       5.323   6.685  16.580  0.00  0.00    +0.000 C 
ENDBRANCH   1   3
BRANCH   1  10
ATOM     10  C   UNL     1       3.334   5.548  19.464  0.00  0.00    +0.000 C 
BRANCH  10  11
ATOM     11  N   UNL     1       2.379   4.793  20.294  0.00  0.00    +0.000 NA
ATOM     12  C   UNL     1       1.254   4.307  19.484  0.00  0.00    +0.000 C 
ATOM     13  C   UNL     1       0.622   3.262  20.383  0.00  0.00    +0.000 C 
ATOM     14  C   UNL     1       1.821   2.575  21.018  0.00  0.00    +0.000 C 
ATOM     15  C   UNL     1       2.964   3.598  20.920  0.00  0.00    +0.000 C 
BRANCH  14  16
ATOM     16  O   UNL     1       1.535   2.206  22.360  0.00  0.00    +0.000 OA
ATOM     17  H   UNL     1       0.820   2.789  22.672  0.00  0.00    +0.000 HD
ENDBRANCH  14  16
ENDBRANCH  10  11
ENDBRANCH   1  10
TORSDOF 4
ENDMDL
MODEL 5
REMARK VINA RESULT:      -5.9      1.305      5.552
REMARK  Name = 
REMARK  4 active torsions:
REMARK  status: ('A' for Active; 'I' for Inactive)
REMARK    1  A    between atoms: C_2  and  C_3
REMARK    2  A    between atoms: C_3  and  C_4
REMARK    3  A    between atoms: C_4  and  N_5
REMARK    4  A    between atoms: C_8  and  O_9
REMARK                            x       y       z     vdW  Elec       q    Type
REMARK                         _______ _______ _______ _____ _____    ______ ____
ROOT
ATOM      1  C   UNL     1       4.392   3.148  17.254  0.00  0.00    +0.000 C 
ENDROOT
BRANCH   1   3
ATOM      2  O   UNL     1       2.108   3.636  16.688  0.00  0.00    +0.000 OA
ATOM      3  C   UNL     1       2.896   3.184  17.520  0.00  0.00    +0.000 C 
ATOM      4  N   UNL     1       2.460   2.665  18.728  0.00  0.00    +0.000 N 
ATOM      5  C   UNL     1       1.024   2.573  19.005  0.00  0.00    +0.000 C 
ATOM      6  C   UNL     1       0.660   3.419  20.229  0.00  0.00    +0.000 C 
ATOM      7  O   UNL     1       1.462   3.050  21.366  0.00  0.00    +0.000 OA
ATOM      8  C   UNL     1       2.861   3.225  21.085  0.00  0.00    +0.000 C 
ATOM      9  C   UNL     1       3.298   2.361  19.893  0.00  0.00    +0.000 C 
ENDBRANCH   1   3
BRANCH   1  10
ATOM     10  C   UNL     1       4.874   4.475  16.661  0.00  0.00    +0.000 C 
BRANCH  10  11
ATOM     11  N   UNL     1       6.162   4.929  17.211  0.00  0.00    +0.000 NA
ATOM     12  C   UNL     1       6.322   6.379  17.038  0.00  0.00    +0.000 C 
ATOM     13  C   UNL     1       7.463   6.705  17.982  0.00  0.00    +0.000 C 
ATOM     14  C   UNL     1       7.181   5.826  19.190  0.00  0.00    +0.000 C 
ATOM     15  C   UNL     1       6.303   4.683  18.654  0.00  0.00    +0.000 C 
BRANCH  14  16
ATOM     16  O   UNL     1       8.392   5.357  19.765  0.00  0.00    +0.000 OA
ATOM     17  H   UNL     1       8.596   4.502  19.345  0.00  0.00    +0.000 HD
ENDBRANCH  14  16
ENDBRANCH  10  11
ENDBRANCH   1  10
TORSDOF 4
ENDMDL
MODEL 6
REMARK VINA RESULT:      -5.9      1.976      6.105
REMARK  Name = 
REMARK  4 active torsions:
REMARK  status: ('A' for Active; 'I' for Inactive)
REMARK    1  A    between atoms: C_2  and  C_3
REMARK    2  A    between atoms: C_3  and  C_4
REMARK    3  A    between atoms: C_4  and  N_5
REMARK    4  A    between atoms: C_8  and  O_9
REMARK                            x       y       z     vdW  Elec       q    Type
REMARK                         _______ _______ _______ _____ _____    ______ ____
ROOT
ATOM      1  C   UNL     1       3.247   5.725  17.591  0.00  0.00    +0.000 C 
ENDROOT
BRANCH   1   3
ATOM      2  O   UNL     1       2.786   6.561  19.796  0.00  0.00    +0.000 OA
ATOM      3  C   UNL     1       2.621   5.659  18.975  0.00  0.00    +0.000 C 
ATOM      4  N   UNL     1       1.841   4.549  19.259  0.00  0.00    +0.000 N 
ATOM      5  C   UNL     1       1.125   4.472  20.535  0.00  0.00    +0.000 C 
ATOM      6  C   UNL     1       1.603   3.262  21.344  0.00  0.00    +0.000 C 
ATOM      7  O   UNL     1       1.486   2.050  20.575  0.00  0.00    +0.000 OA
ATOM      8  C   UNL     1       2.262   2.132  19.368  0.00  0.00    +0.000 C 
ATOM      9  C   UNL     1       1.795   3.302  18.489  0.00  0.00    +0.000 C 
ENDBRANCH   1   3
BRANCH   1  10
ATOM     10  C   UNL     1       4.190   6.924  17.474  0.00  0.00    +0.000 C 
BRANCH  10  11
ATOM     11  N   UNL     1       5.541   6.564  17.011  0.00  0.00    +0.000 NA
ATOM     12  C   UNL     1       6.158   5.583  17.915  0.00  0.00    +0.000 C 
ATOM     13  C   UNL     1       7.318   5.055  17.093  0.00  0.00    +0.000 C 
ATOM     14  C   UNL     1       6.738   4.959  15.690  0.00  0.00    +0.000 C 
ATOM     15  C   UNL     1       5.557   5.942  15.679  0.00  0.00    +0.000 C 
BRANCH  14  16
ATOM     16  O   UNL     1       7.722   5.278  14.717  0.00  0.00    +0.000 OA
ATOM     17  H   UNL     1       7.291   5.223  13.845  0.00  0.00    +0.000 HD
ENDBRANCH  14  16
ENDBRANCH  10  11
ENDBRANCH   1  10
TORSDOF 4
ENDMDL
MODEL 7
REMARK VINA RESULT:      -5.9      2.013      5.805
REMARK  Name = 
REMARK  4 active torsions:
REMARK  status: ('A' for Active; 'I' for Inactive)
REMARK    1  A    between atoms: C_2  and  C_3
REMARK    2  A    between atoms: C_3  and  C_4
REMARK    3  A    between atoms: C_4  and  N_5
REMARK    4  A    between atoms: C_8  and  O_9
REMARK                            x       y       z     vdW  Elec       q    Type
REMARK                         _______ _______ _______ _____ _____    ______ ____
ROOT
ATOM      1  C   UNL     1       2.760   6.259  17.742  0.00  0.00    +0.000 C 
ENDROOT
BRANCH   1   3
ATOM      2  O   UNL     1       2.460   6.595  20.103  0.00  0.00    +0.000 OA
ATOM      3  C   UNL     1       2.292   5.857  19.132  0.00  0.00    +0.000 C 
ATOM      4  N   UNL     1       1.652   4.634  19.250  0.00  0.00    +0.000 N 
ATOM      5  C   UNL     1       1.084   4.232  20.540  0.00  0.00    +0.000 C 
ATOM      6  C   UNL     1       1.753   2.949  21.041  0.00  0.00    +0.000 C 
ATOM      7  O   UNL     1       1.667   1.904  20.055  0.00  0.00    +0.000 OA
ATOM      8  C   UNL     1       2.301   2.303  18.829  0.00  0.00    +0.000 C 
ATOM      9  C   UNL     1       1.639   3.563  18.248  0.00  0.00    +0.000 C 
ENDBRANCH   1   3
BRANCH   1  10
ATOM     10  C   UNL     1       4.245   6.633  17.752  0.00  0.00    +0.000 C 
BRANCH  10  11
ATOM     11  N   UNL     1       5.141   5.476  17.587  0.00  0.00    +0.000 NA
ATOM     12  C   UNL     1       5.076   4.958  16.214  0.00  0.00    +0.000 C 
ATOM     13  C   UNL     1       6.307   4.075  16.132  0.00  0.00    +0.000 C 
ATOM     14  C   UNL     1       7.357   4.865  16.898  0.00  0.00    +0.000 C 
ATOM     15  C   UNL     1       6.557   5.794  17.825  0.00  0.00    +0.000 C 
BRANCH  14  16
ATOM     16  O   UNL     1       8.219   3.992  17.614  0.00  0.00    +0.000 OA
ATOM     17  H   UNL     1       7.674   3.531  18.277  0.00  0.00    +0.000 HD
ENDBRANCH  14  16
ENDBRANCH  10  11
ENDBRANCH   1  10
TORSDOF 4
ENDMDL
MODEL 8
REMARK VINA RESULT:      -5.9      1.682      2.152
REMARK  Name = 
REMARK  4 active torsions:
REMARK  status: ('A' for Active; 'I' for Inactive)
REMARK    1  A    between atoms: C_2  and  C_3
REMARK    2  A    between atoms: C_3  and  C_4
REMARK    3  A    between atoms: C_4  and  N_5
REMARK    4  A    between atoms: C_8  and  O_9
REMARK                            x       y       z     vdW  Elec       q    Type
REMARK                         _______ _______ _______ _____ _____    ______ ____
ROOT
ATOM      1  C   UNL     1       2.935   5.441  17.865  0.00  0.00    +0.000 C 
ENDROOT
BRANCH   1   3
ATOM      2  O   UNL     1       3.795   3.398  16.938  0.00  0.00    +0.000 OA
ATOM      3  C   UNL     1       3.909   4.620  17.035  0.00  0.00    +0.000 C 
ATOM      4  N   UNL     1       4.914   5.311  16.379  0.00  0.00    +0.000 N 
ATOM      5  C   UNL     1       5.823   4.594  15.480  0.00  0.00    +0.000 C 
ATOM      6  C   UNL     1       7.266   4.705  15.981  0.00  0.00    +0.000 C 
ATOM      7  O   UNL     1       7.645   6.082  16.158  0.00  0.00    +0.000 OA
ATOM      8  C   UNL     1       6.780   6.734  17.103  0.00  0.00    +0.000 C 
ATOM      9  C   UNL     1       5.318   6.698  16.631  0.00  0.00    +0.000 C 
ENDBRANCH   1   3
BRANCH   1  10
ATOM     10  C   UNL     1       1.581   4.736  17.977  0.00  0.00    +0.000 C 
BRANCH  10  11
ATOM     11  N   UNL     1       1.355   4.110  19.291  0.00  0.00    +0.000 NA
ATOM     12  C   UNL     1       1.145   2.663  19.151  0.00  0.00    +0.000 C 
ATOM     13  C   UNL     1       1.327   2.159  20.570  0.00  0.00    +0.000 C 
ATOM     14  C   UNL     1       2.482   2.998  21.093  0.00  0.00    +0.000 C 
ATOM     15  C   UNL     1       2.489   4.260  20.215  0.00  0.00    +0.000 C 
BRANCH  14  16
ATOM     16  O   UNL     1       2.304   3.296  22.471  0.00  0.00    +0.000 OA
ATOM     17  H   UNL     1       1.378   3.580  22.585  0.00  0.00    +0.000 HD
ENDBRANCH  14  16
ENDBRANCH  10  11
ENDBRANCH   1  10
TORSDOF 4
ENDMDL
MODEL 9
REMARK VINA RESULT:      -5.8      1.431      1.762
REMARK  Name = 
REMARK  4 active torsions:
REMARK  status: ('A' for Active; 'I' for Inactive)
REMARK    1  A    between atoms: C_2  and  C_3
REMARK    2  A    between atoms: C_3  and  C_4
REMARK    3  A    between atoms: C_4  and  N_5
REMARK    4  A    between atoms: C_8  and  O_9
REMARK                            x       y       z     vdW  Elec       q    Type
REMARK                         _______ _______ _______ _____ _____    ______ ____
ROOT
ATOM      1  C   UNL     1       3.274   3.674  16.748  0.00  0.00    +0.000 C 
ENDROOT
BRANCH   1   3
ATOM      2  O   UNL     1       3.203   5.787  17.890  0.00  0.00    +0.000 OA
ATOM      3  C   UNL     1       3.897   4.916  17.365  0.00  0.00    +0.000 C 
ATOM      4  N   UNL     1       5.279   5.010  17.328  0.00  0.00    +0.000 N 
ATOM      5  C   UNL     1       5.949   6.129  17.995  0.00  0.00    +0.000 C 
ATOM      6  C   UNL     1       6.733   6.965  16.979  0.00  0.00    +0.000 C 
ATOM      7  O   UNL     1       7.650   6.142  16.233  0.00  0.00    +0.000 OA
ATOM      8  C   UNL     1       6.949   5.103  15.530  0.00  0.00    +0.000 C 
ATOM      9  C   UNL     1       6.180   4.197  16.505  0.00  0.00    +0.000 C 
ENDBRANCH   1   3
BRANCH   1  10
ATOM     10  C   UNL     1       3.026   2.601  17.811  0.00  0.00    +0.000 C 
BRANCH  10  11
ATOM     11  N   UNL     1       2.488   3.139  19.072  0.00  0.00    +0.000 NA
ATOM     12  C   UNL     1       1.053   2.851  19.193  0.00  0.00    +0.000 C 
ATOM     13  C   UNL     1       0.782   3.109  20.663  0.00  0.00    +0.000 C 
ATOM     14  C   UNL     1       2.018   2.549  21.350  0.00  0.00    +0.000 C 
ATOM     15  C   UNL     1       3.112   2.558  20.270  0.00  0.00    +0.000 C 
BRANCH  14  16
ATOM     16  O   UNL     1       2.364   3.336  22.481  0.00  0.00    +0.000 OA
ATOM     17  H   UNL     1       2.384   4.265  22.189  0.00  0.00    +0.000 HD
ENDBRANCH  14  16
ENDBRANCH  10  11
ENDBRANCH   1  10
TORSDOF 4
ENDMDL
