MODEL 1
REMARK VINA RESULT:      -7.7      0.000      0.000
REMARK  Name = 
REMARK  5 active torsions:
REMARK  status: ('A' for Active; 'I' for Inactive)
REMARK    1  A    between atoms: C_1  and  C_2
REMARK    2  A    between atoms: C_2  and  O_3
REMARK    3  A    between atoms: O_3  and  C_4
REMARK    4  A    between atoms: N_10  and  S_11
REMARK    5  A    between atoms: S_11  and  C_14
REMARK                            x       y       z     vdW  Elec       q    Type
REMARK                         _______ _______ _______ _____ _____    ______ ____
ROOT
ATOM      1  C   UNL     1       2.256   5.084  20.397  0.00  0.00    +0.000 C 
ATOM      2  C   UNL     1       2.124   6.456  19.760  0.00  0.00    +0.000 C 
ATOM      3  O   UNL     1       3.412   6.749  19.194  0.00  0.00    +0.000 OA
ATOM      4  C   UNL     1       3.998   5.498  18.762  0.00  0.00    +0.000 C 
ATOM      5  C   UNL     1       5.467   5.484  19.223  0.00  0.00    +0.000 C 
ATOM      6  C   UNL     1       6.381   6.294  18.312  0.00  0.00    +0.000 C 
ATOM      7  N   UNL     1       6.208   5.909  16.886  0.00  0.00    +0.000 NA
ATOM      8  C   UNL     1       4.819   6.239  16.460  0.00  0.00    +0.000 C 
ATOM      9  C   UNL     1       3.818   5.394  17.233  0.00  0.00    +0.000 C 
ATOM     10  C   UNL     1       3.201   4.382  19.447  0.00  0.00    +0.000 C 
ENDROOT
BRANCH   7  11
ATOM     11  S   UNL     1       6.765   4.378  16.348  0.00  0.00    +0.000 S 
ATOM     12  O   UNL     1       8.112   4.171  16.836  0.00  0.00    +0.000 OA
ATOM     13  O   UNL     1       5.728   3.404  16.640  0.00  0.00    +0.000 OA
BRANCH  11  14
ATOM     14  C   UNL     1       6.839   4.505  14.582  0.00  0.00    +0.000 A 
ATOM     15  C   UNL     1       7.744   5.388  13.979  0.00  0.00    +0.000 A 
ATOM     16  C   UNL     1       7.872   5.409  12.589  0.00  0.00    +0.000 A 
ATOM     17  C   UNL     1       7.112   4.536  11.810  0.00  0.00    +0.000 A 
ATOM     18  C   UNL     1       6.240   3.642  12.427  0.00  0.00    +0.000 A 
ATOM     19  F   UNL     1       5.546   2.779  11.672  0.00  0.00    +0.000 F 
ATOM     20  C   UNL     1       6.092   3.614  13.808  0.00  0.00    +0.000 A 
ENDBRANCH  11  14
ENDBRANCH   7  11
BRANCH   1  21
ATOM     21  O   UNL     1       1.000   4.423  20.506  0.00  0.00    +0.000 OA
BRANCH  21  23
ATOM     22  C   UNL     1       1.457   2.503  21.870  0.00  0.00    +0.000 C 
ATOM     23  C   UNL     1       1.126   3.000  20.478  0.00  0.00    +0.000 C 
ENDBRANCH  21  23
ENDBRANCH   1  21
TORSDOF 4
ENDMDL
MODEL 2
REMARK VINA RESULT:      -7.4      1.616      2.671
REMARK  Name = 
REMARK  5 active torsions:
REMARK  status: ('A' for Active; 'I' for Inactive)
REMARK    1  A    between atoms: C_1  and  C_2
REMARK    2  A    between atoms: C_2  and  O_3
REMARK    3  A    between atoms: O_3  and  C_4
REMARK    4  A    between atoms: N_10  and  S_11
REMARK    5  A    between atoms: S_11  and  C_14
REMARK                            x       y       z     vdW  Elec       q    Type
REMARK                         _______ _______ _______ _____ _____    ______ ____
ROOT
ATOM      1  C   UNL     1       1.673   5.832  20.258  0.00  0.00    +0.000 C 
ATOM      2  C   UNL     1       2.398   4.620  20.813  0.00  0.00    +0.000 C 
ATOM      3  O   UNL     1       3.109   4.048  19.704  0.00  0.00    +0.000 OA
ATOM      4  C   UNL     1       3.499   5.131  18.826  0.00  0.00    +0.000 C 
ATOM      5  C   UNL     1       3.186   4.700  17.382  0.00  0.00    +0.000 C 
ATOM      6  C   UNL     1       4.242   3.769  16.799  0.00  0.00    +0.000 C 
ATOM      7  N   UNL     1       5.610   4.330  16.962  0.00  0.00    +0.000 NA
ATOM      8  C   UNL     1       5.921   4.433  18.416  0.00  0.00    +0.000 C 
ATOM      9  C   UNL     1       4.990   5.434  19.083  0.00  0.00    +0.000 C 
ATOM     10  C   UNL     1       2.654   6.345  19.228  0.00  0.00    +0.000 C 
ENDROOT
BRANCH   7  11
ATOM     11  S   UNL     1       6.081   5.699  16.043  0.00  0.00    +0.000 S 
ATOM     12  O   UNL     1       4.956   6.605  15.942  0.00  0.00    +0.000 OA
ATOM     13  O   UNL     1       7.349   6.170  16.570  0.00  0.00    +0.000 OA
BRANCH  11  14
ATOM     14  C   UNL     1       6.424   5.074  14.420  0.00  0.00    +0.000 A 
ATOM     15  C   UNL     1       7.582   5.477  13.742  0.00  0.00    +0.000 A 
ATOM     16  C   UNL     1       7.900   4.903  12.510  0.00  0.00    +0.000 A 
ATOM     17  C   UNL     1       7.074   3.916  11.971  0.00  0.00    +0.000 A 
ATOM     18  C   UNL     1       5.944   3.504  12.673  0.00  0.00    +0.000 A 
ATOM     19  F   UNL     1       5.181   2.525  12.166  0.00  0.00    +0.000 F 
ATOM     20  C   UNL     1       5.606   4.071  13.895  0.00  0.00    +0.000 A 
ENDBRANCH  11  14
ENDBRANCH   7  11
BRANCH   1  21
ATOM     21  O   UNL     1       1.389   6.795  21.269  0.00  0.00    +0.000 OA
BRANCH  21  23
ATOM     22  C   UNL     1       1.402   9.096  21.947  0.00  0.00    +0.000 C 
ATOM     23  C   UNL     1       1.429   8.135  20.776  0.00  0.00    +0.000 C 
ENDBRANCH  21  23
ENDBRANCH   1  21
TORSDOF 4
ENDMDL
MODEL 3
REMARK VINA RESULT:      -7.3      3.489      7.291
REMARK  Name = 
REMARK  5 active torsions:
REMARK  status: ('A' for Active; 'I' for Inactive)
REMARK    1  A    between atoms: C_1  and  C_2
REMARK    2  A    between atoms: C_2  and  O_3
REMARK    3  A    between atoms: O_3  and  C_4
REMARK    4  A    between atoms: N_10  and  S_11
REMARK    5  A    between atoms: S_11  and  C_14
REMARK                            x       y       z     vdW  Elec       q    Type
REMARK                         _______ _______ _______ _____ _____    ______ ____
ROOT
ATOM      1  C   UNL     1       6.790   5.356  15.265  0.00  0.00    +0.000 C 
ATOM      2  C   UNL     1       7.402   4.278  16.140  0.00  0.00    +0.000 C 
ATOM      3  O   UNL     1       6.730   4.373  17.406  0.00  0.00    +0.000 OA
ATOM      4  C   UNL     1       5.372   4.802  17.152  0.00  0.00    +0.000 C 
ATOM      5  C   UNL     1       5.029   5.905  18.171  0.00  0.00    +0.000 C 
ATOM      6  C   UNL     1       4.659   5.349  19.541  0.00  0.00    +0.000 C 
ATOM      7  N   UNL     1       3.613   4.298  19.437  0.00  0.00    +0.000 NA
ATOM      8  C   UNL     1       4.160   3.144  18.669  0.00  0.00    +0.000 C 
ATOM      9  C   UNL     1       4.460   3.561  17.237  0.00  0.00    +0.000 C 
ATOM     10  C   UNL     1       5.349   5.356  15.723  0.00  0.00    +0.000 C 
ENDROOT
BRANCH   7  11
ATOM     11  S   UNL     1       2.011   4.735  19.006  0.00  0.00    +0.000 S 
ATOM     12  O   UNL     1       1.839   4.537  17.582  0.00  0.00    +0.000 OA
ATOM     13  O   UNL     1       1.110   4.091  19.944  0.00  0.00    +0.000 OA
BRANCH  11  14
ATOM     14  C   UNL     1       1.901   6.474  19.330  0.00  0.00    +0.000 A 
ATOM     15  C   UNL     1       1.978   7.392  18.274  0.00  0.00    +0.000 A 
ATOM     16  C   UNL     1       1.786   8.753  18.522  0.00  0.00    +0.000 A 
ATOM     17  C   UNL     1       1.500   9.188  19.817  0.00  0.00    +0.000 A 
ATOM     18  C   UNL     1       1.395   8.259  20.849  0.00  0.00    +0.000 A 
ATOM     19  F   UNL     1       1.078   8.683  22.080  0.00  0.00    +0.000 F 
ATOM     20  C   UNL     1       1.593   6.903  20.623  0.00  0.00    +0.000 A 
ENDBRANCH  11  14
ENDBRANCH   7  11
BRANCH   1  21
ATOM     21  O   UNL     1       6.924   5.060  13.878  0.00  0.00    +0.000 OA
BRANCH  21  23
ATOM     22  C   UNL     1       6.603   3.508  12.077  0.00  0.00    +0.000 C 
ATOM     23  C   UNL     1       6.248   3.857  13.508  0.00  0.00    +0.000 C 
ENDBRANCH  21  23
ENDBRANCH   1  21
TORSDOF 4
ENDMDL
MODEL 4
REMARK VINA RESULT:      -7.2      2.635      7.022
REMARK  Name = 
REMARK  5 active torsions:
REMARK  status: ('A' for Active; 'I' for Inactive)
REMARK    1  A    between atoms: C_1  and  C_2
REMARK    2  A    between atoms: C_2  and  O_3
REMARK    3  A    between atoms: O_3  and  C_4
REMARK    4  A    between atoms: N_10  and  S_11
REMARK    5  A    between atoms: S_11  and  C_14
REMARK                            x       y       z     vdW  Elec       q    Type
REMARK                         _______ _______ _______ _____ _____    ______ ____
ROOT
ATOM      1  C   UNL     1       6.123   4.404  14.298  0.00  0.00    +0.000 C 
ATOM      2  C   UNL     1       7.169   4.228  15.383  0.00  0.00    +0.000 C 
ATOM      3  O   UNL     1       6.808   5.147  16.426  0.00  0.00    +0.000 OA
ATOM      4  C   UNL     1       5.366   5.256  16.438  0.00  0.00    +0.000 C 
ATOM      5  C   UNL     1       5.008   6.749  16.558  0.00  0.00    +0.000 C 
ATOM      6  C   UNL     1       5.118   7.271  17.985  0.00  0.00    +0.000 C 
ATOM      7  N   UNL     1       4.369   6.409  18.938  0.00  0.00    +0.000 NA
ATOM      8  C   UNL     1       4.990   5.055  18.956  0.00  0.00    +0.000 C 
ATOM      9  C   UNL     1       4.835   4.388  17.597  0.00  0.00    +0.000 C 
ATOM     10  C   UNL     1       4.874   4.683  15.104  0.00  0.00    +0.000 C 
ENDROOT
BRANCH   7  11
ATOM     11  S   UNL     1       2.654   6.397  18.904  0.00  0.00    +0.000 S 
ATOM     12  O   UNL     1       2.161   7.443  19.774  0.00  0.00    +0.000 OA
ATOM     13  O   UNL     1       2.241   6.352  17.513  0.00  0.00    +0.000 OA
BRANCH  11  14
ATOM     14  C   UNL     1       2.187   4.839  19.608  0.00  0.00    +0.000 A 
ATOM     15  C   UNL     1       2.366   4.605  20.978  0.00  0.00    +0.000 A 
ATOM     16  C   UNL     1       1.901   3.417  21.545  0.00  0.00    +0.000 A 
ATOM     17  C   UNL     1       1.242   2.479  20.749  0.00  0.00    +0.000 A 
ATOM     18  C   UNL     1       1.045   2.741  19.396  0.00  0.00    +0.000 A 
ATOM     19  F   UNL     1       0.374   1.854  18.648  0.00  0.00    +0.000 F 
ATOM     20  C   UNL     1       1.510   3.913  18.811  0.00  0.00    +0.000 A 
ENDBRANCH  11  14
ENDBRANCH   7  11
BRANCH   1  21
ATOM     21  O   UNL     1       5.998   3.243  13.482  0.00  0.00    +0.000 OA
BRANCH  21  23
ATOM     22  C   UNL     1       4.536   3.255  11.580  0.00  0.00    +0.000 C 
ATOM     23  C   UNL     1       5.931   3.558  12.090  0.00  0.00    +0.000 C 
ENDBRANCH  21  23
ENDBRANCH   1  21
TORSDOF 4
ENDMDL
MODEL 5
REMARK VINA RESULT:      -7.1      3.503      7.370
REMARK  Name = 
REMARK  5 active torsions:
REMARK  status: ('A' for Active; 'I' for Inactive)
REMARK    1  A    between atoms: C_1  and  C_2
REMARK    2  A    between atoms: C_2  and  O_3
REMARK    3  A    between atoms: O_3  and  C_4
REMARK    4  A    between atoms: N_10  and  S_11
REMARK    5  A    between atoms: S_11  and  C_14
REMARK                            x       y       z     vdW  Elec       q    Type
REMARK                         _______ _______ _______ _____ _____    ______ ____
ROOT
ATOM      1  C   UNL     1       6.552   4.742  13.474  0.00  0.00    +0.000 C 
ATOM      2  C   UNL     1       7.769   4.812  14.379  0.00  0.00    +0.000 C 
ATOM      3  O   UNL     1       7.351   5.551  15.538  0.00  0.00    +0.000 OA
ATOM      4  C   UNL     1       5.952   5.259  15.766  0.00  0.00    +0.000 C 
ATOM      5  C   UNL     1       5.237   6.590  16.063  0.00  0.00    +0.000 C 
ATOM      6  C   UNL     1       5.433   7.058  17.500  0.00  0.00    +0.000 C 
ATOM      7  N   UNL     1       5.103   5.983  18.472  0.00  0.00    +0.000 NA
ATOM      8  C   UNL     1       6.053   4.852  18.284  0.00  0.00    +0.000 C 
ATOM      9  C   UNL     1       5.863   4.228  16.910  0.00  0.00    +0.000 C 
ATOM     10  C   UNL     1       5.421   4.632  14.472  0.00  0.00    +0.000 C 
ENDROOT
BRANCH   7  11
ATOM     11  S   UNL     1       3.469   5.503  18.683  0.00  0.00    +0.000 S 
ATOM     12  O   UNL     1       2.965   4.992  17.426  0.00  0.00    +0.000 OA
ATOM     13  O   UNL     1       3.401   4.684  19.881  0.00  0.00    +0.000 OA
BRANCH  11  14
ATOM     14  C   UNL     1       2.590   6.996  19.056  0.00  0.00    +0.000 A 
ATOM     15  C   UNL     1       2.295   7.910  18.036  0.00  0.00    +0.000 A 
ATOM     16  C   UNL     1       1.513   9.033  18.316  0.00  0.00    +0.000 A 
ATOM     17  C   UNL     1       1.014   9.227  19.604  0.00  0.00    +0.000 A 
ATOM     18  C   UNL     1       1.290   8.292  20.598  0.00  0.00    +0.000 A 
ATOM     19  F   UNL     1       0.770   8.465  21.822  0.00  0.00    +0.000 F 
ATOM     20  C   UNL     1       2.075   7.174  20.342  0.00  0.00    +0.000 A 
ENDBRANCH  11  14
ENDBRANCH   7  11
BRANCH   1  21
ATOM     21  O   UNL     1       6.609   3.629  12.588  0.00  0.00    +0.000 OA
BRANCH  21  23
ATOM     22  C   UNL     1       5.443   1.918  11.377  0.00  0.00    +0.000 C 
ATOM     23  C   UNL     1       5.316   3.224  12.133  0.00  0.00    +0.000 C 
ENDBRANCH  21  23
ENDBRANCH   1  21
TORSDOF 4
ENDMDL
MODEL 6
REMARK VINA RESULT:      -7.1      1.812      2.969
REMARK  Name = 
REMARK  5 active torsions:
REMARK  status: ('A' for Active; 'I' for Inactive)
REMARK    1  A    between atoms: C_1  and  C_2
REMARK    2  A    between atoms: C_2  and  O_3
REMARK    3  A    between atoms: O_3  and  C_4
REMARK    4  A    between atoms: N_10  and  S_11
REMARK    5  A    between atoms: S_11  and  C_14
REMARK                            x       y       z     vdW  Elec       q    Type
REMARK                         _______ _______ _______ _____ _____    ______ ____
ROOT
ATOM      1  C   UNL     1       1.536   5.763  20.290  0.00  0.00    +0.000 C 
ATOM      2  C   UNL     1       2.240   4.574  20.918  0.00  0.00    +0.000 C 
ATOM      3  O   UNL     1       3.026   3.987  19.869  0.00  0.00    +0.000 OA
ATOM      4  C   UNL     1       3.457   5.054  18.992  0.00  0.00    +0.000 C 
ATOM      5  C   UNL     1       3.240   4.587  17.541  0.00  0.00    +0.000 C 
ATOM      6  C   UNL     1       4.343   3.657  17.048  0.00  0.00    +0.000 C 
ATOM      7  N   UNL     1       5.691   4.240  17.283  0.00  0.00    +0.000 NA
ATOM      8  C   UNL     1       5.908   4.381  18.750  0.00  0.00    +0.000 C 
ATOM      9  C   UNL     1       4.925   5.384  19.333  0.00  0.00    +0.000 C 
ATOM     10  C   UNL     1       2.574   6.266  19.311  0.00  0.00    +0.000 C 
ENDROOT
BRANCH   7  11
ATOM     11  S   UNL     1       6.201   5.595  16.362  0.00  0.00    +0.000 S 
ATOM     12  O   UNL     1       5.094   6.518  16.233  0.00  0.00    +0.000 OA
ATOM     13  O   UNL     1       7.467   6.048  16.910  0.00  0.00    +0.000 OA
BRANCH  11  14
ATOM     14  C   UNL     1       6.563   4.951  14.751  0.00  0.00    +0.000 A 
ATOM     15  C   UNL     1       5.841   3.859  14.252  0.00  0.00    +0.000 A 
ATOM     16  C   UNL     1       6.058   3.422  12.943  0.00  0.00    +0.000 A 
ATOM     17  C   UNL     1       6.978   4.090  12.134  0.00  0.00    +0.000 A 
ATOM     18  C   UNL     1       7.665   5.193  12.635  0.00  0.00    +0.000 A 
ATOM     19  F   UNL     1       8.515   5.852  11.836  0.00  0.00    +0.000 F 
ATOM     20  C   UNL     1       7.470   5.635  13.938  0.00  0.00    +0.000 A 
ENDBRANCH  11  14
ENDBRANCH   7  11
BRANCH   1  21
ATOM     21  O   UNL     1       1.178   6.745  21.258  0.00  0.00    +0.000 OA
BRANCH  21  23
ATOM     22  C   UNL     1       1.351   9.019  21.999  0.00  0.00    +0.000 C 
ATOM     23  C   UNL     1       1.460   8.075  20.820  0.00  0.00    +0.000 C 
ENDBRANCH  21  23
ENDBRANCH   1  21
TORSDOF 4
ENDMDL
MODEL 7
REMARK VINA RESULT:      -6.9      3.737      6.729
REMARK  Name = 
REMARK  5 active torsions:
REMARK  status: ('A' for Active; 'I' for Inactive)
REMARK    1  A    between atoms: C_1  and  C_2
REMARK    2  A    between atoms: C_2  and  O_3
REMARK    3  A    between atoms: O_3  and  C_4
REMARK    4  A    between atoms: N_10  and  S_11
REMARK    5  A    between atoms: S_11  and  C_14
REMARK                            x       y       z     vdW  Elec       q    Type
REMARK                         _______ _______ _______ _____ _____    ______ ____
ROOT
ATOM      1  C   UNL     1       7.137   6.317  17.988  0.00  0.00    +0.000 C 
ATOM      2  C   UNL     1       7.712   4.913  17.935  0.00  0.00    +0.000 C 
ATOM      3  O   UNL     1       6.728   4.064  18.547  0.00  0.00    +0.000 OA
ATOM      4  C   UNL     1       5.425   4.621  18.257  0.00  0.00    +0.000 C 
ATOM      5  C   UNL     1       4.603   4.597  19.559  0.00  0.00    +0.000 C 
ATOM      6  C   UNL     1       4.014   3.224  19.861  0.00  0.00    +0.000 C 
ATOM      7  N   UNL     1       3.277   2.679  18.691  0.00  0.00    +0.000 NA
ATOM      8  C   UNL     1       4.236   2.469  17.570  0.00  0.00    +0.000 C 
ATOM      9  C   UNL     1       4.805   3.801  17.107  0.00  0.00    +0.000 C 
ATOM     10  C   UNL     1       5.660   6.062  17.788  0.00  0.00    +0.000 C 
ENDROOT
BRANCH   7  11
ATOM     11  S   UNL     1       1.789   3.391  18.219  0.00  0.00    +0.000 S 
ATOM     12  O   UNL     1       1.787   3.566  16.782  0.00  0.00    +0.000 OA
ATOM     13  O   UNL     1       0.721   2.647  18.863  0.00  0.00    +0.000 OA
BRANCH  11  14
ATOM     14  C   UNL     1       1.787   5.000  18.963  0.00  0.00    +0.000 A 
ATOM     15  C   UNL     1       1.513   5.141  20.330  0.00  0.00    +0.000 A 
ATOM     16  C   UNL     1       1.615   6.396  20.933  0.00  0.00    +0.000 A 
ATOM     17  C   UNL     1       2.010   7.499  20.174  0.00  0.00    +0.000 A 
ATOM     18  C   UNL     1       2.310   7.335  18.824  0.00  0.00    +0.000 A 
ATOM     19  F   UNL     1       2.728   8.392  18.114  0.00  0.00    +0.000 F 
ATOM     20  C   UNL     1       2.203   6.096  18.205  0.00  0.00    +0.000 A 
ENDBRANCH  11  14
ENDBRANCH   7  11
BRANCH   1  21
ATOM     21  O   UNL     1       7.687   7.158  16.979  0.00  0.00    +0.000 OA
BRANCH  21  23
ATOM     22  C   UNL     1       8.605   8.733  18.539  0.00  0.00    +0.000 C 
ATOM     23  C   UNL     1       7.682   8.537  17.354  0.00  0.00    +0.000 C 
ENDBRANCH  21  23
ENDBRANCH   1  21
TORSDOF 4
ENDMDL
MODEL 8
REMARK VINA RESULT:      -6.9      2.156      3.308
REMARK  Name = 
REMARK  5 active torsions:
REMARK  status: ('A' for Active; 'I' for Inactive)
REMARK    1  A    between atoms: C_1  and  C_2
REMARK    2  A    between atoms: C_2  and  O_3
REMARK    3  A    between atoms: O_3  and  C_4
REMARK    4  A    between atoms: N_10  and  S_11
REMARK    5  A    between atoms: S_11  and  C_14
REMARK                            x       y       z     vdW  Elec       q    Type
REMARK                         _______ _______ _______ _____ _____    ______ ____
ROOT
ATOM      1  C   UNL     1       2.634   6.247  18.898  0.00  0.00    +0.000 C 
ATOM      2  C   UNL     1       3.659   5.573  19.791  0.00  0.00    +0.000 C 
ATOM      3  O   UNL     1       4.429   4.721  18.928  0.00  0.00    +0.000 OA
ATOM      4  C   UNL     1       4.499   5.357  17.630  0.00  0.00    +0.000 C 
ATOM      5  C   UNL     1       4.225   4.280  16.564  0.00  0.00    +0.000 C 
ATOM      6  C   UNL     1       5.444   3.415  16.271  0.00  0.00    +0.000 C 
ATOM      7  N   UNL     1       6.641   4.244  15.974  0.00  0.00    +0.000 NA
ATOM      8  C   UNL     1       6.993   5.038  17.185  0.00  0.00    +0.000 C 
ATOM      9  C   UNL     1       5.883   6.027  17.506  0.00  0.00    +0.000 C 
ATOM     10  C   UNL     1       3.407   6.433  17.612  0.00  0.00    +0.000 C 
ENDROOT
BRANCH   7  11
ATOM     11  S   UNL     1       6.718   5.129  14.506  0.00  0.00    +0.000 S 
ATOM     12  O   UNL     1       5.742   6.197  14.552  0.00  0.00    +0.000 OA
ATOM     13  O   UNL     1       8.114   5.429  14.244  0.00  0.00    +0.000 OA
BRANCH  11  14
ATOM     14  C   UNL     1       6.215   3.986  13.248  0.00  0.00    +0.000 A 
ATOM     15  C   UNL     1       4.871   3.920  12.857  0.00  0.00    +0.000 A 
ATOM     16  C   UNL     1       4.497   3.093  11.795  0.00  0.00    +0.000 A 
ATOM     17  C   UNL     1       5.468   2.355  11.116  0.00  0.00    +0.000 A 
ATOM     18  C   UNL     1       6.804   2.458  11.497  0.00  0.00    +0.000 A 
ATOM     19  F   UNL     1       7.733   1.777  10.813  0.00  0.00    +0.000 F 
ATOM     20  C   UNL     1       7.192   3.266  12.559  0.00  0.00    +0.000 A 
ENDBRANCH  11  14
ENDBRANCH   7  11
BRANCH   1  21
ATOM     21  O   UNL     1       2.178   7.481  19.444  0.00  0.00    +0.000 OA
BRANCH  21  23
ATOM     22  C   UNL     1       1.164   9.609  18.998  0.00  0.00    +0.000 C 
ATOM     23  C   UNL     1       2.045   8.502  18.454  0.00  0.00    +0.000 C 
ENDBRANCH  21  23
ENDBRANCH   1  21
TORSDOF 4
ENDMDL
MODEL 9
REMARK VINA RESULT:      -6.9      3.033      7.025
REMARK  Name = 
REMARK  5 active torsions:
REMARK  status: ('A' for Active; 'I' for Inactive)
REMARK    1  A    between atoms: C_1  and  C_2
REMARK    2  A    between atoms: C_2  and  O_3
REMARK    3  A    between atoms: O_3  and  C_4
REMARK    4  A    between atoms: N_10  and  S_11
REMARK    5  A    between atoms: S_11  and  C_14
REMARK                            x       y       z     vdW  Elec       q    Type
REMARK                         _______ _______ _______ _____ _____    ______ ____
ROOT
ATOM      1  C   UNL     1       6.659   5.345  15.232  0.00  0.00    +0.000 C 
ATOM      2  C   UNL     1       7.348   4.349  16.146  0.00  0.00    +0.000 C 
ATOM      3  O   UNL     1       6.684   4.458  17.415  0.00  0.00    +0.000 OA
ATOM      4  C   UNL     1       5.299   4.786  17.160  0.00  0.00    +0.000 C 
ATOM      5  C   UNL     1       4.895   5.909  18.134  0.00  0.00    +0.000 C 
ATOM      6  C   UNL     1       4.576   5.393  19.532  0.00  0.00    +0.000 C 
ATOM      7  N   UNL     1       3.600   4.273  19.489  0.00  0.00    +0.000 NA
ATOM      8  C   UNL     1       4.213   3.124  18.765  0.00  0.00    +0.000 C 
ATOM      9  C   UNL     1       4.470   3.494  17.313  0.00  0.00    +0.000 C 
ATOM     10  C   UNL     1       5.225   5.272  15.708  0.00  0.00    +0.000 C 
ENDROOT
BRANCH   7  11
ATOM     11  S   UNL     1       1.968   4.586  19.059  0.00  0.00    +0.000 S 
ATOM     12  O   UNL     1       1.800   4.332  17.644  0.00  0.00    +0.000 OA
ATOM     13  O   UNL     1       1.121   3.911  20.025  0.00  0.00    +0.000 OA
BRANCH  11  14
ATOM     14  C   UNL     1       1.741   6.323  19.332  0.00  0.00    +0.000 A 
ATOM     15  C   UNL     1       1.517   6.806  20.627  0.00  0.00    +0.000 A 
ATOM     16  C   UNL     1       1.442   8.183  20.851  0.00  0.00    +0.000 A 
ATOM     17  C   UNL     1       1.613   9.068  19.786  0.00  0.00    +0.000 A 
ATOM     18  C   UNL     1       1.868   8.571  18.510  0.00  0.00    +0.000 A 
ATOM     19  F   UNL     1       2.072   9.431  17.502  0.00  0.00    +0.000 F 
ATOM     20  C   UNL     1       1.934   7.205  18.267  0.00  0.00    +0.000 A 
ENDBRANCH  11  14
ENDBRANCH   7  11
BRANCH   1  21
ATOM     21  O   UNL     1       6.797   4.995  13.859  0.00  0.00    +0.000 OA
BRANCH  21  23
ATOM     22  C   UNL     1       5.701   3.563  12.277  0.00  0.00    +0.000 C 
ATOM     23  C   UNL     1       6.435   3.637  13.600  0.00  0.00    +0.000 C 
ENDBRANCH  21  23
ENDBRANCH   1  21
TORSDOF 4
ENDMDL
