MODEL 1
REMARK VINA RESULT:      -7.2      0.000      0.000
REMARK  Name = 
REMARK  4 active torsions:
REMARK  status: ('A' for Active; 'I' for Inactive)
REMARK    1  A    between atoms: C_1  and  C_2
REMARK    2  A    between atoms: C_4  and  C_5
REMARK    3  A    between atoms: C_8  and  C_10
REMARK    4  A    between atoms: C_10  and  N_11
REMARK                            x       y       z     vdW  Elec       q    Type
REMARK                         _______ _______ _______ _____ _____    ______ ____
ROOT
ATOM      1  C   UNL     1       3.390   6.663  17.493  0.00  0.00    +0.000 C 
ENDROOT
BRANCH   1   9
ATOM      2  C   UNL     1       3.825   2.500  17.920  0.00  0.00    +0.000 C 
ATOM      3  C   UNL     1       2.299   2.637  17.927  0.00  0.00    +0.000 C 
ATOM      4  C   UNL     1       1.684   2.117  19.235  0.00  0.00    +0.000 C 
ATOM      5  C   UNL     1       1.985   3.048  20.422  0.00  0.00    +0.000 C 
ATOM      6  C   UNL     1       1.298   2.546  21.689  0.00  0.00    +0.000 C 
ATOM      7  C   UNL     1       1.567   4.487  20.096  0.00  0.00    +0.000 C 
ATOM      8  N   UNL     1       2.169   4.937  18.837  0.00  0.00    +0.000 N 
ATOM      9  C   UNL     1       2.753   6.199  18.782  0.00  0.00    +0.000 C 
ATOM     10  O   UNL     1       2.803   6.935  19.773  0.00  0.00    +0.000 OA
ATOM     11  C   UNL     1       1.875   4.088  17.677  0.00  0.00    +0.000 C 
ENDBRANCH   1   9
BRANCH   1  12
ATOM     12  N   UNL     1       4.756   6.196  17.375  0.00  0.00    +0.000 N 
ATOM     13  N   UNL     1       5.654   6.535  18.329  0.00  0.00    +0.000 NA
ATOM     14  C   UNL     1       6.808   6.054  17.861  0.00  0.00    +0.000 A 
ATOM     15  C   UNL     1       6.670   5.425  16.606  0.00  0.00    +0.000 A 
ATOM     16  C   UNL     1       7.536   4.797  15.693  0.00  0.00    +0.000 A 
ATOM     17  C   UNL     1       7.005   4.269  14.511  0.00  0.00    +0.000 A 
ATOM     18  C   UNL     1       5.638   4.356  14.247  0.00  0.00    +0.000 A 
ATOM     19 CL   UNL     1       5.016   3.680  12.790  0.00  0.00    +0.000 Cl
ATOM     20  C   UNL     1       4.760   4.982  15.138  0.00  0.00    +0.000 A 
ATOM     21  C   UNL     1       5.311   5.517  16.313  0.00  0.00    +0.000 A 
ENDBRANCH   1  12
TORSDOF 2
ENDMDL
MODEL 2
REMARK VINA RESULT:      -7.0      3.908      5.559
REMARK  Name = 
REMARK  4 active torsions:
REMARK  status: ('A' for Active; 'I' for Inactive)
REMARK    1  A    between atoms: C_1  and  C_2
REMARK    2  A    between atoms: C_4  and  C_5
REMARK    3  A    between atoms: C_8  and  C_10
REMARK    4  A    between atoms: C_10  and  N_11
REMARK                            x       y       z     vdW  Elec       q    Type
REMARK                         _______ _______ _______ _____ _____    ______ ____
ROOT
ATOM      1  C   UNL     1       2.164   7.799  17.947  0.00  0.00    +0.000 C 
ENDROOT
BRANCH   1   9
ATOM      2  C   UNL     1      -1.345  10.080  18.373  0.00  0.00    +0.000 C 
ATOM      3  C   UNL     1      -0.312  11.013  19.014  0.00  0.00    +0.000 C 
ATOM      4  C   UNL     1      -0.640  11.307  20.485  0.00  0.00    +0.000 C 
ATOM      5  C   UNL     1      -0.405  10.081  21.384  0.00  0.00    +0.000 C 
ATOM      6  C   UNL     1      -0.667  10.429  22.847  0.00  0.00    +0.000 C 
ATOM      7  C   UNL     1       1.014   9.535  21.187  0.00  0.00    +0.000 C 
ATOM      8  N   UNL     1       1.287   9.277  19.770  0.00  0.00    +0.000 N 
ATOM      9  C   UNL     1       1.894   8.079  19.407  0.00  0.00    +0.000 C 
ATOM     10  O   UNL     1       2.183   7.218  20.245  0.00  0.00    +0.000 OA
ATOM     11  C   UNL     1       1.103  10.435  18.888  0.00  0.00    +0.000 C 
ENDBRANCH   1   9
BRANCH   1  12
ATOM     12  N   UNL     1       3.150   6.750  17.779  0.00  0.00    +0.000 N 
ATOM     13  N   UNL     1       4.403   7.078  17.389  0.00  0.00    +0.000 NA
ATOM     14  C   UNL     1       5.000   5.897  17.221  0.00  0.00    +0.000 A 
ATOM     15  C   UNL     1       4.142   4.808  17.481  0.00  0.00    +0.000 A 
ATOM     16  C   UNL     1       4.251   3.407  17.434  0.00  0.00    +0.000 A 
ATOM     17  C   UNL     1       3.139   2.630  17.783  0.00  0.00    +0.000 A 
ATOM     18  C   UNL     1       1.947   3.237  18.178  0.00  0.00    +0.000 A 
ATOM     19 CL   UNL     1       0.604   2.251  18.616  0.00  0.00    +0.000 Cl
ATOM     20  C   UNL     1       1.815   4.630  18.225  0.00  0.00    +0.000 A 
ATOM     21  C   UNL     1       2.936   5.392  17.861  0.00  0.00    +0.000 A 
ENDBRANCH   1  12
TORSDOF 2
ENDMDL
MODEL 3
REMARK VINA RESULT:      -7.0      4.039      6.971
REMARK  Name = 
REMARK  4 active torsions:
REMARK  status: ('A' for Active; 'I' for Inactive)
REMARK    1  A    between atoms: C_1  and  C_2
REMARK    2  A    between atoms: C_4  and  C_5
REMARK    3  A    between atoms: C_8  and  C_10
REMARK    4  A    between atoms: C_10  and  N_11
REMARK                            x       y       z     vdW  Elec       q    Type
REMARK                         _______ _______ _______ _____ _____    ______ ____
ROOT
ATOM      1  C   UNL     1       2.983   6.634  19.308  0.00  0.00    +0.000 C 
ENDROOT
BRANCH   1   9
ATOM      2  C   UNL     1       7.063   5.659  18.988  0.00  0.00    +0.000 C 
ATOM      3  C   UNL     1       6.842   6.423  17.678  0.00  0.00    +0.000 C 
ATOM      4  C   UNL     1       7.137   5.550  16.449  0.00  0.00    +0.000 C 
ATOM      5  C   UNL     1       6.068   4.463  16.244  0.00  0.00    +0.000 C 
ATOM      6  C   UNL     1       6.349   3.664  14.974  0.00  0.00    +0.000 C 
ATOM      7  C   UNL     1       4.668   5.087  16.209  0.00  0.00    +0.000 C 
ATOM      8  N   UNL     1       4.433   5.918  17.395  0.00  0.00    +0.000 N 
ATOM      9  C   UNL     1       3.226   5.794  18.077  0.00  0.00    +0.000 C 
ATOM     10  O   UNL     1       2.363   4.983  17.726  0.00  0.00    +0.000 OA
ATOM     11  C   UNL     1       5.417   6.985  17.603  0.00  0.00    +0.000 C 
ENDBRANCH   1   9
BRANCH   1  12
ATOM     12  N   UNL     1       2.211   7.821  18.999  0.00  0.00    +0.000 N 
ATOM     13  N   UNL     1       2.243   8.319  17.742  0.00  0.00    +0.000 NA
ATOM     14  C   UNL     1       1.538   9.449  17.833  0.00  0.00    +0.000 A 
ATOM     15  C   UNL     1       1.068   9.698  19.139  0.00  0.00    +0.000 A 
ATOM     16  C   UNL     1       0.328  10.715  19.767  0.00  0.00    +0.000 A 
ATOM     17  C   UNL     1       0.044  10.600  21.133  0.00  0.00    +0.000 A 
ATOM     18  C   UNL     1       0.479   9.490  21.856  0.00  0.00    +0.000 A 
ATOM     19 CL   UNL     1       0.097   9.372  23.532  0.00  0.00    +0.000 Cl
ATOM     20  C   UNL     1       1.223   8.469  21.253  0.00  0.00    +0.000 A 
ATOM     21  C   UNL     1       1.509   8.607  19.886  0.00  0.00    +0.000 A 
ENDBRANCH   1  12
TORSDOF 2
ENDMDL
MODEL 4
REMARK VINA RESULT:      -6.5      1.731      2.598
REMARK  Name = 
REMARK  4 active torsions:
REMARK  status: ('A' for Active; 'I' for Inactive)
REMARK    1  A    between atoms: C_1  and  C_2
REMARK    2  A    between atoms: C_4  and  C_5
REMARK    3  A    between atoms: C_8  and  C_10
REMARK    4  A    between atoms: C_10  and  N_11
REMARK                            x       y       z     vdW  Elec       q    Type
REMARK                         _______ _______ _______ _____ _____    ______ ____
ROOT
ATOM      1  C   UNL     1       4.590   3.875  16.809  0.00  0.00    +0.000 C 
ENDROOT
BRANCH   1   9
ATOM      2  C   UNL     1       2.982   2.988  20.594  0.00  0.00    +0.000 C 
ATOM      3  C   UNL     1       1.734   3.485  19.856  0.00  0.00    +0.000 C 
ATOM      4  C   UNL     1       1.122   4.720  20.533  0.00  0.00    +0.000 C 
ATOM      5  C   UNL     1       1.994   5.973  20.342  0.00  0.00    +0.000 C 
ATOM      6  C   UNL     1       1.322   7.196  20.960  0.00  0.00    +0.000 C 
ATOM      7  C   UNL     1       2.295   6.195  18.855  0.00  0.00    +0.000 C 
ATOM      8  N   UNL     1       2.869   4.990  18.249  0.00  0.00    +0.000 N 
ATOM      9  C   UNL     1       3.983   5.115  17.425  0.00  0.00    +0.000 C 
ATOM     10  O   UNL     1       4.517   6.209  17.216  0.00  0.00    +0.000 OA
ATOM     11  C   UNL     1       2.047   3.783  18.385  0.00  0.00    +0.000 C 
ENDBRANCH   1   9
BRANCH   1  12
ATOM     12  N   UNL     1       5.752   4.195  16.005  0.00  0.00    +0.000 N 
ATOM     13  N   UNL     1       6.816   4.791  16.591  0.00  0.00    +0.000 NA
ATOM     14  C   UNL     1       7.638   5.044  15.571  0.00  0.00    +0.000 A 
ATOM     15  C   UNL     1       7.109   4.636  14.328  0.00  0.00    +0.000 A 
ATOM     16  C   UNL     1       7.532   4.687  12.988  0.00  0.00    +0.000 A 
ATOM     17  C   UNL     1       6.701   4.151  11.996  0.00  0.00    +0.000 A 
ATOM     18  C   UNL     1       5.480   3.569  12.334  0.00  0.00    +0.000 A 
ATOM     19 CL   UNL     1       4.490   2.904  11.089  0.00  0.00    +0.000 Cl
ATOM     20  C   UNL     1       5.037   3.514  13.660  0.00  0.00    +0.000 A 
ATOM     21  C   UNL     1       5.876   4.066  14.640  0.00  0.00    +0.000 A 
ENDBRANCH   1  12
TORSDOF 2
ENDMDL
MODEL 5
REMARK VINA RESULT:      -6.5      2.593      3.981
REMARK  Name = 
REMARK  4 active torsions:
REMARK  status: ('A' for Active; 'I' for Inactive)
REMARK    1  A    between atoms: C_1  and  C_2
REMARK    2  A    between atoms: C_4  and  C_5
REMARK    3  A    between atoms: C_8  and  C_10
REMARK    4  A    between atoms: C_10  and  N_11
REMARK                            x       y       z     vdW  Elec       q    Type
REMARK                         _______ _______ _______ _____ _____    ______ ____
ROOT
ATOM      1  C   UNL     1       2.670   5.499  18.353  0.00  0.00    +0.000 C 
ENDROOT
BRANCH   1   9
ATOM      2  C   UNL     1       0.401   8.926  17.450  0.00  0.00    +0.000 C 
ATOM      3  C   UNL     1       1.499   9.527  18.333  0.00  0.00    +0.000 C 
ATOM      4  C   UNL     1       0.922  10.193  19.591  0.00  0.00    +0.000 C 
ATOM      5  C   UNL     1       0.387   9.158  20.595  0.00  0.00    +0.000 C 
ATOM      6  C   UNL     1      -0.109   9.846  21.865  0.00  0.00    +0.000 C 
ATOM      7  C   UNL     1       1.462   8.112  20.913  0.00  0.00    +0.000 C 
ATOM      8  N   UNL     1       1.990   7.510  19.685  0.00  0.00    +0.000 N 
ATOM      9  C   UNL     1       2.141   6.128  19.622  0.00  0.00    +0.000 C 
ATOM     10  O   UNL     1       1.815   5.396  20.562  0.00  0.00    +0.000 OA
ATOM     11  C   UNL     1       2.538   8.467  18.718  0.00  0.00    +0.000 C 
ENDBRANCH   1   9
BRANCH   1  12
ATOM     12  N   UNL     1       4.093   5.241  18.440  0.00  0.00    +0.000 N 
ATOM     13  N   UNL     1       4.727   5.432  19.619  0.00  0.00    +0.000 NA
ATOM     14  C   UNL     1       6.012   5.224  19.324  0.00  0.00    +0.000 A 
ATOM     15  C   UNL     1       6.218   4.919  17.962  0.00  0.00    +0.000 A 
ATOM     16  C   UNL     1       7.331   4.647  17.147  0.00  0.00    +0.000 A 
ATOM     17  C   UNL     1       7.125   4.373  15.790  0.00  0.00    +0.000 A 
ATOM     18  C   UNL     1       5.836   4.362  15.257  0.00  0.00    +0.000 A 
ATOM     19 CL   UNL     1       5.618   4.005  13.585  0.00  0.00    +0.000 Cl
ATOM     20  C   UNL     1       4.715   4.637  16.048  0.00  0.00    +0.000 A 
ATOM     21  C   UNL     1       4.941   4.920  17.404  0.00  0.00    +0.000 A 
ENDBRANCH   1  12
TORSDOF 2
ENDMDL
MODEL 6
REMARK VINA RESULT:      -6.5      3.847      5.356
REMARK  Name = 
REMARK  4 active torsions:
REMARK  status: ('A' for Active; 'I' for Inactive)
REMARK    1  A    between atoms: C_1  and  C_2
REMARK    2  A    between atoms: C_4  and  C_5
REMARK    3  A    between atoms: C_8  and  C_10
REMARK    4  A    between atoms: C_10  and  N_11
REMARK                            x       y       z     vdW  Elec       q    Type
REMARK                         _______ _______ _______ _____ _____    ______ ____
ROOT
ATOM      1  C   UNL     1       2.087   7.724  18.094  0.00  0.00    +0.000 C 
ENDROOT
BRANCH   1   9
ATOM      2  C   UNL     1      -1.331  10.121  18.621  0.00  0.00    +0.000 C 
ATOM      3  C   UNL     1      -0.268  10.968  19.329  0.00  0.00    +0.000 C 
ATOM      4  C   UNL     1      -0.604  11.186  20.812  0.00  0.00    +0.000 C 
ATOM      5  C   UNL     1      -0.433   9.899  21.636  0.00  0.00    +0.000 C 
ATOM      6  C   UNL     1      -0.700  10.167  23.115  0.00  0.00    +0.000 C 
ATOM      7  C   UNL     1       0.966   9.306  21.422  0.00  0.00    +0.000 C 
ATOM      8  N   UNL     1       1.247   9.124  19.995  0.00  0.00    +0.000 N 
ATOM      9  C   UNL     1       1.809   7.926  19.566  0.00  0.00    +0.000 C 
ATOM     10  O   UNL     1       2.051   7.004  20.352  0.00  0.00    +0.000 OA
ATOM     11  C   UNL     1       1.123  10.340  19.183  0.00  0.00    +0.000 C 
ENDBRANCH   1   9
BRANCH   1  12
ATOM     12  N   UNL     1       2.699   6.436  17.839  0.00  0.00    +0.000 N 
ATOM     13  N   UNL     1       1.928   5.324  17.862  0.00  0.00    +0.000 NA
ATOM     14  C   UNL     1       2.806   4.329  17.711  0.00  0.00    +0.000 A 
ATOM     15  C   UNL     1       4.137   4.785  17.610  0.00  0.00    +0.000 A 
ATOM     16  C   UNL     1       5.400   4.182  17.471  0.00  0.00    +0.000 A 
ATOM     17  C   UNL     1       6.535   4.999  17.397  0.00  0.00    +0.000 A 
ATOM     18  C   UNL     1       6.413   6.387  17.451  0.00  0.00    +0.000 A 
ATOM     19 CL   UNL     1       7.829   7.363  17.341  0.00  0.00    +0.000 Cl
ATOM     20  C   UNL     1       5.167   7.007  17.597  0.00  0.00    +0.000 A 
ATOM     21  C   UNL     1       4.041   6.173  17.681  0.00  0.00    +0.000 A 
ENDBRANCH   1  12
TORSDOF 2
ENDMDL
MODEL 7
REMARK VINA RESULT:      -6.4      3.343      4.870
REMARK  Name = 
REMARK  4 active torsions:
REMARK  status: ('A' for Active; 'I' for Inactive)
REMARK    1  A    between atoms: C_1  and  C_2
REMARK    2  A    between atoms: C_4  and  C_5
REMARK    3  A    between atoms: C_8  and  C_10
REMARK    4  A    between atoms: C_10  and  N_11
REMARK                            x       y       z     vdW  Elec       q    Type
REMARK                         _______ _______ _______ _____ _____    ______ ____
ROOT
ATOM      1  C   UNL     1       2.375   6.534  17.757  0.00  0.00    +0.000 C 
ENDROOT
BRANCH   1   9
ATOM      2  C   UNL     1      -0.466   9.631  17.967  0.00  0.00    +0.000 C 
ATOM      3  C   UNL     1       0.726  10.279  18.680  0.00  0.00    +0.000 C 
ATOM      4  C   UNL     1       0.388  10.663  20.128  0.00  0.00    +0.000 C 
ATOM      5  C   UNL     1       0.246   9.426  21.032  0.00  0.00    +0.000 C 
ATOM      6  C   UNL     1      -0.014   9.844  22.478  0.00  0.00    +0.000 C 
ATOM      7  C   UNL     1       1.491   8.538  20.926  0.00  0.00    +0.000 C 
ATOM      8  N   UNL     1       1.782   8.205  19.528  0.00  0.00    +0.000 N 
ATOM      9  C   UNL     1       2.090   6.888  19.198  0.00  0.00    +0.000 C 
ATOM     10  O   UNL     1       2.096   5.991  20.047  0.00  0.00    +0.000 OA
ATOM     11  C   UNL     1       1.954   9.362  18.643  0.00  0.00    +0.000 C 
ENDBRANCH   1   9
BRANCH   1  12
ATOM     12  N   UNL     1       3.437   5.555  17.649  0.00  0.00    +0.000 N 
ATOM     13  N   UNL     1       3.126   4.238  17.675  0.00  0.00    +0.000 NA
ATOM     14  C   UNL     1       4.315   3.633  17.675  0.00  0.00    +0.000 A 
ATOM     15  C   UNL     1       5.393   4.544  17.669  0.00  0.00    +0.000 A 
ATOM     16  C   UNL     1       6.795   4.445  17.690  0.00  0.00    +0.000 A 
ATOM     17  C   UNL     1       7.556   5.620  17.667  0.00  0.00    +0.000 A 
ATOM     18  C   UNL     1       6.933   6.867  17.616  0.00  0.00    +0.000 A 
ATOM     19 CL   UNL     1       7.901   8.292  17.572  0.00  0.00    +0.000 Cl
ATOM     20  C   UNL     1       5.539   6.988  17.601  0.00  0.00    +0.000 A 
ATOM     21  C   UNL     1       4.792   5.801  17.636  0.00  0.00    +0.000 A 
ENDBRANCH   1  12
TORSDOF 2
ENDMDL
MODEL 8
REMARK VINA RESULT:      -6.4      4.835      7.072
REMARK  Name = 
REMARK  4 active torsions:
REMARK  status: ('A' for Active; 'I' for Inactive)
REMARK    1  A    between atoms: C_1  and  C_2
REMARK    2  A    between atoms: C_4  and  C_5
REMARK    3  A    between atoms: C_8  and  C_10
REMARK    4  A    between atoms: C_10  and  N_11
REMARK                            x       y       z     vdW  Elec       q    Type
REMARK                         _______ _______ _______ _____ _____    ______ ____
ROOT
ATOM      1  C   UNL     1       1.269   8.349  19.283  0.00  0.00    +0.000 C 
ENDROOT
BRANCH   1   9
ATOM      2  C   UNL     1       1.818   4.335  18.148  0.00  0.00    +0.000 C 
ATOM      3  C   UNL     1       3.184   4.653  18.767  0.00  0.00    +0.000 C 
ATOM      4  C   UNL     1       4.325   4.485  17.753  0.00  0.00    +0.000 C 
ATOM      5  C   UNL     1       4.313   5.591  16.684  0.00  0.00    +0.000 C 
ATOM      6  C   UNL     1       5.502   5.440  15.739  0.00  0.00    +0.000 C 
ATOM      7  C   UNL     1       4.301   6.975  17.345  0.00  0.00    +0.000 C 
ATOM      8  N   UNL     1       3.204   7.088  18.310  0.00  0.00    +0.000 N 
ATOM      9  C   UNL     1       2.413   8.233  18.302  0.00  0.00    +0.000 C 
ATOM     10  O   UNL     1       2.595   9.141  17.485  0.00  0.00    +0.000 OA
ATOM     11  C   UNL     1       3.203   6.066  19.362  0.00  0.00    +0.000 C 
ENDBRANCH   1   9
BRANCH   1  12
ATOM     12  N   UNL     1       0.716   9.688  19.299  0.00  0.00    +0.000 N 
ATOM     13  N   UNL     1       1.163  10.575  20.218  0.00  0.00    +0.000 NA
ATOM     14  C   UNL     1       0.380  11.641  20.035  0.00  0.00    +0.000 A 
ATOM     15  C   UNL     1      -0.581  11.446  19.020  0.00  0.00    +0.000 A 
ATOM     16  C   UNL     1      -1.625  12.204  18.462  0.00  0.00    +0.000 A 
ATOM     17  C   UNL     1      -2.384  11.650  17.425  0.00  0.00    +0.000 A 
ATOM     18  C   UNL     1      -2.104  10.369  16.948  0.00  0.00    +0.000 A 
ATOM     19 CL   UNL     1      -3.049   9.724  15.660  0.00  0.00    +0.000 Cl
ATOM     20  C   UNL     1      -1.075   9.595  17.494  0.00  0.00    +0.000 A 
ATOM     21  C   UNL     1      -0.331  10.162  18.540  0.00  0.00    +0.000 A 
ENDBRANCH   1  12
TORSDOF 2
ENDMDL
MODEL 9
REMARK VINA RESULT:      -6.2      4.527      6.768
REMARK  Name = 
REMARK  4 active torsions:
REMARK  status: ('A' for Active; 'I' for Inactive)
REMARK    1  A    between atoms: C_1  and  C_2
REMARK    2  A    between atoms: C_4  and  C_5
REMARK    3  A    between atoms: C_8  and  C_10
REMARK    4  A    between atoms: C_10  and  N_11
REMARK                            x       y       z     vdW  Elec       q    Type
REMARK                         _______ _______ _______ _____ _____    ______ ____
ROOT
ATOM      1  C   UNL     1       2.593   7.459  20.085  0.00  0.00    +0.000 C 
ENDROOT
BRANCH   1   9
ATOM      2  C   UNL     1       5.938   5.199  18.901  0.00  0.00    +0.000 C 
ATOM      3  C   UNL     1       5.040   5.060  17.667  0.00  0.00    +0.000 C 
ATOM      4  C   UNL     1       4.683   3.594  17.382  0.00  0.00    +0.000 C 
ATOM      5  C   UNL     1       3.701   3.028  18.422  0.00  0.00    +0.000 C 
ATOM      6  C   UNL     1       3.307   1.596  18.068  0.00  0.00    +0.000 C 
ATOM      7  C   UNL     1       2.468   3.931  18.544  0.00  0.00    +0.000 C 
ATOM      8  N   UNL     1       2.856   5.320  18.807  0.00  0.00    +0.000 N 
ATOM      9  C   UNL     1       2.187   6.032  19.798  0.00  0.00    +0.000 C 
ATOM     10  O   UNL     1       1.296   5.514  20.479  0.00  0.00    +0.000 OA
ATOM     11  C   UNL     1       3.768   5.902  17.815  0.00  0.00    +0.000 C 
ENDBRANCH   1   9
BRANCH   1  12
ATOM     12  N   UNL     1       1.712   8.405  19.432  0.00  0.00    +0.000 N 
ATOM     13  N   UNL     1       1.813   8.585  18.094  0.00  0.00    +0.000 NA
ATOM     14  C   UNL     1       0.962   9.583  17.846  0.00  0.00    +0.000 A 
ATOM     15  C   UNL     1       0.326  10.063  19.010  0.00  0.00    +0.000 A 
ATOM     16  C   UNL     1      -0.603  11.077  19.305  0.00  0.00    +0.000 A 
ATOM     17  C   UNL     1      -1.015  11.251  20.632  0.00  0.00    +0.000 A 
ATOM     18  C   UNL     1      -0.519  10.427  21.642  0.00  0.00    +0.000 A 
ATOM     19 CL   UNL     1      -1.060  10.658  23.261  0.00  0.00    +0.000 Cl
ATOM     20  C   UNL     1       0.411   9.417  21.371  0.00  0.00    +0.000 A 
ATOM     21  C   UNL     1       0.822   9.264  20.038  0.00  0.00    +0.000 A 
ENDBRANCH   1  12
TORSDOF 2
ENDMDL
