MODEL 1
REMARK VINA RESULT:      -8.8      0.000      0.000
REMARK  Name = 
REMARK  6 active torsions:
REMARK  status: ('A' for Active; 'I' for Inactive)
REMARK    1  A    between atoms: C_1  and  C_2
REMARK    2  A    between atoms: C_2  and  C_3
REMARK    3  A    between atoms: C_7  and  S_8
REMARK    4  A    between atoms: S_8  and  C_9
REMARK    5  A    between atoms: C_9  and  C_10
REMARK    6  A    between atoms: N_12  and  C_13
REMARK                            x       y       z     vdW  Elec       q    Type
REMARK                         _______ _______ _______ _____ _____    ______ ____
ROOT
ATOM      1  S   UNL     1       8.206   7.054  18.581  0.00  0.00    +0.000 S 
ENDROOT
BRANCH   1   6
ATOM      2  C   UNL     1       6.083   4.723  14.950  0.00  0.00    +0.000 A 
ATOM      3  N   UNL     1       7.240   5.323  14.703  0.00  0.00    +0.000 NA
ATOM      4  N   UNL     1       7.665   5.939  15.839  0.00  0.00    +0.000 NA
ATOM      5  C   UNL     1       6.762   5.725  16.761  0.00  0.00    +0.000 A 
ATOM      6  C   UNL     1       6.785   6.170  18.123  0.00  0.00    +0.000 A 
ATOM      7  N   UNL     1       5.801   5.919  18.937  0.00  0.00    +0.000 NA
ATOM      8  C   UNL     1       4.696   5.172  18.426  0.00  0.00    +0.000 A 
ATOM      9  C   UNL     1       3.638   4.928  19.304  0.00  0.00    +0.000 A 
ATOM     10  C   UNL     1       2.525   4.202  18.882  0.00  0.00    +0.000 A 
ATOM     11  C   UNL     1       2.460   3.719  17.576  0.00  0.00    +0.000 A 
ATOM     12  C   UNL     1       3.500   3.961  16.672  0.00  0.00    +0.000 A 
ATOM     13  C   UNL     1       4.618   4.682  17.098  0.00  0.00    +0.000 A 
ATOM     14  N   UNL     1       5.718   4.985  16.262  0.00  0.00    +0.000 N 
BRANCH   2  16
ATOM     15  C   UNL     1       6.300   3.684  12.681  0.00  0.00    +0.000 C 
ATOM     16  C   UNL     1       5.422   3.895  13.907  0.00  0.00    +0.000 C 
ENDBRANCH   2  16
ENDBRANCH   1   6
BRANCH   1  17
ATOM     17  C   UNL     1       7.873   8.720  17.985  0.00  0.00    +0.000 C 
BRANCH  17  18
ATOM     18  C   UNL     1       8.823   9.734  18.636  0.00  0.00    +0.000 C 
ATOM     19  O   UNL     1       8.935   9.877  19.849  0.00  0.00    +0.000 OA
ATOM     20  N   UNL     1       9.506  10.484  17.685  0.00  0.00    +0.000 N 
ATOM     21  H   UNL     1       9.222  10.359  16.722  0.00  0.00    +0.000 HD
BRANCH  20  22
ATOM     22  C   UNL     1      10.321  11.608  17.939  0.00  0.00    +0.000 A 
ATOM     23  C   UNL     1      11.538  11.559  18.633  0.00  0.00    +0.000 A 
ATOM     24  C   UNL     1      12.160  12.738  19.054  0.00  0.00    +0.000 A 
ATOM     25  C   UNL     1      11.547  13.961  18.807  0.00  0.00    +0.000 A 
ATOM     26  C   UNL     1      10.412  14.009  18.004  0.00  0.00    +0.000 A 
ATOM     27  C   UNL     1       9.815  12.844  17.536  0.00  0.00    +0.000 A 
ATOM     28  O   UNL     1       9.787  15.195  17.720  0.00  0.00    +0.000 OA
ATOM     29  C   UNL     1       9.776  15.952  18.929  0.00  0.00    +0.000 C 
ATOM     30  C   UNL     1      11.189  16.195  19.451  0.00  0.00    +0.000 C 
ATOM     31  O   UNL     1      12.069  15.062  19.426  0.00  0.00    +0.000 OA
ENDBRANCH  20  22
ENDBRANCH  17  18
ENDBRANCH   1  17
TORSDOF 5
ENDMDL
MODEL 2
REMARK VINA RESULT:      -8.7      5.105      8.043
REMARK  Name = 
REMARK  6 active torsions:
REMARK  status: ('A' for Active; 'I' for Inactive)
REMARK    1  A    between atoms: C_1  and  C_2
REMARK    2  A    between atoms: C_2  and  C_3
REMARK    3  A    between atoms: C_7  and  S_8
REMARK    4  A    between atoms: S_8  and  C_9
REMARK    5  A    between atoms: C_9  and  C_10
REMARK    6  A    between atoms: N_12  and  C_13
REMARK                            x       y       z     vdW  Elec       q    Type
REMARK                         _______ _______ _______ _____ _____    ______ ____
ROOT
ATOM      1  S   UNL     1       3.689   2.087  18.697  0.00  0.00    +0.000 S 
ENDROOT
BRANCH   1   6
ATOM      2  C   UNL     1       6.955   5.614  18.573  0.00  0.00    +0.000 A 
ATOM      3  N   UNL     1       6.404   5.328  19.746  0.00  0.00    +0.000 NA
ATOM      4  N   UNL     1       5.499   4.327  19.570  0.00  0.00    +0.000 NA
ATOM      5  C   UNL     1       5.494   4.023  18.298  0.00  0.00    +0.000 A 
ATOM      6  C   UNL     1       4.708   3.018  17.646  0.00  0.00    +0.000 A 
ATOM      7  N   UNL     1       4.769   2.836  16.359  0.00  0.00    +0.000 NA
ATOM      8  C   UNL     1       5.659   3.671  15.616  0.00  0.00    +0.000 A 
ATOM      9  C   UNL     1       5.699   3.479  14.233  0.00  0.00    +0.000 A 
ATOM     10  C   UNL     1       6.546   4.251  13.439  0.00  0.00    +0.000 A 
ATOM     11  C   UNL     1       7.355   5.225  14.022  0.00  0.00    +0.000 A 
ATOM     12  C   UNL     1       7.324   5.447  15.403  0.00  0.00    +0.000 A 
ATOM     13  C   UNL     1       6.481   4.668  16.199  0.00  0.00    +0.000 A 
ATOM     14  N   UNL     1       6.372   4.817  17.601  0.00  0.00    +0.000 N 
BRANCH   2  16
ATOM     15  C   UNL     1       7.636   7.864  17.706  0.00  0.00    +0.000 C 
ATOM     16  C   UNL     1       8.049   6.618  18.477  0.00  0.00    +0.000 C 
ENDBRANCH   2  16
ENDBRANCH   1   6
BRANCH   1  17
ATOM     17  C   UNL     1       2.038   2.369  18.038  0.00  0.00    +0.000 C 
BRANCH  17  18
ATOM     18  C   UNL     1       1.642   3.845  18.170  0.00  0.00    +0.000 C 
ATOM     19  O   UNL     1       1.052   4.471  17.295  0.00  0.00    +0.000 OA
ATOM     20  N   UNL     1       2.063   4.386  19.379  0.00  0.00    +0.000 N 
ATOM     21  H   UNL     1       2.656   3.800  19.954  0.00  0.00    +0.000 HD
BRANCH  20  22
ATOM     22  C   UNL     1       2.014   5.748  19.747  0.00  0.00    +0.000 A 
ATOM     23  C   UNL     1       1.444   6.224  20.935  0.00  0.00    +0.000 A 
ATOM     24  C   UNL     1       1.216   7.592  21.111  0.00  0.00    +0.000 A 
ATOM     25  C   UNL     1       1.529   8.476  20.086  0.00  0.00    +0.000 A 
ATOM     26  C   UNL     1       2.215   8.013  18.968  0.00  0.00    +0.000 A 
ATOM     27  C   UNL     1       2.493   6.661  18.806  0.00  0.00    +0.000 A 
ATOM     28  O   UNL     1       2.559   8.854  17.941  0.00  0.00    +0.000 OA
ATOM     29  C   UNL     1       1.443   9.715  17.724  0.00  0.00    +0.000 C 
ATOM     30  C   UNL     1       1.095  10.507  18.981  0.00  0.00    +0.000 C 
ATOM     31  O   UNL     1       1.087   9.763  20.208  0.00  0.00    +0.000 OA
ENDBRANCH  20  22
ENDBRANCH  17  18
ENDBRANCH   1  17
TORSDOF 5
ENDMDL
MODEL 3
REMARK VINA RESULT:      -8.6      0.958      1.410
REMARK  Name = 
REMARK  6 active torsions:
REMARK  status: ('A' for Active; 'I' for Inactive)
REMARK    1  A    between atoms: C_1  and  C_2
REMARK    2  A    between atoms: C_2  and  C_3
REMARK    3  A    between atoms: C_7  and  S_8
REMARK    4  A    between atoms: S_8  and  C_9
REMARK    5  A    between atoms: C_9  and  C_10
REMARK    6  A    between atoms: N_12  and  C_13
REMARK                            x       y       z     vdW  Elec       q    Type
REMARK                         _______ _______ _______ _____ _____    ______ ____
ROOT
ATOM      1  S   UNL     1       8.139   7.172  18.382  0.00  0.00    +0.000 S 
ENDROOT
BRANCH   1   6
ATOM      2  C   UNL     1       6.039   4.671  14.852  0.00  0.00    +0.000 A 
ATOM      3  N   UNL     1       7.194   5.266  14.581  0.00  0.00    +0.000 NA
ATOM      4  N   UNL     1       7.612   5.934  15.691  0.00  0.00    +0.000 NA
ATOM      5  C   UNL     1       6.708   5.755  16.618  0.00  0.00    +0.000 A 
ATOM      6  C   UNL     1       6.724   6.259  17.959  0.00  0.00    +0.000 A 
ATOM      7  N   UNL     1       5.740   6.039  18.781  0.00  0.00    +0.000 NA
ATOM      8  C   UNL     1       4.641   5.263  18.301  0.00  0.00    +0.000 A 
ATOM      9  C   UNL     1       3.582   5.051  19.187  0.00  0.00    +0.000 A 
ATOM     10  C   UNL     1       2.475   4.301  18.795  0.00  0.00    +0.000 A 
ATOM     11  C   UNL     1       2.416   3.761  17.511  0.00  0.00    +0.000 A 
ATOM     12  C   UNL     1       3.457   3.969  16.599  0.00  0.00    +0.000 A 
ATOM     13  C   UNL     1       4.569   4.715  16.996  0.00  0.00    +0.000 A 
ATOM     14  N   UNL     1       5.670   4.987  16.150  0.00  0.00    +0.000 N 
BRANCH   2  16
ATOM     15  C   UNL     1       6.216   3.635  12.578  0.00  0.00    +0.000 C 
ATOM     16  C   UNL     1       5.387   3.793  13.844  0.00  0.00    +0.000 C 
ENDBRANCH   2  16
ENDBRANCH   1   6
BRANCH   1  17
ATOM     17  C   UNL     1       7.795   8.810  17.717  0.00  0.00    +0.000 C 
BRANCH  17  18
ATOM     18  C   UNL     1       8.629   9.877  18.437  0.00  0.00    +0.000 C 
ATOM     19  O   UNL     1       9.178   9.695  19.519  0.00  0.00    +0.000 OA
ATOM     20  N   UNL     1       8.653  11.074  17.731  0.00  0.00    +0.000 N 
ATOM     21  H   UNL     1       8.049  11.134  16.921  0.00  0.00    +0.000 HD
BRANCH  20  22
ATOM     22  C   UNL     1       9.180  12.301  18.189  0.00  0.00    +0.000 A 
ATOM     23  C   UNL     1       8.422  13.301  18.813  0.00  0.00    +0.000 A 
ATOM     24  C   UNL     1       8.962  14.576  19.013  0.00  0.00    +0.000 A 
ATOM     25  C   UNL     1      10.245  14.855  18.559  0.00  0.00    +0.000 A 
ATOM     26  C   UNL     1      11.036  13.824  18.063  0.00  0.00    +0.000 A 
ATOM     27  C   UNL     1      10.526  12.540  17.908  0.00  0.00    +0.000 A 
ATOM     28  O   UNL     1      12.313  14.052  17.621  0.00  0.00    +0.000 OA
ATOM     29  C   UNL     1      12.282  15.274  16.888  0.00  0.00    +0.000 C 
ATOM     30  C   UNL     1      11.791  16.434  17.751  0.00  0.00    +0.000 C 
ATOM     31  O   UNL     1      10.646  16.162  18.571  0.00  0.00    +0.000 OA
ENDBRANCH  20  22
ENDBRANCH  17  18
ENDBRANCH   1  17
TORSDOF 5
ENDMDL
MODEL 4
REMARK VINA RESULT:      -8.5      2.612      3.622
REMARK  Name = 
REMARK  6 active torsions:
REMARK  status: ('A' for Active; 'I' for Inactive)
REMARK    1  A    between atoms: C_1  and  C_2
REMARK    2  A    between atoms: C_2  and  C_3
REMARK    3  A    between atoms: C_7  and  S_8
REMARK    4  A    between atoms: S_8  and  C_9
REMARK    5  A    between atoms: C_9  and  C_10
REMARK    6  A    between atoms: N_12  and  C_13
REMARK                            x       y       z     vdW  Elec       q    Type
REMARK                         _______ _______ _______ _____ _____    ______ ____
ROOT
ATOM      1  S   UNL     1       7.123   5.102  17.657  0.00  0.00    +0.000 S 
ENDROOT
BRANCH   1   6
ATOM      2  C   UNL     1       2.806   7.168  18.129  0.00  0.00    +0.000 A 
ATOM      3  N   UNL     1       3.734   7.831  17.450  0.00  0.00    +0.000 NA
ATOM      4  N   UNL     1       4.881   7.097  17.447  0.00  0.00    +0.000 NA
ATOM      5  C   UNL     1       4.649   6.008  18.132  0.00  0.00    +0.000 A 
ATOM      6  C   UNL     1       5.558   4.930  18.389  0.00  0.00    +0.000 A 
ATOM      7  N   UNL     1       5.215   3.910  19.120  0.00  0.00    +0.000 NA
ATOM      8  C   UNL     1       3.891   3.896  19.653  0.00  0.00    +0.000 A 
ATOM      9  C   UNL     1       3.542   2.806  20.452  0.00  0.00    +0.000 A 
ATOM     10  C   UNL     1       2.266   2.717  21.006  0.00  0.00    +0.000 A 
ATOM     11  C   UNL     1       1.329   3.722  20.768  0.00  0.00    +0.000 A 
ATOM     12  C   UNL     1       1.656   4.831  19.981  0.00  0.00    +0.000 A 
ATOM     13  C   UNL     1       2.933   4.916  19.421  0.00  0.00    +0.000 A 
ATOM     14  N   UNL     1       3.364   5.997  18.618  0.00  0.00    +0.000 N 
BRANCH   2  16
ATOM     15  C   UNL     1       1.310   9.146  17.777  0.00  0.00    +0.000 C 
ATOM     16  C   UNL     1       1.419   7.695  18.224  0.00  0.00    +0.000 C 
ENDBRANCH   2  16
ENDBRANCH   1   6
BRANCH   1  17
ATOM     17  C   UNL     1       7.979   6.238  18.761  0.00  0.00    +0.000 C 
BRANCH  17  18
ATOM     18  C   UNL     1       8.147   7.614  18.105  0.00  0.00    +0.000 C 
ATOM     19  O   UNL     1       7.945   7.828  16.914  0.00  0.00    +0.000 OA
ATOM     20  N   UNL     1       8.586   8.569  19.015  0.00  0.00    +0.000 N 
ATOM     21  H   UNL     1       8.843   8.233  19.934  0.00  0.00    +0.000 HD
BRANCH  20  22
ATOM     22  C   UNL     1       9.002   9.883  18.709  0.00  0.00    +0.000 A 
ATOM     23  C   UNL     1      10.086  10.528  19.318  0.00  0.00    +0.000 A 
ATOM     24  C   UNL     1      10.282  11.901  19.142  0.00  0.00    +0.000 A 
ATOM     25  C   UNL     1       9.374  12.631  18.384  0.00  0.00    +0.000 A 
ATOM     26  C   UNL     1       8.379  11.963  17.677  0.00  0.00    +0.000 A 
ATOM     27  C   UNL     1       8.209  10.589  17.804  0.00  0.00    +0.000 A 
ATOM     28  O   UNL     1       7.474  12.640  16.903  0.00  0.00    +0.000 OA
ATOM     29  C   UNL     1       7.097  13.804  17.636  0.00  0.00    +0.000 C 
ATOM     30  C   UNL     1       8.305  14.682  17.954  0.00  0.00    +0.000 C 
ATOM     31  O   UNL     1       9.473  13.993  18.423  0.00  0.00    +0.000 OA
ENDBRANCH  20  22
ENDBRANCH  17  18
ENDBRANCH   1  17
TORSDOF 5
ENDMDL
MODEL 5
REMARK VINA RESULT:      -8.3      6.946      9.136
REMARK  Name = 
REMARK  6 active torsions:
REMARK  status: ('A' for Active; 'I' for Inactive)
REMARK    1  A    between atoms: C_1  and  C_2
REMARK    2  A    between atoms: C_2  and  C_3
REMARK    3  A    between atoms: C_7  and  S_8
REMARK    4  A    between atoms: S_8  and  C_9
REMARK    5  A    between atoms: C_9  and  C_10
REMARK    6  A    between atoms: N_12  and  C_13
REMARK                            x       y       z     vdW  Elec       q    Type
REMARK                         _______ _______ _______ _____ _____    ______ ____
ROOT
ATOM      1  S   UNL     1       2.148   8.164  18.769  0.00  0.00    +0.000 S 
ENDROOT
BRANCH   1   6
ATOM      2  C   UNL     1       5.253   5.395  16.357  0.00  0.00    +0.000 A 
ATOM      3  N   UNL     1       5.298   6.703  16.139  0.00  0.00    +0.000 NA
ATOM      4  N   UNL     1       4.337   7.305  16.891  0.00  0.00    +0.000 NA
ATOM      5  C   UNL     1       3.707   6.365  17.545  0.00  0.00    +0.000 A 
ATOM      6  C   UNL     1       2.625   6.522  18.471  0.00  0.00    +0.000 A 
ATOM      7  N   UNL     1       2.056   5.496  19.034  0.00  0.00    +0.000 NA
ATOM      8  C   UNL     1       2.557   4.200  18.703  0.00  0.00    +0.000 A 
ATOM      9  C   UNL     1       1.924   3.107  19.298  0.00  0.00    +0.000 A 
ATOM     10  C   UNL     1       2.357   1.809  19.029  0.00  0.00    +0.000 A 
ATOM     11  C   UNL     1       3.424   1.595  18.158  0.00  0.00    +0.000 A 
ATOM     12  C   UNL     1       4.067   2.672  17.538  0.00  0.00    +0.000 A 
ATOM     13  C   UNL     1       3.637   3.973  17.814  0.00  0.00    +0.000 A 
ATOM     14  N   UNL     1       4.215   5.126  17.236  0.00  0.00    +0.000 N 
BRANCH   2  16
ATOM     15  C   UNL     1       5.891   4.120  14.297  0.00  0.00    +0.000 C 
ATOM     16  C   UNL     1       6.251   4.490  15.729  0.00  0.00    +0.000 C 
ENDBRANCH   2  16
ENDBRANCH   1   6
BRANCH   1  17
ATOM     17  C   UNL     1       1.673   8.154  20.506  0.00  0.00    +0.000 C 
BRANCH  17  18
ATOM     18  C   UNL     1       0.517   9.129  20.761  0.00  0.00    +0.000 C 
ATOM     19  O   UNL     1      -0.151   9.136  21.790  0.00  0.00    +0.000 OA
ATOM     20  N   UNL     1       0.302   9.970  19.675  0.00  0.00    +0.000 N 
ATOM     21  H   UNL     1       0.834   9.771  18.837  0.00  0.00    +0.000 HD
BRANCH  20  22
ATOM     22  C   UNL     1      -0.781  10.861  19.511  0.00  0.00    +0.000 A 
ATOM     23  C   UNL     1      -1.095  11.892  20.406  0.00  0.00    +0.000 A 
ATOM     24  C   UNL     1      -2.315  12.569  20.304  0.00  0.00    +0.000 A 
ATOM     25  C   UNL     1      -3.229  12.190  19.328  0.00  0.00    +0.000 A 
ATOM     26  C   UNL     1      -2.856  11.259  18.365  0.00  0.00    +0.000 A 
ATOM     27  C   UNL     1      -1.624  10.618  18.426  0.00  0.00    +0.000 A 
ATOM     28  O   UNL     1      -3.719  10.870  17.374  0.00  0.00    +0.000 OA
ATOM     29  C   UNL     1      -4.999  10.715  17.983  0.00  0.00    +0.000 C 
ATOM     30  C   UNL     1      -5.470  12.013  18.635  0.00  0.00    +0.000 C 
ATOM     31  O   UNL     1      -4.487  12.718  19.406  0.00  0.00    +0.000 OA
ENDBRANCH  20  22
ENDBRANCH  17  18
ENDBRANCH   1  17
TORSDOF 5
ENDMDL
MODEL 6
REMARK VINA RESULT:      -8.3      7.403     10.253
REMARK  Name = 
REMARK  6 active torsions:
REMARK  status: ('A' for Active; 'I' for Inactive)
REMARK    1  A    between atoms: C_1  and  C_2
REMARK    2  A    between atoms: C_2  and  C_3
REMARK    3  A    between atoms: C_7  and  S_8
REMARK    4  A    between atoms: S_8  and  C_9
REMARK    5  A    between atoms: C_9  and  C_10
REMARK    6  A    between atoms: N_12  and  C_13
REMARK                            x       y       z     vdW  Elec       q    Type
REMARK                         _______ _______ _______ _____ _____    ______ ____
ROOT
ATOM      1  S   UNL     1       1.599   7.877  20.511  0.00  0.00    +0.000 S 
ENDROOT
BRANCH   1   6
ATOM      2  C   UNL     1       2.124   3.325  19.052  0.00  0.00    +0.000 A 
ATOM      3  N   UNL     1       1.338   3.549  20.097  0.00  0.00    +0.000 NA
ATOM      4  N   UNL     1       1.336   4.883  20.365  0.00  0.00    +0.000 NA
ATOM      5  C   UNL     1       2.128   5.457  19.497  0.00  0.00    +0.000 A 
ATOM      6  C   UNL     1       2.428   6.853  19.382  0.00  0.00    +0.000 A 
ATOM      7  N   UNL     1       3.266   7.298  18.490  0.00  0.00    +0.000 NA
ATOM      8  C   UNL     1       3.871   6.342  17.619  0.00  0.00    +0.000 A 
ATOM      9  C   UNL     1       4.782   6.830  16.681  0.00  0.00    +0.000 A 
ATOM     10  C   UNL     1       5.412   5.960  15.791  0.00  0.00    +0.000 A 
ATOM     11  C   UNL     1       5.138   4.594  15.837  0.00  0.00    +0.000 A 
ATOM     12  C   UNL     1       4.238   4.077  16.776  0.00  0.00    +0.000 A 
ATOM     13  C   UNL     1       3.602   4.951  17.662  0.00  0.00    +0.000 A 
ATOM     14  N   UNL     1       2.683   4.529  18.650  0.00  0.00    +0.000 N 
BRANCH   2  16
ATOM     15  C   UNL     1       3.633   1.360  18.685  0.00  0.00    +0.000 C 
ATOM     16  C   UNL     1       2.249   1.959  18.478  0.00  0.00    +0.000 C 
ENDBRANCH   2  16
ENDBRANCH   1   6
BRANCH   1  17
ATOM     17  C   UNL     1       1.177   9.327  19.530  0.00  0.00    +0.000 C 
BRANCH  17  18
ATOM     18  C   UNL     1      -0.083  10.010  20.078  0.00  0.00    +0.000 C 
ATOM     19  O   UNL     1      -0.577   9.747  21.170  0.00  0.00    +0.000 OA
ATOM     20  N   UNL     1      -0.606  10.928  19.175  0.00  0.00    +0.000 N 
ATOM     21  H   UNL     1      -0.180  10.952  18.257  0.00  0.00    +0.000 HD
BRANCH  20  22
ATOM     22  C   UNL     1      -1.842  11.599  19.290  0.00  0.00    +0.000 A 
ATOM     23  C   UNL     1      -2.172  12.471  20.336  0.00  0.00    +0.000 A 
ATOM     24  C   UNL     1      -3.491  12.901  20.510  0.00  0.00    +0.000 A 
ATOM     25  C   UNL     1      -4.482  12.432  19.655  0.00  0.00    +0.000 A 
ATOM     26  C   UNL     1      -4.126  11.676  18.543  0.00  0.00    +0.000 A 
ATOM     27  C   UNL     1      -2.808  11.286  18.332  0.00  0.00    +0.000 A 
ATOM     28  O   UNL     1      -5.069  11.208  17.665  0.00  0.00    +0.000 OA
ATOM     29  C   UNL     1      -6.170  10.755  18.449  0.00  0.00    +0.000 C 
ATOM     30  C   UNL     1      -6.742  11.876  19.313  0.00  0.00    +0.000 C 
ATOM     31  O   UNL     1      -5.779  12.695  19.993  0.00  0.00    +0.000 OA
ENDBRANCH  20  22
ENDBRANCH  17  18
ENDBRANCH   1  17
TORSDOF 5
ENDMDL
MODEL 7
REMARK VINA RESULT:      -8.3      7.176      9.124
REMARK  Name = 
REMARK  6 active torsions:
REMARK  status: ('A' for Active; 'I' for Inactive)
REMARK    1  A    between atoms: C_1  and  C_2
REMARK    2  A    between atoms: C_2  and  C_3
REMARK    3  A    between atoms: C_7  and  S_8
REMARK    4  A    between atoms: S_8  and  C_9
REMARK    5  A    between atoms: C_9  and  C_10
REMARK    6  A    between atoms: N_12  and  C_13
REMARK                            x       y       z     vdW  Elec       q    Type
REMARK                         _______ _______ _______ _____ _____    ______ ____
ROOT
ATOM      1  S   UNL     1       1.943   8.102  19.437  0.00  0.00    +0.000 S 
ENDROOT
BRANCH   1   6
ATOM      2  C   UNL     1       4.874   5.442  16.706  0.00  0.00    +0.000 A 
ATOM      3  N   UNL     1       4.923   6.759  16.557  0.00  0.00    +0.000 NA
ATOM      4  N   UNL     1       4.012   7.328  17.394  0.00  0.00    +0.000 NA
ATOM      5  C   UNL     1       3.409   6.358  18.031  0.00  0.00    +0.000 A 
ATOM      6  C   UNL     1       2.382   6.475  19.024  0.00  0.00    +0.000 A 
ATOM      7  N   UNL     1       1.833   5.425  19.562  0.00  0.00    +0.000 NA
ATOM      8  C   UNL     1       2.299   4.144  19.133  0.00  0.00    +0.000 A 
ATOM      9  C   UNL     1       1.687   3.026  19.703  0.00  0.00    +0.000 A 
ATOM     10  C   UNL     1       2.089   1.741  19.339  0.00  0.00    +0.000 A 
ATOM     11  C   UNL     1       3.102   1.565  18.398  0.00  0.00    +0.000 A 
ATOM     12  C   UNL     1       3.723   2.669  17.802  0.00  0.00    +0.000 A 
ATOM     13  C   UNL     1       3.325   3.956  18.173  0.00  0.00    +0.000 A 
ATOM     14  N   UNL     1       3.884   5.134  17.626  0.00  0.00    +0.000 N 
BRANCH   2  16
ATOM     15  C   UNL     1       5.525   4.486  14.484  0.00  0.00    +0.000 C 
ATOM     16  C   UNL     1       5.824   4.563  15.974  0.00  0.00    +0.000 C 
ENDBRANCH   2  16
ENDBRANCH   1   6
BRANCH   1  17
ATOM     17  C   UNL     1       1.617   8.012  21.206  0.00  0.00    +0.000 C 
BRANCH  17  18
ATOM     18  C   UNL     1       0.291   8.701  21.552  0.00  0.00    +0.000 C 
ATOM     19  O   UNL     1      -0.775   8.104  21.667  0.00  0.00    +0.000 OA
ATOM     20  N   UNL     1       0.443  10.076  21.682  0.00  0.00    +0.000 N 
ATOM     21  H   UNL     1       1.347  10.457  21.431  0.00  0.00    +0.000 HD
BRANCH  20  22
ATOM     22  C   UNL     1      -0.596  11.020  21.827  0.00  0.00    +0.000 A 
ATOM     23  C   UNL     1      -1.193  11.355  23.050  0.00  0.00    +0.000 A 
ATOM     24  C   UNL     1      -2.370  12.109  23.079  0.00  0.00    +0.000 A 
ATOM     25  C   UNL     1      -2.964  12.499  21.884  0.00  0.00    +0.000 A 
ATOM     26  C   UNL     1      -2.297  12.278  20.684  0.00  0.00    +0.000 A 
ATOM     27  C   UNL     1      -1.098  11.574  20.648  0.00  0.00    +0.000 A 
ATOM     28  O   UNL     1      -2.837  12.662  19.484  0.00  0.00    +0.000 OA
ATOM     29  C   UNL     1      -4.225  12.341  19.538  0.00  0.00    +0.000 C 
ATOM     30  C   UNL     1      -4.919  13.051  20.698  0.00  0.00    +0.000 C 
ATOM     31  O   UNL     1      -4.219  13.033  21.951  0.00  0.00    +0.000 OA
ENDBRANCH  20  22
ENDBRANCH  17  18
ENDBRANCH   1  17
TORSDOF 5
ENDMDL
MODEL 8
REMARK VINA RESULT:      -8.2      7.149      9.890
REMARK  Name = 
REMARK  6 active torsions:
REMARK  status: ('A' for Active; 'I' for Inactive)
REMARK    1  A    between atoms: C_1  and  C_2
REMARK    2  A    between atoms: C_2  and  C_3
REMARK    3  A    between atoms: C_7  and  S_8
REMARK    4  A    between atoms: S_8  and  C_9
REMARK    5  A    between atoms: C_9  and  C_10
REMARK    6  A    between atoms: N_12  and  C_13
REMARK                            x       y       z     vdW  Elec       q    Type
REMARK                         _______ _______ _______ _____ _____    ______ ____
ROOT
ATOM      1  S   UNL     1       2.078   8.891  17.847  0.00  0.00    +0.000 S 
ENDROOT
BRANCH   1   6
ATOM      2  C   UNL     1       5.241   5.347  17.100  0.00  0.00    +0.000 A 
ATOM      3  N   UNL     1       5.277   6.387  16.276  0.00  0.00    +0.000 NA
ATOM      4  N   UNL     1       4.300   7.264  16.636  0.00  0.00    +0.000 NA
ATOM      5  C   UNL     1       3.670   6.748  17.659  0.00  0.00    +0.000 A 
ATOM      6  C   UNL     1       2.574   7.318  18.385  0.00  0.00    +0.000 A 
ATOM      7  N   UNL     1       2.007   6.684  19.370  0.00  0.00    +0.000 NA
ATOM      8  C   UNL     1       2.524   5.397  19.711  0.00  0.00    +0.000 A 
ATOM      9  C   UNL     1       1.893   4.720  20.756  0.00  0.00    +0.000 A 
ATOM     10  C   UNL     1       2.342   3.460  21.152  0.00  0.00    +0.000 A 
ATOM     11  C   UNL     1       3.423   2.867  20.501  0.00  0.00    +0.000 A 
ATOM     12  C   UNL     1       4.065   3.519  19.443  0.00  0.00    +0.000 A 
ATOM     13  C   UNL     1       3.619   4.784  19.051  0.00  0.00    +0.000 A 
ATOM     14  N   UNL     1       4.194   5.522  17.991  0.00  0.00    +0.000 N 
BRANCH   2  16
ATOM     15  C   UNL     1       7.585   4.644  17.635  0.00  0.00    +0.000 C 
ATOM     16  C   UNL     1       6.256   4.266  16.996  0.00  0.00    +0.000 C 
ENDBRANCH   2  16
ENDBRANCH   1   6
BRANCH   1  17
ATOM     17  C   UNL     1       1.153   9.541  19.249  0.00  0.00    +0.000 C 
BRANCH  17  18
ATOM     18  C   UNL     1      -0.026  10.400  18.774  0.00  0.00    +0.000 C 
ATOM     19  O   UNL     1      -0.228  11.548  19.156  0.00  0.00    +0.000 OA
ATOM     20  N   UNL     1      -0.848   9.705  17.894  0.00  0.00    +0.000 N 
ATOM     21  H   UNL     1      -0.644   8.722  17.766  0.00  0.00    +0.000 HD
BRANCH  20  22
ATOM     22  C   UNL     1      -2.100  10.135  17.406  0.00  0.00    +0.000 A 
ATOM     23  C   UNL     1      -2.342  10.509  16.077  0.00  0.00    +0.000 A 
ATOM     24  C   UNL     1      -3.535  11.152  15.730  0.00  0.00    +0.000 A 
ATOM     25  C   UNL     1      -4.466  11.448  16.717  0.00  0.00    +0.000 A 
ATOM     26  C   UNL     1      -4.279  10.957  18.006  0.00  0.00    +0.000 A 
ATOM     27  C   UNL     1      -3.120  10.270  18.349  0.00  0.00    +0.000 A 
ATOM     28  O   UNL     1      -5.181  11.209  19.006  0.00  0.00    +0.000 OA
ATOM     29  C   UNL     1      -5.575  12.573  18.868  0.00  0.00    +0.000 C 
ATOM     30  C   UNL     1      -6.193  12.842  17.498  0.00  0.00    +0.000 C 
ATOM     31  O   UNL     1      -5.504  12.269  16.377  0.00  0.00    +0.000 OA
ENDBRANCH  20  22
ENDBRANCH  17  18
ENDBRANCH   1  17
TORSDOF 5
ENDMDL
MODEL 9
REMARK VINA RESULT:      -8.2      5.100      7.665
REMARK  Name = 
REMARK  6 active torsions:
REMARK  status: ('A' for Active; 'I' for Inactive)
REMARK    1  A    between atoms: C_1  and  C_2
REMARK    2  A    between atoms: C_2  and  C_3
REMARK    3  A    between atoms: C_7  and  S_8
REMARK    4  A    between atoms: S_8  and  C_9
REMARK    5  A    between atoms: C_9  and  C_10
REMARK    6  A    between atoms: N_12  and  C_13
REMARK                            x       y       z     vdW  Elec       q    Type
REMARK                         _______ _______ _______ _____ _____    ______ ____
ROOT
ATOM      1  S   UNL     1       3.550   2.460  19.237  0.00  0.00    +0.000 S 
ENDROOT
BRANCH   1   6
ATOM      2  C   UNL     1       7.078   5.689  18.730  0.00  0.00    +0.000 A 
ATOM      3  N   UNL     1       6.603   5.484  19.952  0.00  0.00    +0.000 NA
ATOM      4  N   UNL     1       5.606   4.560  19.884  0.00  0.00    +0.000 NA
ATOM      5  C   UNL     1       5.472   4.222  18.628  0.00  0.00    +0.000 A 
ATOM      6  C   UNL     1       4.554   3.270  18.076  0.00  0.00    +0.000 A 
ATOM      7  N   UNL     1       4.493   3.047  16.795  0.00  0.00    +0.000 NA
ATOM      8  C   UNL     1       5.386   3.781  15.955  0.00  0.00    +0.000 A 
ATOM      9  C   UNL     1       5.296   3.547  14.581  0.00  0.00    +0.000 A 
ATOM     10  C   UNL     1       6.136   4.220  13.695  0.00  0.00    +0.000 A 
ATOM     11  C   UNL     1       7.069   5.138  14.177  0.00  0.00    +0.000 A 
ATOM     12  C   UNL     1       7.170   5.400  15.548  0.00  0.00    +0.000 A 
ATOM     13  C   UNL     1       6.333   4.720  16.435  0.00  0.00    +0.000 A 
ATOM     14  N   UNL     1       6.352   4.917  17.835  0.00  0.00    +0.000 N 
BRANCH   2  16
ATOM     15  C   UNL     1       7.845   7.910  17.861  0.00  0.00    +0.000 C 
ATOM     16  C   UNL     1       8.239   6.592  18.512  0.00  0.00    +0.000 C 
ENDBRANCH   2  16
ENDBRANCH   1   6
BRANCH   1  17
ATOM     17  C   UNL     1       3.145   3.758  20.418  0.00  0.00    +0.000 C 
BRANCH  17  18
ATOM     18  C   UNL     1       2.221   4.805  19.782  0.00  0.00    +0.000 C 
ATOM     19  O   UNL     1       1.267   4.522  19.065  0.00  0.00    +0.000 OA
ATOM     20  N   UNL     1       2.621   6.100  20.091  0.00  0.00    +0.000 N 
ATOM     21  H   UNL     1       3.501   6.197  20.580  0.00  0.00    +0.000 HD
BRANCH  20  22
ATOM     22  C   UNL     1       2.099   7.288  19.536  0.00  0.00    +0.000 A 
ATOM     23  C   UNL     1       2.394   7.752  18.247  0.00  0.00    +0.000 A 
ATOM     24  C   UNL     1       2.038   9.048  17.863  0.00  0.00    +0.000 A 
ATOM     25  C   UNL     1       1.417   9.888  18.779  0.00  0.00    +0.000 A 
ATOM     26  C   UNL     1       1.010   9.379  20.008  0.00  0.00    +0.000 A 
ATOM     27  C   UNL     1       1.313   8.074  20.380  0.00  0.00    +0.000 A 
ATOM     28  O   UNL     1       0.378  10.166  20.935  0.00  0.00    +0.000 OA
ATOM     29  C   UNL     1       1.050  11.425  20.930  0.00  0.00    +0.000 C 
ATOM     30  C   UNL     1       1.012  12.074  19.549  0.00  0.00    +0.000 C 
ATOM     31  O   UNL     1       1.292  11.206  18.441  0.00  0.00    +0.000 OA
ENDBRANCH  20  22
ENDBRANCH  17  18
ENDBRANCH   1  17
TORSDOF 5
ENDMDL
