MODEL 1
REMARK VINA RESULT:      -8.4      0.000      0.000
REMARK  Name = 
REMARK  10 active torsions:
REMARK  status: ('A' for Active; 'I' for Inactive)
REMARK    1  A    between atoms: C_1  and  C_2
REMARK    2  A    between atoms: C_2  and  C_3
REMARK    3  A    between atoms: C_8  and  O_9
REMARK    4  A    between atoms: O_9  and  C_10
REMARK    5  A    between atoms: C_12  and  S_13
REMARK    6  A    between atoms: S_13  and  C_14
REMARK    7  A    between atoms: C_22  and  N_23
REMARK    8  A    between atoms: N_26  and  C_27
REMARK    9  A    between atoms: C_27  and  C_28
REMARK   10  A    between atoms: C_32  and  O_33
REMARK                            x       y       z     vdW  Elec       q    Type
REMARK                         _______ _______ _______ _____ _____    ______ ____
ROOT
ATOM      1  C   UNL     1      -0.697  10.962  19.288  0.00  0.00    +0.000 A 
ATOM      2  C   UNL     1      -1.254  11.453  20.478  0.00  0.00    +0.000 A 
ATOM      3  C   UNL     1      -0.772  11.020  21.710  0.00  0.00    +0.000 A 
ATOM      4  C   UNL     1       0.311  10.164  21.706  0.00  0.00    +0.000 A 
ATOM      5  N   UNL     1       0.925   9.727  20.586  0.00  0.00    +0.000 NA
ATOM      6  C   UNL     1       0.439  10.140  19.388  0.00  0.00    +0.000 A 
ENDROOT
BRANCH   6   7
ATOM      7  N   UNL     1       1.124   9.721  18.237  0.00  0.00    +0.000 N 
ATOM      8  C   UNL     1       1.967   8.654  18.085  0.00  0.00    +0.000 C 
ATOM      9  O   UNL     1       2.527   8.476  17.003  0.00  0.00    +0.000 OA
ATOM     10  N   UNL     1       2.169   7.842  19.161  0.00  0.00    +0.000 N 
ATOM     11  H   UNL     1       1.052  10.305  17.414  0.00  0.00    +0.000 HD
ATOM     12  H   UNL     1       1.513   7.955  19.929  0.00  0.00    +0.000 HD
BRANCH  10  13
ATOM     13  C   UNL     1       3.011   6.674  19.094  0.00  0.00    +0.000 C 
BRANCH  13  14
ATOM     14  C   UNL     1       2.281   5.362  19.277  0.00  0.00    +0.000 A 
ATOM     15  C   UNL     1       1.610   5.055  20.467  0.00  0.00    +0.000 A 
ATOM     16  C   UNL     1       1.046   3.783  20.664  0.00  0.00    +0.000 A 
ATOM     17  C   UNL     1       1.148   2.808  19.672  0.00  0.00    +0.000 A 
ATOM     18  C   UNL     1       1.802   3.113  18.486  0.00  0.00    +0.000 A 
ATOM     19  C   UNL     1       2.359   4.374  18.281  0.00  0.00    +0.000 A 
BRANCH  18  20
ATOM     20  O   UNL     1       1.941   2.189  17.492  0.00  0.00    +0.000 OA
ATOM     21  H   UNL     1       1.084   2.082  17.047  0.00  0.00    +0.000 HD
ENDBRANCH  18  20
ENDBRANCH  13  14
ENDBRANCH  10  13
ENDBRANCH   6   7
BRANCH   1  22
ATOM     22  O   UNL     1      -1.223  11.292  18.049  0.00  0.00    +0.000 OA
BRANCH  22  28
ATOM     23  C   UNL     1      -3.245  10.828  16.814  0.00  0.00    +0.000 A 
ATOM     24  N   UNL     1      -4.591  10.926  16.618  0.00  0.00    +0.000 NA
ATOM     25  C   UNL     1      -5.319  11.587  17.540  0.00  0.00    +0.000 A 
ATOM     26  C   UNL     1      -4.775  12.154  18.675  0.00  0.00    +0.000 A 
ATOM     27  C   UNL     1      -3.403  12.029  18.881  0.00  0.00    +0.000 A 
ATOM     28  C   UNL     1      -2.601  11.395  17.922  0.00  0.00    +0.000 A 
BRANCH  23  30
ATOM     29  C   UNL     1      -3.252  10.141  14.406  0.00  0.00    +0.000 C 
ATOM     30  C   UNL     1      -2.500  10.100  15.727  0.00  0.00    +0.000 C 
ENDBRANCH  23  30
ENDBRANCH  22  28
ENDBRANCH   1  22
BRANCH   3  31
ATOM     31  S   UNL     1      -1.574  11.480  23.221  0.00  0.00    +0.000 S 
BRANCH  31  32
ATOM     32  C   UNL     1      -2.745  12.702  22.662  0.00  0.00    +0.000 A 
ATOM     33  C   UNL     1      -2.276  13.974  22.358  0.00  0.00    +0.000 A 
ATOM     34  C   UNL     1      -3.184  14.936  21.929  0.00  0.00    +0.000 A 
ATOM     35  C   UNL     1      -4.527  14.601  21.815  0.00  0.00    +0.000 A 
ATOM     36  C   UNL     1      -4.908  13.309  22.135  0.00  0.00    +0.000 A 
ATOM     37  N   UNL     1      -4.047  12.357  22.553  0.00  0.00    +0.000 NA
ENDBRANCH  31  32
ENDBRANCH   3  31
TORSDOF 9
ENDMDL
MODEL 2
REMARK VINA RESULT:      -8.4      3.191      9.705
REMARK  Name = 
REMARK  10 active torsions:
REMARK  status: ('A' for Active; 'I' for Inactive)
REMARK    1  A    between atoms: C_1  and  C_2
REMARK    2  A    between atoms: C_2  and  C_3
REMARK    3  A    between atoms: C_8  and  O_9
REMARK    4  A    between atoms: O_9  and  C_10
REMARK    5  A    between atoms: C_12  and  S_13
REMARK    6  A    between atoms: S_13  and  C_14
REMARK    7  A    between atoms: C_22  and  N_23
REMARK    8  A    between atoms: N_26  and  C_27
REMARK    9  A    between atoms: C_27  and  C_28
REMARK   10  A    between atoms: C_32  and  O_33
REMARK                            x       y       z     vdW  Elec       q    Type
REMARK                         _______ _______ _______ _____ _____    ______ ____
ROOT
ATOM      1  C   UNL     1       2.997   6.870  18.183  0.00  0.00    +0.000 A 
ATOM      2  C   UNL     1       2.674   5.654  18.805  0.00  0.00    +0.000 A 
ATOM      3  C   UNL     1       2.037   5.646  20.043  0.00  0.00    +0.000 A 
ATOM      4  C   UNL     1       1.675   6.865  20.581  0.00  0.00    +0.000 A 
ATOM      5  N   UNL     1       1.899   8.054  19.982  0.00  0.00    +0.000 NA
ATOM      6  C   UNL     1       2.535   8.054  18.783  0.00  0.00    +0.000 A 
ENDROOT
BRANCH   6   7
ATOM      7  N   UNL     1       2.709   9.293  18.148  0.00  0.00    +0.000 N 
ATOM      8  C   UNL     1       1.844  10.352  18.088  0.00  0.00    +0.000 C 
ATOM      9  O   UNL     1       2.150  11.346  17.429  0.00  0.00    +0.000 OA
ATOM     10  N   UNL     1       0.657  10.245  18.750  0.00  0.00    +0.000 N 
ATOM     11  H   UNL     1       3.550   9.422  17.601  0.00  0.00    +0.000 HD
ATOM     12  H   UNL     1       0.593   9.482  19.420  0.00  0.00    +0.000 HD
BRANCH  10  13
ATOM     13  C   UNL     1      -0.306  11.316  18.778  0.00  0.00    +0.000 C 
BRANCH  13  14
ATOM     14  C   UNL     1      -1.622  10.995  18.105  0.00  0.00    +0.000 A 
ATOM     15  C   UNL     1      -1.729   9.977  17.149  0.00  0.00    +0.000 A 
ATOM     16  C   UNL     1      -2.929   9.778  16.445  0.00  0.00    +0.000 A 
ATOM     17  C   UNL     1      -4.031  10.597  16.691  0.00  0.00    +0.000 A 
ATOM     18  C   UNL     1      -3.932  11.599  17.646  0.00  0.00    +0.000 A 
ATOM     19  C   UNL     1      -2.748  11.798  18.353  0.00  0.00    +0.000 A 
BRANCH  18  20
ATOM     20  O   UNL     1      -4.978  12.434  17.912  0.00  0.00    +0.000 OA
ATOM     21  H   UNL     1      -5.176  12.946  17.110  0.00  0.00    +0.000 HD
ENDBRANCH  18  20
ENDBRANCH  13  14
ENDBRANCH  10  13
ENDBRANCH   6   7
BRANCH   1  22
ATOM     22  O   UNL     1       3.724   6.911  17.003  0.00  0.00    +0.000 OA
BRANCH  22  28
ATOM     23  C   UNL     1       6.095   6.466  17.042  0.00  0.00    +0.000 A 
ATOM     24  N   UNL     1       7.176   5.652  16.868  0.00  0.00    +0.000 NA
ATOM     25  C   UNL     1       6.953   4.372  16.505  0.00  0.00    +0.000 A 
ATOM     26  C   UNL     1       5.692   3.844  16.316  0.00  0.00    +0.000 A 
ATOM     27  C   UNL     1       4.593   4.676  16.518  0.00  0.00    +0.000 A 
ATOM     28  C   UNL     1       4.780   6.026  16.845  0.00  0.00    +0.000 A 
BRANCH  23  30
ATOM     29  C   UNL     1       7.908   8.049  17.736  0.00  0.00    +0.000 C 
ATOM     30  C   UNL     1       6.430   7.885  17.419  0.00  0.00    +0.000 C 
ENDBRANCH  23  30
ENDBRANCH  22  28
ENDBRANCH   1  22
BRANCH   3  31
ATOM     31  S   UNL     1       1.783   4.136  20.933  0.00  0.00    +0.000 S 
BRANCH  31  32
ATOM     32  C   UNL     1       2.659   2.959  19.922  0.00  0.00    +0.000 A 
ATOM     33  C   UNL     1       2.055   2.518  18.750  0.00  0.00    +0.000 A 
ATOM     34  C   UNL     1       2.728   1.593  17.959  0.00  0.00    +0.000 A 
ATOM     35  C   UNL     1       3.978   1.137  18.359  0.00  0.00    +0.000 A 
ATOM     36  C   UNL     1       4.507   1.630  19.540  0.00  0.00    +0.000 A 
ATOM     37  N   UNL     1       3.875   2.529  20.325  0.00  0.00    +0.000 NA
ENDBRANCH  31  32
ENDBRANCH   3  31
TORSDOF 9
ENDMDL
MODEL 3
REMARK VINA RESULT:      -8.3      3.347      9.633
REMARK  Name = 
REMARK  10 active torsions:
REMARK  status: ('A' for Active; 'I' for Inactive)
REMARK    1  A    between atoms: C_1  and  C_2
REMARK    2  A    between atoms: C_2  and  C_3
REMARK    3  A    between atoms: C_8  and  O_9
REMARK    4  A    between atoms: O_9  and  C_10
REMARK    5  A    between atoms: C_12  and  S_13
REMARK    6  A    between atoms: S_13  and  C_14
REMARK    7  A    between atoms: C_22  and  N_23
REMARK    8  A    between atoms: N_26  and  C_27
REMARK    9  A    between atoms: C_27  and  C_28
REMARK   10  A    between atoms: C_32  and  O_33
REMARK                            x       y       z     vdW  Elec       q    Type
REMARK                         _______ _______ _______ _____ _____    ______ ____
ROOT
ATOM      1  C   UNL     1       3.146   7.043  18.115  0.00  0.00    +0.000 A 
ATOM      2  C   UNL     1       2.896   5.838  18.790  0.00  0.00    +0.000 A 
ATOM      3  C   UNL     1       2.196   5.840  19.994  0.00  0.00    +0.000 A 
ATOM      4  C   UNL     1       1.700   7.048  20.441  0.00  0.00    +0.000 A 
ATOM      5  N   UNL     1       1.853   8.218  19.784  0.00  0.00    +0.000 NA
ATOM      6  C   UNL     1       2.550   8.211  18.621  0.00  0.00    +0.000 A 
ENDROOT
BRANCH   6   7
ATOM      7  N   UNL     1       2.650   9.425  17.923  0.00  0.00    +0.000 N 
ATOM      8  C   UNL     1       1.925  10.573  18.098  0.00  0.00    +0.000 C 
ATOM      9  O   UNL     1       2.116  11.528  17.345  0.00  0.00    +0.000 OA
ATOM     10  N   UNL     1       0.996  10.596  19.095  0.00  0.00    +0.000 N 
ATOM     11  H   UNL     1       3.290   9.462  17.141  0.00  0.00    +0.000 HD
ATOM     12  H   UNL     1       1.061   9.844  19.776  0.00  0.00    +0.000 HD
BRANCH  10  13
ATOM     13  C   UNL     1       0.207  11.767  19.382  0.00  0.00    +0.000 C 
BRANCH  13  14
ATOM     14  C   UNL     1      -0.596  11.685  20.661  0.00  0.00    +0.000 A 
ATOM     15  C   UNL     1      -1.614  12.601  20.950  0.00  0.00    +0.000 A 
ATOM     16  C   UNL     1      -2.262  12.585  22.197  0.00  0.00    +0.000 A 
ATOM     17  C   UNL     1      -1.895  11.651  23.166  0.00  0.00    +0.000 A 
ATOM     18  C   UNL     1      -0.894  10.734  22.879  0.00  0.00    +0.000 A 
ATOM     19  C   UNL     1      -0.251  10.740  21.643  0.00  0.00    +0.000 A 
BRANCH  18  20
ATOM     20  O   UNL     1      -0.490   9.811  23.799  0.00  0.00    +0.000 OA
ATOM     21  H   UNL     1      -0.985   9.958  24.623  0.00  0.00    +0.000 HD
ENDBRANCH  18  20
ENDBRANCH  13  14
ENDBRANCH  10  13
ENDBRANCH   6   7
BRANCH   1  22
ATOM     22  O   UNL     1       3.929   7.086  16.971  0.00  0.00    +0.000 OA
BRANCH  22  28
ATOM     23  C   UNL     1       6.275   6.529  17.066  0.00  0.00    +0.000 A 
ATOM     24  N   UNL     1       7.320   5.667  16.911  0.00  0.00    +0.000 NA
ATOM     25  C   UNL     1       7.047   4.403  16.529  0.00  0.00    +0.000 A 
ATOM     26  C   UNL     1       5.768   3.936  16.302  0.00  0.00    +0.000 A 
ATOM     27  C   UNL     1       4.704   4.817  16.484  0.00  0.00    +0.000 A 
ATOM     28  C   UNL     1       4.946   6.154  16.831  0.00  0.00    +0.000 A 
BRANCH  23  30
ATOM     29  C   UNL     1       8.097   7.987  17.976  0.00  0.00    +0.000 C 
ATOM     30  C   UNL     1       6.665   7.927  17.467  0.00  0.00    +0.000 C 
ENDBRANCH  23  30
ENDBRANCH  22  28
ENDBRANCH   1  22
BRANCH   3  31
ATOM     31  S   UNL     1       2.026   4.363  20.957  0.00  0.00    +0.000 S 
BRANCH  31  32
ATOM     32  C   UNL     1       2.723   3.132  19.873  0.00  0.00    +0.000 A 
ATOM     33  C   UNL     1       1.996   2.755  18.750  0.00  0.00    +0.000 A 
ATOM     34  C   UNL     1       2.528   1.788  17.903  0.00  0.00    +0.000 A 
ATOM     35  C   UNL     1       3.765   1.230  18.200  0.00  0.00    +0.000 A 
ATOM     36  C   UNL     1       4.423   1.666  19.337  0.00  0.00    +0.000 A 
ATOM     37  N   UNL     1       3.929   2.603  20.175  0.00  0.00    +0.000 NA
ENDBRANCH  31  32
ENDBRANCH   3  31
TORSDOF 9
ENDMDL
MODEL 4
REMARK VINA RESULT:      -8.3      0.784      1.106
REMARK  Name = 
REMARK  10 active torsions:
REMARK  status: ('A' for Active; 'I' for Inactive)
REMARK    1  A    between atoms: C_1  and  C_2
REMARK    2  A    between atoms: C_2  and  C_3
REMARK    3  A    between atoms: C_8  and  O_9
REMARK    4  A    between atoms: O_9  and  C_10
REMARK    5  A    between atoms: C_12  and  S_13
REMARK    6  A    between atoms: S_13  and  C_14
REMARK    7  A    between atoms: C_22  and  N_23
REMARK    8  A    between atoms: N_26  and  C_27
REMARK    9  A    between atoms: C_27  and  C_28
REMARK   10  A    between atoms: C_32  and  O_33
REMARK                            x       y       z     vdW  Elec       q    Type
REMARK                         _______ _______ _______ _____ _____    ______ ____
ROOT
ATOM      1  C   UNL     1      -0.720  10.827  19.280  0.00  0.00    +0.000 A 
ATOM      2  C   UNL     1      -1.301  11.349  20.446  0.00  0.00    +0.000 A 
ATOM      3  C   UNL     1      -0.808  10.991  21.698  0.00  0.00    +0.000 A 
ATOM      4  C   UNL     1       0.306  10.178  21.735  0.00  0.00    +0.000 A 
ATOM      5  N   UNL     1       0.942   9.714  20.637  0.00  0.00    +0.000 NA
ATOM      6  C   UNL     1       0.445  10.054  19.421  0.00  0.00    +0.000 A 
ENDROOT
BRANCH   6   7
ATOM      7  N   UNL     1       1.151   9.611  18.292  0.00  0.00    +0.000 N 
ATOM      8  C   UNL     1       2.024   8.562  18.187  0.00  0.00    +0.000 C 
ATOM      9  O   UNL     1       2.597   8.358  17.116  0.00  0.00    +0.000 OA
ATOM     10  N   UNL     1       2.238   7.797  19.294  0.00  0.00    +0.000 N 
ATOM     11  H   UNL     1       1.071  10.161  17.447  0.00  0.00    +0.000 HD
ATOM     12  H   UNL     1       1.573   7.921  20.053  0.00  0.00    +0.000 HD
BRANCH  10  13
ATOM     13  C   UNL     1       3.111   6.650  19.278  0.00  0.00    +0.000 C 
BRANCH  13  14
ATOM     14  C   UNL     1       2.399   5.320  19.170  0.00  0.00    +0.000 A 
ATOM     15  C   UNL     1       2.029   4.783  17.931  0.00  0.00    +0.000 A 
ATOM     16  C   UNL     1       1.258   3.610  17.859  0.00  0.00    +0.000 A 
ATOM     17  C   UNL     1       0.852   2.965  19.027  0.00  0.00    +0.000 A 
ATOM     18  C   UNL     1       1.227   3.488  20.256  0.00  0.00    +0.000 A 
ATOM     19  C   UNL     1       1.996   4.647  20.336  0.00  0.00    +0.000 A 
BRANCH  18  20
ATOM     20  O   UNL     1       0.842   2.901  21.427  0.00  0.00    +0.000 OA
ATOM     21  H   UNL     1      -0.129   2.864  21.449  0.00  0.00    +0.000 HD
ENDBRANCH  18  20
ENDBRANCH  13  14
ENDBRANCH  10  13
ENDBRANCH   6   7
BRANCH   1  22
ATOM     22  O   UNL     1      -1.253  11.082  18.026  0.00  0.00    +0.000 OA
BRANCH  22  28
ATOM     23  C   UNL     1      -3.281  11.073  16.718  0.00  0.00    +0.000 A 
ATOM     24  N   UNL     1      -4.610  11.327  16.547  0.00  0.00    +0.000 NA
ATOM     25  C   UNL     1      -5.299  11.830  17.591  0.00  0.00    +0.000 A 
ATOM     26  C   UNL     1      -4.733  12.086  18.823  0.00  0.00    +0.000 A 
ATOM     27  C   UNL     1      -3.380  11.803  18.998  0.00  0.00    +0.000 A 
ATOM     28  C   UNL     1      -2.614  11.327  17.924  0.00  0.00    +0.000 A 
BRANCH  23  30
ATOM     29  C   UNL     1      -3.565  10.025  14.461  0.00  0.00    +0.000 C 
ATOM     30  C   UNL     1      -2.579  10.539  15.498  0.00  0.00    +0.000 C 
ENDBRANCH  23  30
ENDBRANCH  22  28
ENDBRANCH   1  22
BRANCH   3  31
ATOM     31  S   UNL     1      -1.634  11.487  23.184  0.00  0.00    +0.000 S 
BRANCH  31  32
ATOM     32  C   UNL     1      -2.783  12.708  22.579  0.00  0.00    +0.000 A 
ATOM     33  C   UNL     1      -2.279  13.923  22.130  0.00  0.00    +0.000 A 
ATOM     34  C   UNL     1      -3.170  14.884  21.664  0.00  0.00    +0.000 A 
ATOM     35  C   UNL     1      -4.531  14.606  21.660  0.00  0.00    +0.000 A 
ATOM     36  C   UNL     1      -4.947  13.369  22.121  0.00  0.00    +0.000 A 
ATOM     37  N   UNL     1      -4.104  12.418  22.578  0.00  0.00    +0.000 NA
ENDBRANCH  31  32
ENDBRANCH   3  31
TORSDOF 9
ENDMDL
MODEL 5
REMARK VINA RESULT:      -8.3      1.639      2.420
REMARK  Name = 
REMARK  10 active torsions:
REMARK  status: ('A' for Active; 'I' for Inactive)
REMARK    1  A    between atoms: C_1  and  C_2
REMARK    2  A    between atoms: C_2  and  C_3
REMARK    3  A    between atoms: C_8  and  O_9
REMARK    4  A    between atoms: O_9  and  C_10
REMARK    5  A    between atoms: C_12  and  S_13
REMARK    6  A    between atoms: S_13  and  C_14
REMARK    7  A    between atoms: C_22  and  N_23
REMARK    8  A    between atoms: N_26  and  C_27
REMARK    9  A    between atoms: C_27  and  C_28
REMARK   10  A    between atoms: C_32  and  O_33
REMARK                            x       y       z     vdW  Elec       q    Type
REMARK                         _______ _______ _______ _____ _____    ______ ____
ROOT
ATOM      1  C   UNL     1       0.390   9.942  19.354  0.00  0.00    +0.000 A 
ATOM      2  C   UNL     1      -0.207  10.353  20.555  0.00  0.00    +0.000 A 
ATOM      3  C   UNL     1       0.123   9.727  21.754  0.00  0.00    +0.000 A 
ATOM      4  C   UNL     1       1.104   8.757  21.718  0.00  0.00    +0.000 A 
ATOM      5  N   UNL     1       1.758   8.384  20.596  0.00  0.00    +0.000 NA
ATOM      6  C   UNL     1       1.419   8.987  19.429  0.00  0.00    +0.000 A 
ENDROOT
BRANCH   6   7
ATOM      7  N   UNL     1       2.148   8.628  18.285  0.00  0.00    +0.000 N 
ATOM      8  C   UNL     1       2.985   7.561  18.105  0.00  0.00    +0.000 C 
ATOM      9  O   UNL     1       3.589   7.440  17.038  0.00  0.00    +0.000 OA
ATOM     10  N   UNL     1       3.133   6.684  19.138  0.00  0.00    +0.000 N 
ATOM     11  H   UNL     1       2.117   9.261  17.496  0.00  0.00    +0.000 HD
ATOM     12  H   UNL     1       2.446   6.761  19.884  0.00  0.00    +0.000 HD
BRANCH  10  13
ATOM     13  C   UNL     1       3.964   5.511  19.037  0.00  0.00    +0.000 C 
BRANCH  13  14
ATOM     14  C   UNL     1       3.212   4.231  18.752  0.00  0.00    +0.000 A 
ATOM     15  C   UNL     1       1.813   4.183  18.759  0.00  0.00    +0.000 A 
ATOM     16  C   UNL     1       1.135   2.960  18.618  0.00  0.00    +0.000 A 
ATOM     17  C   UNL     1       1.853   1.774  18.466  0.00  0.00    +0.000 A 
ATOM     18  C   UNL     1       3.240   1.819  18.445  0.00  0.00    +0.000 A 
ATOM     19  C   UNL     1       3.919   3.029  18.580  0.00  0.00    +0.000 A 
BRANCH  18  20
ATOM     20  O   UNL     1       3.987   0.684  18.314  0.00  0.00    +0.000 OA
ATOM     21  H   UNL     1       4.667   0.680  19.008  0.00  0.00    +0.000 HD
ENDBRANCH  18  20
ENDBRANCH  13  14
ENDBRANCH  10  13
ENDBRANCH   6   7
BRANCH   1  22
ATOM     22  O   UNL     1       0.006  10.473  18.133  0.00  0.00    +0.000 OA
BRANCH  22  28
ATOM     23  C   UNL     1      -1.997  11.800  18.360  0.00  0.00    +0.000 A 
ATOM     24  N   UNL     1      -3.331  12.015  18.178  0.00  0.00    +0.000 NA
ATOM     25  C   UNL     1      -4.037  11.086  17.503  0.00  0.00    +0.000 A 
ATOM     26  C   UNL     1      -3.476   9.940  16.976  0.00  0.00    +0.000 A 
ATOM     27  C   UNL     1      -2.109   9.738  17.145  0.00  0.00    +0.000 A 
ATOM     28  C   UNL     1      -1.347  10.653  17.886  0.00  0.00    +0.000 A 
BRANCH  23  30
ATOM     29  C   UNL     1      -0.377  13.707  18.264  0.00  0.00    +0.000 C 
ATOM     30  C   UNL     1      -1.287  12.869  19.148  0.00  0.00    +0.000 C 
ENDBRANCH  23  30
ENDBRANCH  22  28
ENDBRANCH   1  22
BRANCH   3  31
ATOM     31  S   UNL     1      -0.747  10.098  23.252  0.00  0.00    +0.000 S 
BRANCH  31  32
ATOM     32  C   UNL     1      -1.256  11.784  22.976  0.00  0.00    +0.000 A 
ATOM     33  C   UNL     1      -2.600  12.034  22.725  0.00  0.00    +0.000 A 
ATOM     34  C   UNL     1      -3.005  13.346  22.501  0.00  0.00    +0.000 A 
ATOM     35  C   UNL     1      -2.061  14.364  22.533  0.00  0.00    +0.000 A 
ATOM     36  C   UNL     1      -0.743  14.027  22.793  0.00  0.00    +0.000 A 
ATOM     37  N   UNL     1      -0.325  12.763  23.015  0.00  0.00    +0.000 NA
ENDBRANCH  31  32
ENDBRANCH   3  31
TORSDOF 9
ENDMDL
MODEL 6
REMARK VINA RESULT:      -8.2      3.888      7.728
REMARK  Name = 
REMARK  10 active torsions:
REMARK  status: ('A' for Active; 'I' for Inactive)
REMARK    1  A    between atoms: C_1  and  C_2
REMARK    2  A    between atoms: C_2  and  C_3
REMARK    3  A    between atoms: C_8  and  O_9
REMARK    4  A    between atoms: O_9  and  C_10
REMARK    5  A    between atoms: C_12  and  S_13
REMARK    6  A    between atoms: S_13  and  C_14
REMARK    7  A    between atoms: C_22  and  N_23
REMARK    8  A    between atoms: N_26  and  C_27
REMARK    9  A    between atoms: C_27  and  C_28
REMARK   10  A    between atoms: C_32  and  O_33
REMARK                            x       y       z     vdW  Elec       q    Type
REMARK                         _______ _______ _______ _____ _____    ______ ____
ROOT
ATOM      1  C   UNL     1       3.132   6.702  18.992  0.00  0.00    +0.000 A 
ATOM      2  C   UNL     1       2.159   7.298  19.808  0.00  0.00    +0.000 A 
ATOM      3  C   UNL     1       1.657   8.559  19.496  0.00  0.00    +0.000 A 
ATOM      4  C   UNL     1       2.095   9.148  18.327  0.00  0.00    +0.000 A 
ATOM      5  N   UNL     1       2.974   8.577  17.475  0.00  0.00    +0.000 NA
ATOM      6  C   UNL     1       3.471   7.356  17.794  0.00  0.00    +0.000 A 
ENDROOT
BRANCH   6   7
ATOM      7  N   UNL     1       4.338   6.752  16.870  0.00  0.00    +0.000 N 
ATOM      8  C   UNL     1       5.702   6.845  16.792  0.00  0.00    +0.000 C 
ATOM      9  O   UNL     1       6.293   6.285  15.868  0.00  0.00    +0.000 OA
ATOM     10  N   UNL     1       6.347   7.582  17.739  0.00  0.00    +0.000 N 
ATOM     11  H   UNL     1       3.921   6.227  16.114  0.00  0.00    +0.000 HD
ATOM     12  H   UNL     1       5.797   7.827  18.559  0.00  0.00    +0.000 HD
BRANCH  10  13
ATOM     13  C   UNL     1       7.782   7.713  17.765  0.00  0.00    +0.000 C 
BRANCH  13  14
ATOM     14  C   UNL     1       8.281   9.115  18.035  0.00  0.00    +0.000 A 
ATOM     15  C   UNL     1       9.169   9.390  19.081  0.00  0.00    +0.000 A 
ATOM     16  C   UNL     1       9.520  10.714  19.394  0.00  0.00    +0.000 A 
ATOM     17  C   UNL     1       8.987  11.774  18.661  0.00  0.00    +0.000 A 
ATOM     18  C   UNL     1       8.116  11.504  17.615  0.00  0.00    +0.000 A 
ATOM     19  C   UNL     1       7.767  10.193  17.295  0.00  0.00    +0.000 A 
BRANCH  18  20
ATOM     20  O   UNL     1       7.556  12.507  16.878  0.00  0.00    +0.000 OA
ATOM     21  H   UNL     1       8.048  13.328  17.049  0.00  0.00    +0.000 HD
ENDBRANCH  18  20
ENDBRANCH  13  14
ENDBRANCH  10  13
ENDBRANCH   6   7
BRANCH   1  22
ATOM     22  O   UNL     1       3.727   5.497  19.333  0.00  0.00    +0.000 OA
BRANCH  22  28
ATOM     23  C   UNL     1       2.442   3.516  18.832  0.00  0.00    +0.000 A 
ATOM     24  N   UNL     1       1.613   2.492  19.184  0.00  0.00    +0.000 NA
ATOM     25  C   UNL     1       1.253   2.384  20.479  0.00  0.00    +0.000 A 
ATOM     26  C   UNL     1       1.691   3.246  21.464  0.00  0.00    +0.000 A 
ATOM     27  C   UNL     1       2.556   4.276  21.101  0.00  0.00    +0.000 A 
ATOM     28  C   UNL     1       2.914   4.456  19.757  0.00  0.00    +0.000 A 
BRANCH  23  30
ATOM     29  C   UNL     1       4.213   3.173  17.094  0.00  0.00    +0.000 C 
ATOM     30  C   UNL     1       2.774   3.583  17.365  0.00  0.00    +0.000 C 
ENDBRANCH  23  30
ENDBRANCH  22  28
ENDBRANCH   1  22
BRANCH   3  31
ATOM     31  S   UNL     1       0.568   9.412  20.602  0.00  0.00    +0.000 S 
BRANCH  31  32
ATOM     32  C   UNL     1      -0.043  10.734  19.574  0.00  0.00    +0.000 A 
ATOM     33  C   UNL     1      -1.174  10.499  18.801  0.00  0.00    +0.000 A 
ATOM     34  C   UNL     1      -1.653  11.522  17.989  0.00  0.00    +0.000 A 
ATOM     35  C   UNL     1      -0.992  12.744  17.975  0.00  0.00    +0.000 A 
ATOM     36  C   UNL     1       0.125  12.894  18.779  0.00  0.00    +0.000 A 
ATOM     37  N   UNL     1       0.609  11.917  19.576  0.00  0.00    +0.000 NA
ENDBRANCH  31  32
ENDBRANCH   3  31
TORSDOF 9
ENDMDL
MODEL 7
REMARK VINA RESULT:      -8.2      2.635      3.754
REMARK  Name = 
REMARK  10 active torsions:
REMARK  status: ('A' for Active; 'I' for Inactive)
REMARK    1  A    between atoms: C_1  and  C_2
REMARK    2  A    between atoms: C_2  and  C_3
REMARK    3  A    between atoms: C_8  and  O_9
REMARK    4  A    between atoms: O_9  and  C_10
REMARK    5  A    between atoms: C_12  and  S_13
REMARK    6  A    between atoms: S_13  and  C_14
REMARK    7  A    between atoms: C_22  and  N_23
REMARK    8  A    between atoms: N_26  and  C_27
REMARK    9  A    between atoms: C_27  and  C_28
REMARK   10  A    between atoms: C_32  and  O_33
REMARK                            x       y       z     vdW  Elec       q    Type
REMARK                         _______ _______ _______ _____ _____    ______ ____
ROOT
ATOM      1  C   UNL     1       0.372  11.238  19.487  0.00  0.00    +0.000 A 
ATOM      2  C   UNL     1      -0.221  11.570  20.715  0.00  0.00    +0.000 A 
ATOM      3  C   UNL     1      -0.361  10.606  21.711  0.00  0.00    +0.000 A 
ATOM      4  C   UNL     1       0.170   9.356  21.467  0.00  0.00    +0.000 A 
ATOM      5  N   UNL     1       0.815   9.016  20.330  0.00  0.00    +0.000 NA
ATOM      6  C   UNL     1       0.933   9.955  19.358  0.00  0.00    +0.000 A 
ENDROOT
BRANCH   6   7
ATOM      7  N   UNL     1       1.655   9.603  18.207  0.00  0.00    +0.000 N 
ATOM      8  C   UNL     1       2.409   8.483  17.982  0.00  0.00    +0.000 C 
ATOM      9  O   UNL     1       3.023   8.372  16.920  0.00  0.00    +0.000 OA
ATOM     10  N   UNL     1       2.466   7.542  18.966  0.00  0.00    +0.000 N 
ATOM     11  H   UNL     1       1.690  10.277  17.455  0.00  0.00    +0.000 HD
ATOM     12  H   UNL     1       1.772   7.633  19.704  0.00  0.00    +0.000 HD
BRANCH  10  13
ATOM     13  C   UNL     1       3.204   6.314  18.813  0.00  0.00    +0.000 C 
BRANCH  13  14
ATOM     14  C   UNL     1       2.394   5.060  19.055  0.00  0.00    +0.000 A 
ATOM     15  C   UNL     1       1.645   4.884  20.225  0.00  0.00    +0.000 A 
ATOM     16  C   UNL     1       1.002   3.662  20.488  0.00  0.00    +0.000 A 
ATOM     17  C   UNL     1       1.104   2.606  19.581  0.00  0.00    +0.000 A 
ATOM     18  C   UNL     1       1.835   2.782  18.415  0.00  0.00    +0.000 A 
ATOM     19  C   UNL     1       2.471   3.992  18.145  0.00  0.00    +0.000 A 
BRANCH  18  20
ATOM     20  O   UNL     1       1.976   1.775  17.505  0.00  0.00    +0.000 OA
ATOM     21  H   UNL     1       2.821   1.325  17.670  0.00  0.00    +0.000 HD
ENDBRANCH  18  20
ENDBRANCH  13  14
ENDBRANCH  10  13
ENDBRANCH   6   7
BRANCH   1  22
ATOM     22  O   UNL     1       0.431  12.144  18.440  0.00  0.00    +0.000 OA
BRANCH  22  28
ATOM     23  C   UNL     1       0.919  14.475  18.834  0.00  0.00    +0.000 A 
ATOM     24  N   UNL     1       1.770  15.539  18.888  0.00  0.00    +0.000 NA
ATOM     25  C   UNL     1       3.076  15.320  18.634  0.00  0.00    +0.000 A 
ATOM     26  C   UNL     1       3.595  14.076  18.338  0.00  0.00    +0.000 A 
ATOM     27  C   UNL     1       2.723  12.990  18.307  0.00  0.00    +0.000 A 
ATOM     28  C   UNL     1       1.350  13.181  18.514  0.00  0.00    +0.000 A 
BRANCH  23  30
ATOM     29  C   UNL     1      -0.713  16.283  19.418  0.00  0.00    +0.000 C 
ATOM     30  C   UNL     1      -0.525  14.807  19.103  0.00  0.00    +0.000 C 
ENDBRANCH  23  30
ENDBRANCH  22  28
ENDBRANCH   1  22
BRANCH   3  31
ATOM     31  S   UNL     1      -1.266  10.947  23.194  0.00  0.00    +0.000 S 
BRANCH  31  32
ATOM     32  C   UNL     1      -1.608  12.689  23.027  0.00  0.00    +0.000 A 
ATOM     33  C   UNL     1      -2.800  13.072  22.424  0.00  0.00    +0.000 A 
ATOM     34  C   UNL     1      -3.072  14.429  22.282  0.00  0.00    +0.000 A 
ATOM     35  C   UNL     1      -2.150  15.359  22.745  0.00  0.00    +0.000 A 
ATOM     36  C   UNL     1      -0.989  14.890  23.337  0.00  0.00    +0.000 A 
ATOM     37  N   UNL     1      -0.702  13.580  23.487  0.00  0.00    +0.000 NA
ENDBRANCH  31  32
ENDBRANCH   3  31
TORSDOF 9
ENDMDL
MODEL 8
REMARK VINA RESULT:      -8.1      2.467      3.497
REMARK  Name = 
REMARK  10 active torsions:
REMARK  status: ('A' for Active; 'I' for Inactive)
REMARK    1  A    between atoms: C_1  and  C_2
REMARK    2  A    between atoms: C_2  and  C_3
REMARK    3  A    between atoms: C_8  and  O_9
REMARK    4  A    between atoms: O_9  and  C_10
REMARK    5  A    between atoms: C_12  and  S_13
REMARK    6  A    between atoms: S_13  and  C_14
REMARK    7  A    between atoms: C_22  and  N_23
REMARK    8  A    between atoms: N_26  and  C_27
REMARK    9  A    between atoms: C_27  and  C_28
REMARK   10  A    between atoms: C_32  and  O_33
REMARK                            x       y       z     vdW  Elec       q    Type
REMARK                         _______ _______ _______ _____ _____    ______ ____
ROOT
ATOM      1  C   UNL     1       0.533   9.960  19.334  0.00  0.00    +0.000 A 
ATOM      2  C   UNL     1      -0.053  10.245  20.576  0.00  0.00    +0.000 A 
ATOM      3  C   UNL     1       0.269   9.483  21.696  0.00  0.00    +0.000 A 
ATOM      4  C   UNL     1       1.231   8.504  21.546  0.00  0.00    +0.000 A 
ATOM      5  N   UNL     1       1.874   8.247  20.387  0.00  0.00    +0.000 NA
ATOM      6  C   UNL     1       1.543   8.983  19.296  0.00  0.00    +0.000 A 
ENDROOT
BRANCH   6   7
ATOM      7  N   UNL     1       2.261   8.740  18.115  0.00  0.00    +0.000 N 
ATOM      8  C   UNL     1       2.851   7.578  17.696  0.00  0.00    +0.000 C 
ATOM      9  O   UNL     1       3.494   7.571  16.646  0.00  0.00    +0.000 OA
ATOM     10  N   UNL     1       2.718   6.475  18.485  0.00  0.00    +0.000 N 
ATOM     11  H   UNL     1       2.434   9.528  17.505  0.00  0.00    +0.000 HD
ATOM     12  H   UNL     1       2.009   6.534  19.212  0.00  0.00    +0.000 HD
BRANCH  10  13
ATOM     13  C   UNL     1       3.271   5.196  18.117  0.00  0.00    +0.000 C 
BRANCH  13  14
ATOM     14  C   UNL     1       4.780   5.169  18.022  0.00  0.00    +0.000 A 
ATOM     15  C   UNL     1       5.436   4.765  16.853  0.00  0.00    +0.000 A 
ATOM     16  C   UNL     1       6.834   4.626  16.826  0.00  0.00    +0.000 A 
ATOM     17  C   UNL     1       7.588   4.891  17.970  0.00  0.00    +0.000 A 
ATOM     18  C   UNL     1       6.942   5.303  19.127  0.00  0.00    +0.000 A 
ATOM     19  C   UNL     1       5.557   5.449  19.160  0.00  0.00    +0.000 A 
BRANCH  18  20
ATOM     20  O   UNL     1       7.634   5.560  20.275  0.00  0.00    +0.000 OA
ATOM     21  H   UNL     1       6.999   5.785  20.975  0.00  0.00    +0.000 HD
ENDBRANCH  18  20
ENDBRANCH  13  14
ENDBRANCH  10  13
ENDBRANCH   6   7
BRANCH   1  22
ATOM     22  O   UNL     1       0.155  10.631  18.181  0.00  0.00    +0.000 OA
BRANCH  22  28
ATOM     23  C   UNL     1      -1.950  11.800  18.341  0.00  0.00    +0.000 A 
ATOM     24  N   UNL     1      -3.288  11.918  18.103  0.00  0.00    +0.000 NA
ATOM     25  C   UNL     1      -3.892  10.953  17.381  0.00  0.00    +0.000 A 
ATOM     26  C   UNL     1      -3.223   9.863  16.860  0.00  0.00    +0.000 A 
ATOM     27  C   UNL     1      -1.853   9.761  17.087  0.00  0.00    +0.000 A 
ATOM     28  C   UNL     1      -1.195  10.715  17.877  0.00  0.00    +0.000 A 
BRANCH  23  30
ATOM     29  C   UNL     1      -0.393  13.761  18.376  0.00  0.00    +0.000 C 
ATOM     30  C   UNL     1      -1.358  12.902  19.178  0.00  0.00    +0.000 C 
ENDBRANCH  23  30
ENDBRANCH  22  28
ENDBRANCH   1  22
BRANCH   3  31
ATOM     31  S   UNL     1      -0.588   9.701  23.230  0.00  0.00    +0.000 S 
BRANCH  31  32
ATOM     32  C   UNL     1      -1.170  11.380  23.094  0.00  0.00    +0.000 A 
ATOM     33  C   UNL     1      -2.527  11.624  23.269  0.00  0.00    +0.000 A 
ATOM     34  C   UNL     1      -2.990  12.931  23.156  0.00  0.00    +0.000 A 
ATOM     35  C   UNL     1      -2.090  13.950  22.874  0.00  0.00    +0.000 A 
ATOM     36  C   UNL     1      -0.755  13.619  22.718  0.00  0.00    +0.000 A 
ATOM     37  N   UNL     1      -0.279  12.360  22.823  0.00  0.00    +0.000 NA
ENDBRANCH  31  32
ENDBRANCH   3  31
TORSDOF 9
ENDMDL
MODEL 9
REMARK VINA RESULT:      -8.1      1.707      2.519
REMARK  Name = 
REMARK  10 active torsions:
REMARK  status: ('A' for Active; 'I' for Inactive)
REMARK    1  A    between atoms: C_1  and  C_2
REMARK    2  A    between atoms: C_2  and  C_3
REMARK    3  A    between atoms: C_8  and  O_9
REMARK    4  A    between atoms: O_9  and  C_10
REMARK    5  A    between atoms: C_12  and  S_13
REMARK    6  A    between atoms: S_13  and  C_14
REMARK    7  A    between atoms: C_22  and  N_23
REMARK    8  A    between atoms: N_26  and  C_27
REMARK    9  A    between atoms: C_27  and  C_28
REMARK   10  A    between atoms: C_32  and  O_33
REMARK                            x       y       z     vdW  Elec       q    Type
REMARK                         _______ _______ _______ _____ _____    ______ ____
ROOT
ATOM      1  C   UNL     1       0.356  10.149  19.330  0.00  0.00    +0.000 A 
ATOM      2  C   UNL     1      -0.279  10.427  20.550  0.00  0.00    +0.000 A 
ATOM      3  C   UNL     1       0.081   9.736  21.703  0.00  0.00    +0.000 A 
ATOM      4  C   UNL     1       1.126   8.839  21.608  0.00  0.00    +0.000 A 
ATOM      5  N   UNL     1       1.814   8.595  20.472  0.00  0.00    +0.000 NA
ATOM      6  C   UNL     1       1.446   9.261  19.348  0.00  0.00    +0.000 A 
ENDROOT
BRANCH   6   7
ATOM      7  N   UNL     1       2.207   9.039  18.191  0.00  0.00    +0.000 N 
ATOM      8  C   UNL     1       2.757   7.869  17.741  0.00  0.00    +0.000 C 
ATOM      9  O   UNL     1       3.449   7.879  16.722  0.00  0.00    +0.000 OA
ATOM     10  N   UNL     1       2.529   6.737  18.465  0.00  0.00    +0.000 N 
ATOM     11  H   UNL     1       2.451   9.846  17.631  0.00  0.00    +0.000 HD
ATOM     12  H   UNL     1       1.789   6.798  19.159  0.00  0.00    +0.000 HD
BRANCH  10  13
ATOM     13  C   UNL     1       3.034   5.450  18.057  0.00  0.00    +0.000 C 
BRANCH  13  14
ATOM     14  C   UNL     1       2.428   4.276  18.793  0.00  0.00    +0.000 A 
ATOM     15  C   UNL     1       1.581   3.365  18.151  0.00  0.00    +0.000 A 
ATOM     16  C   UNL     1       0.929   2.355  18.880  0.00  0.00    +0.000 A 
ATOM     17  C   UNL     1       1.121   2.249  20.258  0.00  0.00    +0.000 A 
ATOM     18  C   UNL     1       1.970   3.143  20.895  0.00  0.00    +0.000 A 
ATOM     19  C   UNL     1       2.624   4.143  20.178  0.00  0.00    +0.000 A 
BRANCH  18  20
ATOM     20  O   UNL     1       2.178   3.089  22.242  0.00  0.00    +0.000 OA
ATOM     21  H   UNL     1       2.663   3.887  22.513  0.00  0.00    +0.000 HD
ENDBRANCH  18  20
ENDBRANCH  13  14
ENDBRANCH  10  13
ENDBRANCH   6   7
BRANCH   1  22
ATOM     22  O   UNL     1      -0.051  10.744  18.146  0.00  0.00    +0.000 OA
BRANCH  22  28
ATOM     23  C   UNL     1      -2.164  11.887  18.385  0.00  0.00    +0.000 A 
ATOM     24  N   UNL     1      -3.508  11.997  18.183  0.00  0.00    +0.000 NA
ATOM     25  C   UNL     1      -4.120  11.041  17.455  0.00  0.00    +0.000 A 
ATOM     26  C   UNL     1      -3.455   9.970  16.893  0.00  0.00    +0.000 A 
ATOM     27  C   UNL     1      -2.078   9.877  17.084  0.00  0.00    +0.000 A 
ATOM     28  C   UNL     1      -1.410  10.820  17.878  0.00  0.00    +0.000 A 
BRANCH  23  30
ATOM     29  C   UNL     1      -0.544  13.796  18.452  0.00  0.00    +0.000 C 
ATOM     30  C   UNL     1      -1.562  12.977  19.231  0.00  0.00    +0.000 C 
ENDBRANCH  23  30
ENDBRANCH  22  28
ENDBRANCH   1  22
BRANCH   3  31
ATOM     31  S   UNL     1      -0.825   9.935  23.212  0.00  0.00    +0.000 S 
BRANCH  31  32
ATOM     32  C   UNL     1      -1.342  11.637  23.111  0.00  0.00    +0.000 A 
ATOM     33  C   UNL     1      -2.691  11.927  23.276  0.00  0.00    +0.000 A 
ATOM     34  C   UNL     1      -3.106  13.253  23.190  0.00  0.00    +0.000 A 
ATOM     35  C   UNL     1      -2.165  14.245  22.945  0.00  0.00    +0.000 A 
ATOM     36  C   UNL     1      -0.841  13.868  22.797  0.00  0.00    +0.000 A 
ATOM     37  N   UNL     1      -0.413  12.590  22.876  0.00  0.00    +0.000 NA
ENDBRANCH  31  32
ENDBRANCH   3  31
TORSDOF 9
ENDMDL
