MODEL 1
REMARK VINA RESULT:      -7.5      0.000      0.000
REMARK  Name = 
REMARK  10 active torsions:
REMARK  status: ('A' for Active; 'I' for Inactive)
REMARK    1  A    between atoms: C_1  and  C_2
REMARK    2  A    between atoms: C_7  and  C_8
REMARK    3  A    between atoms: C_9  and  C_10
REMARK    4  A    between atoms: C_10  and  C_11
REMARK    5  A    between atoms: N_13  and  C_14
REMARK    6  A    between atoms: N_13  and  C_21
REMARK    7  A    between atoms: C_14  and  C_15
REMARK    8  A    between atoms: C_21  and  C_22
REMARK    9  A    between atoms: C_21  and  C_23
REMARK   10  A    between atoms: N_30  and  C_31
REMARK                            x       y       z     vdW  Elec       q    Type
REMARK                         _______ _______ _______ _____ _____    ______ ____
ROOT
ATOM      1  C   UNL     1       4.168   5.160  18.432  0.00  0.00    +0.000 A 
ATOM      2  C   UNL     1       3.013   5.595  19.108  0.00  0.00    +0.000 A 
ATOM      3  C   UNL     1       2.079   4.496  19.148  0.00  0.00    +0.000 A 
ATOM      4  C   UNL     1       0.813   4.284  19.735  0.00  0.00    +0.000 A 
ATOM      5  C   UNL     1       0.123   3.084  19.529  0.00  0.00    +0.000 A 
ATOM      6  C   UNL     1       0.670   2.085  18.738  0.00  0.00    +0.000 A 
ATOM      7  C   UNL     1       1.933   2.249  18.167  0.00  0.00    +0.000 A 
ATOM      8  C   UNL     1       2.633   3.447  18.404  0.00  0.00    +0.000 A 
ATOM      9  N   UNL     1       3.912   3.837  18.050  0.00  0.00    +0.000 N 
ATOM     10  C   UNL     1       4.863   2.919  17.440  0.00  0.00    +0.000 C 
ENDROOT
BRANCH   1  17
ATOM     11  C   UNL     1       4.765   6.842  15.836  0.00  0.00    +0.000 C 
ATOM     12  C   UNL     1       5.730   6.621  16.969  0.00  0.00    +0.000 A 
ATOM     13  C   UNL     1       6.986   7.256  16.819  0.00  0.00    +0.000 A 
ATOM     14  C   UNL     1       7.944   7.228  17.825  0.00  0.00    +0.000 A 
ATOM     15  C   UNL     1       7.690   6.503  18.975  0.00  0.00    +0.000 A 
ATOM     16  C   UNL     1       6.494   5.790  19.097  0.00  0.00    +0.000 A 
ATOM     17  C   UNL     1       5.464   5.857  18.129  0.00  0.00    +0.000 A 
ENDBRANCH   1  17
BRANCH   2  18
ATOM     18  C   UNL     1       2.801   6.936  19.761  0.00  0.00    +0.000 C 
BRANCH  18  19
ATOM     19  C   UNL     1       2.366   8.127  18.921  0.00  0.00    +0.000 C 
ATOM     20  O   UNL     1       2.807   8.236  17.770  0.00  0.00    +0.000 OA
ATOM     21  N   UNL     1       1.383   8.994  19.410  0.00  0.00    +0.000 N 
BRANCH  21  22
ATOM     22  C   UNL     1       1.120   9.140  20.861  0.00  0.00    +0.000 C 
ATOM     23  C   UNL     1       1.185  10.607  21.300  0.00  0.00    +0.000 C 
ATOM     24  C   UNL     1      -0.184   8.493  21.314  0.00  0.00    +0.000 C 
ENDBRANCH  21  22
BRANCH  21  25
ATOM     25  C   UNL     1       0.932  10.054  18.489  0.00  0.00    +0.000 C 
BRANCH  25  26
ATOM     26  C   UNL     1      -0.562  10.249  18.344  0.00  0.00    +0.000 A 
ATOM     27  C   UNL     1      -1.173  11.317  19.018  0.00  0.00    +0.000 A 
ATOM     28  C   UNL     1      -2.515  11.586  18.794  0.00  0.00    +0.000 A 
ATOM     29  N   UNL     1      -3.291  10.869  17.957  0.00  0.00    +0.000 NA
ATOM     30  C   UNL     1      -2.691   9.845  17.311  0.00  0.00    +0.000 A 
ATOM     31  C   UNL     1      -1.353   9.504  17.462  0.00  0.00    +0.000 A 
ENDBRANCH  25  26
ENDBRANCH  21  25
ENDBRANCH  18  19
ENDBRANCH   2  18
TORSDOF 6
ENDMDL
MODEL 2
REMARK VINA RESULT:      -7.4      4.256      8.141
REMARK  Name = 
REMARK  10 active torsions:
REMARK  status: ('A' for Active; 'I' for Inactive)
REMARK    1  A    between atoms: C_1  and  C_2
REMARK    2  A    between atoms: C_7  and  C_8
REMARK    3  A    between atoms: C_9  and  C_10
REMARK    4  A    between atoms: C_10  and  C_11
REMARK    5  A    between atoms: N_13  and  C_14
REMARK    6  A    between atoms: N_13  and  C_21
REMARK    7  A    between atoms: C_14  and  C_15
REMARK    8  A    between atoms: C_21  and  C_22
REMARK    9  A    between atoms: C_21  and  C_23
REMARK   10  A    between atoms: N_30  and  C_31
REMARK                            x       y       z     vdW  Elec       q    Type
REMARK                         _______ _______ _______ _____ _____    ______ ____
ROOT
ATOM      1  C   UNL     1      -0.665  11.292  21.361  0.00  0.00    +0.000 A 
ATOM      2  C   UNL     1      -0.611  11.360  19.957  0.00  0.00    +0.000 A 
ATOM      3  C   UNL     1       0.178  10.247  19.486  0.00  0.00    +0.000 A 
ATOM      4  C   UNL     1       0.524   9.736  18.217  0.00  0.00    +0.000 A 
ATOM      5  C   UNL     1       1.384   8.639  18.100  0.00  0.00    +0.000 A 
ATOM      6  C   UNL     1       1.915   8.038  19.232  0.00  0.00    +0.000 A 
ATOM      7  C   UNL     1       1.570   8.498  20.503  0.00  0.00    +0.000 A 
ATOM      8  C   UNL     1       0.682   9.584  20.613  0.00  0.00    +0.000 A 
ATOM      9  N   UNL     1       0.104  10.177  21.720  0.00  0.00    +0.000 N 
ATOM     10  C   UNL     1       0.238   9.621  23.059  0.00  0.00    +0.000 C 
ENDROOT
BRANCH   1  17
ATOM     11  C   UNL     1       0.195  14.212  22.171  0.00  0.00    +0.000 C 
ATOM     12  C   UNL     1      -0.988  13.470  22.728  0.00  0.00    +0.000 A 
ATOM     13  C   UNL     1      -1.756  14.189  23.675  0.00  0.00    +0.000 A 
ATOM     14  C   UNL     1      -2.934  13.675  24.203  0.00  0.00    +0.000 A 
ATOM     15  C   UNL     1      -3.330  12.399  23.848  0.00  0.00    +0.000 A 
ATOM     16  C   UNL     1      -2.530  11.638  22.990  0.00  0.00    +0.000 A 
ATOM     17  C   UNL     1      -1.367  12.154  22.372  0.00  0.00    +0.000 A 
ENDBRANCH   1  17
BRANCH   2  18
ATOM     18  C   UNL     1      -1.318  12.356  19.074  0.00  0.00    +0.000 C 
BRANCH  18  19
ATOM     19  C   UNL     1      -2.836  12.450  19.103  0.00  0.00    +0.000 C 
ATOM     20  O   UNL     1      -3.376  13.061  20.033  0.00  0.00    +0.000 OA
ATOM     21  N   UNL     1      -3.577  11.967  18.019  0.00  0.00    +0.000 N 
BRANCH  21  22
ATOM     22  C   UNL     1      -3.046  10.925  17.110  0.00  0.00    +0.000 C 
ATOM     23  C   UNL     1      -3.082   9.537  17.761  0.00  0.00    +0.000 C 
ATOM     24  C   UNL     1      -3.722  10.903  15.743  0.00  0.00    +0.000 C 
ENDBRANCH  21  22
BRANCH  21  25
ATOM     25  C   UNL     1      -5.033  12.200  18.069  0.00  0.00    +0.000 C 
BRANCH  25  26
ATOM     26  C   UNL     1      -5.833  11.345  19.027  0.00  0.00    +0.000 A 
ATOM     27  C   UNL     1      -6.307  11.922  20.215  0.00  0.00    +0.000 A 
ATOM     28  C   UNL     1      -7.148  11.191  21.040  0.00  0.00    +0.000 A 
ATOM     29  N   UNL     1      -7.544   9.930  20.775  0.00  0.00    +0.000 NA
ATOM     30  C   UNL     1      -7.085   9.386  19.627  0.00  0.00    +0.000 A 
ATOM     31  C   UNL     1      -6.247  10.041  18.733  0.00  0.00    +0.000 A 
ENDBRANCH  25  26
ENDBRANCH  21  25
ENDBRANCH  18  19
ENDBRANCH   2  18
TORSDOF 6
ENDMDL
MODEL 3
REMARK VINA RESULT:      -7.4      1.532      2.048
REMARK  Name = 
REMARK  10 active torsions:
REMARK  status: ('A' for Active; 'I' for Inactive)
REMARK    1  A    between atoms: C_1  and  C_2
REMARK    2  A    between atoms: C_7  and  C_8
REMARK    3  A    between atoms: C_9  and  C_10
REMARK    4  A    between atoms: C_10  and  C_11
REMARK    5  A    between atoms: N_13  and  C_14
REMARK    6  A    between atoms: N_13  and  C_21
REMARK    7  A    between atoms: C_14  and  C_15
REMARK    8  A    between atoms: C_21  and  C_22
REMARK    9  A    between atoms: C_21  and  C_23
REMARK   10  A    between atoms: N_30  and  C_31
REMARK                            x       y       z     vdW  Elec       q    Type
REMARK                         _______ _______ _______ _____ _____    ______ ____
ROOT
ATOM      1  C   UNL     1       4.236   5.076  18.533  0.00  0.00    +0.000 A 
ATOM      2  C   UNL     1       3.111   5.474  19.279  0.00  0.00    +0.000 A 
ATOM      3  C   UNL     1       2.165   4.384  19.274  0.00  0.00    +0.000 A 
ATOM      4  C   UNL     1       0.918   4.143  19.889  0.00  0.00    +0.000 A 
ATOM      5  C   UNL     1       0.206   2.968  19.622  0.00  0.00    +0.000 A 
ATOM      6  C   UNL     1       0.714   2.022  18.744  0.00  0.00    +0.000 A 
ATOM      7  C   UNL     1       1.958   2.214  18.142  0.00  0.00    +0.000 A 
ATOM      8  C   UNL     1       2.681   3.385  18.438  0.00  0.00    +0.000 A 
ATOM      9  N   UNL     1       3.951   3.786  18.069  0.00  0.00    +0.000 N 
ATOM     10  C   UNL     1       4.870   2.905  17.361  0.00  0.00    +0.000 C 
ENDROOT
BRANCH   1  17
ATOM     11  C   UNL     1       4.760   6.944  16.052  0.00  0.00    +0.000 C 
ATOM     12  C   UNL     1       5.763   6.628  17.127  0.00  0.00    +0.000 A 
ATOM     13  C   UNL     1       7.022   7.258  16.978  0.00  0.00    +0.000 A 
ATOM     14  C   UNL     1       8.016   7.144  17.943  0.00  0.00    +0.000 A 
ATOM     15  C   UNL     1       7.795   6.336  19.043  0.00  0.00    +0.000 A 
ATOM     16  C   UNL     1       6.594   5.629  19.155  0.00  0.00    +0.000 A 
ATOM     17  C   UNL     1       5.530   5.780  18.235  0.00  0.00    +0.000 A 
ENDBRANCH   1  17
BRANCH   2  18
ATOM     18  C   UNL     1       2.939   6.767  20.032  0.00  0.00    +0.000 C 
BRANCH  18  19
ATOM     19  C   UNL     1       2.248   7.947  19.363  0.00  0.00    +0.000 C 
ATOM     20  O   UNL     1       2.636   8.307  18.245  0.00  0.00    +0.000 OA
ATOM     21  N   UNL     1       1.114   8.509  19.958  0.00  0.00    +0.000 N 
BRANCH  21  22
ATOM     22  C   UNL     1       0.852   8.391  21.412  0.00  0.00    +0.000 C 
ATOM     23  C   UNL     1       1.764   9.316  22.226  0.00  0.00    +0.000 C 
ATOM     24  C   UNL     1      -0.610   8.600  21.789  0.00  0.00    +0.000 C 
ENDBRANCH  21  22
BRANCH  21  25
ATOM     25  C   UNL     1       0.435   9.571  19.192  0.00  0.00    +0.000 C 
BRANCH  25  26
ATOM     26  C   UNL     1       0.926  10.987  19.394  0.00  0.00    +0.000 A 
ATOM     27  C   UNL     1       1.898  11.497  18.520  0.00  0.00    +0.000 A 
ATOM     28  C   UNL     1       2.265  12.832  18.613  0.00  0.00    +0.000 A 
ATOM     29  N   UNL     1       1.743  13.689  19.512  0.00  0.00    +0.000 NA
ATOM     30  C   UNL     1       0.806  13.188  20.346  0.00  0.00    +0.000 A 
ATOM     31  C   UNL     1       0.366  11.870  20.324  0.00  0.00    +0.000 A 
ENDBRANCH  25  26
ENDBRANCH  21  25
ENDBRANCH  18  19
ENDBRANCH   2  18
TORSDOF 6
ENDMDL
MODEL 4
REMARK VINA RESULT:      -7.1      2.506      7.407
REMARK  Name = 
REMARK  10 active torsions:
REMARK  status: ('A' for Active; 'I' for Inactive)
REMARK    1  A    between atoms: C_1  and  C_2
REMARK    2  A    between atoms: C_7  and  C_8
REMARK    3  A    between atoms: C_9  and  C_10
REMARK    4  A    between atoms: C_10  and  C_11
REMARK    5  A    between atoms: N_13  and  C_14
REMARK    6  A    between atoms: N_13  and  C_21
REMARK    7  A    between atoms: C_14  and  C_15
REMARK    8  A    between atoms: C_21  and  C_22
REMARK    9  A    between atoms: C_21  and  C_23
REMARK   10  A    between atoms: N_30  and  C_31
REMARK                            x       y       z     vdW  Elec       q    Type
REMARK                         _______ _______ _______ _____ _____    ______ ____
ROOT
ATOM      1  C   UNL     1       2.773   6.473  18.888  0.00  0.00    +0.000 A 
ATOM      2  C   UNL     1       3.118   7.512  18.003  0.00  0.00    +0.000 A 
ATOM      3  C   UNL     1       2.419   8.703  18.420  0.00  0.00    +0.000 A 
ATOM      4  C   UNL     1       2.408  10.051  18.001  0.00  0.00    +0.000 A 
ATOM      5  C   UNL     1       1.543  10.976  18.598  0.00  0.00    +0.000 A 
ATOM      6  C   UNL     1       0.679  10.581  19.608  0.00  0.00    +0.000 A 
ATOM      7  C   UNL     1       0.686   9.263  20.067  0.00  0.00    +0.000 A 
ATOM      8  C   UNL     1       1.579   8.346  19.483  0.00  0.00    +0.000 A 
ATOM      9  N   UNL     1       1.863   7.029  19.794  0.00  0.00    +0.000 N 
ATOM     10  C   UNL     1       1.323   6.378  20.980  0.00  0.00    +0.000 C 
ENDROOT
BRANCH   1  17
ATOM     11  C   UNL     1       1.247   4.023  17.624  0.00  0.00    +0.000 C 
ATOM     12  C   UNL     1       2.542   3.941  18.385  0.00  0.00    +0.000 A 
ATOM     13  C   UNL     1       3.090   2.640  18.499  0.00  0.00    +0.000 A 
ATOM     14  C   UNL     1       4.330   2.418  19.085  0.00  0.00    +0.000 A 
ATOM     15  C   UNL     1       5.016   3.486  19.634  0.00  0.00    +0.000 A 
ATOM     16  C   UNL     1       4.443   4.761  19.616  0.00  0.00    +0.000 A 
ATOM     17  C   UNL     1       3.221   5.040  18.961  0.00  0.00    +0.000 A 
ENDBRANCH   1  17
BRANCH   2  18
ATOM     18  C   UNL     1       4.107   7.440  16.869  0.00  0.00    +0.000 C 
BRANCH  18  19
ATOM     19  C   UNL     1       4.782   6.117  16.535  0.00  0.00    +0.000 C 
ATOM     20  O   UNL     1       4.133   5.254  15.933  0.00  0.00    +0.000 OA
ATOM     21  N   UNL     1       6.148   5.956  16.792  0.00  0.00    +0.000 N 
BRANCH  21  22
ATOM     22  C   UNL     1       6.851   6.761  17.819  0.00  0.00    +0.000 C 
ATOM     23  C   UNL     1       7.734   5.884  18.715  0.00  0.00    +0.000 C 
ATOM     24  C   UNL     1       7.648   7.926  17.243  0.00  0.00    +0.000 C 
ENDBRANCH  21  22
BRANCH  21  25
ATOM     25  C   UNL     1       6.753   4.692  16.335  0.00  0.00    +0.000 C 
BRANCH  25  26
ATOM     26  C   UNL     1       6.964   4.529  14.845  0.00  0.00    +0.000 A 
ATOM     27  C   UNL     1       6.182   3.595  14.149  0.00  0.00    +0.000 A 
ATOM     28  C   UNL     1       6.273   3.525  12.767  0.00  0.00    +0.000 A 
ATOM     29  N   UNL     1       7.086   4.308  12.032  0.00  0.00    +0.000 NA
ATOM     30  C   UNL     1       7.831   5.207  12.712  0.00  0.00    +0.000 A 
ATOM     31  C   UNL     1       7.803   5.359  14.093  0.00  0.00    +0.000 A 
ENDBRANCH  25  26
ENDBRANCH  21  25
ENDBRANCH  18  19
ENDBRANCH   2  18
TORSDOF 6
ENDMDL
MODEL 5
REMARK VINA RESULT:      -7.1      6.656     10.526
REMARK  Name = 
REMARK  10 active torsions:
REMARK  status: ('A' for Active; 'I' for Inactive)
REMARK    1  A    between atoms: C_1  and  C_2
REMARK    2  A    between atoms: C_7  and  C_8
REMARK    3  A    between atoms: C_9  and  C_10
REMARK    4  A    between atoms: C_10  and  C_11
REMARK    5  A    between atoms: N_13  and  C_14
REMARK    6  A    between atoms: N_13  and  C_21
REMARK    7  A    between atoms: C_14  and  C_15
REMARK    8  A    between atoms: C_21  and  C_22
REMARK    9  A    between atoms: C_21  and  C_23
REMARK   10  A    between atoms: N_30  and  C_31
REMARK                            x       y       z     vdW  Elec       q    Type
REMARK                         _______ _______ _______ _____ _____    ______ ____
ROOT
ATOM      1  C   UNL     1      -2.809  13.513  22.994  0.00  0.00    +0.000 A 
ATOM      2  C   UNL     1      -4.192  13.718  22.833  0.00  0.00    +0.000 A 
ATOM      3  C   UNL     1      -4.543  14.940  23.515  0.00  0.00    +0.000 A 
ATOM      4  C   UNL     1      -5.724  15.703  23.650  0.00  0.00    +0.000 A 
ATOM      5  C   UNL     1      -5.746  16.847  24.456  0.00  0.00    +0.000 A 
ATOM      6  C   UNL     1      -4.607  17.247  25.139  0.00  0.00    +0.000 A 
ATOM      7  C   UNL     1      -3.415  16.535  25.003  0.00  0.00    +0.000 A 
ATOM      8  C   UNL     1      -3.394  15.402  24.168  0.00  0.00    +0.000 A 
ATOM      9  N   UNL     1      -2.353  14.578  23.781  0.00  0.00    +0.000 N 
ATOM     10  C   UNL     1      -0.965  14.875  24.105  0.00  0.00    +0.000 C 
ENDROOT
BRANCH   1  17
ATOM     11  C   UNL     1      -1.264  13.604  20.250  0.00  0.00    +0.000 C 
ATOM     12  C   UNL     1      -1.194  12.482  21.248  0.00  0.00    +0.000 A 
ATOM     13  C   UNL     1      -0.338  11.412  20.891  0.00  0.00    +0.000 A 
ATOM     14  C   UNL     1      -0.092  10.352  21.755  0.00  0.00    +0.000 A 
ATOM     15  C   UNL     1      -0.755  10.306  22.967  0.00  0.00    +0.000 A 
ATOM     16  C   UNL     1      -1.678  11.304  23.293  0.00  0.00    +0.000 A 
ATOM     17  C   UNL     1      -1.897  12.437  22.475  0.00  0.00    +0.000 A 
ENDBRANCH   1  17
BRANCH   2  18
ATOM     18  C   UNL     1      -5.141  12.873  22.024  0.00  0.00    +0.000 C 
BRANCH  18  19
ATOM     19  C   UNL     1      -5.173  13.009  20.509  0.00  0.00    +0.000 C 
ATOM     20  O   UNL     1      -4.652  14.003  19.990  0.00  0.00    +0.000 OA
ATOM     21  N   UNL     1      -5.666  11.955  19.732  0.00  0.00    +0.000 N 
BRANCH  21  22
ATOM     22  C   UNL     1      -6.619  10.960  20.277  0.00  0.00    +0.000 C 
ATOM     23  C   UNL     1      -7.915  11.624  20.755  0.00  0.00    +0.000 C 
ATOM     24  C   UNL     1      -6.917   9.810  19.321  0.00  0.00    +0.000 C 
ENDBRANCH  21  22
BRANCH  21  25
ATOM     25  C   UNL     1      -5.556  12.115  18.270  0.00  0.00    +0.000 C 
BRANCH  25  26
ATOM     26  C   UNL     1      -4.396  11.424  17.588  0.00  0.00    +0.000 A 
ATOM     27  C   UNL     1      -4.416  11.290  16.191  0.00  0.00    +0.000 A 
ATOM     28  C   UNL     1      -3.305  10.774  15.541  0.00  0.00    +0.000 A 
ATOM     29  N   UNL     1      -2.184  10.378  16.176  0.00  0.00    +0.000 NA
ATOM     30  C   UNL     1      -2.175  10.515  17.520  0.00  0.00    +0.000 A 
ATOM     31  C   UNL     1      -3.233  11.029  18.259  0.00  0.00    +0.000 A 
ENDBRANCH  25  26
ENDBRANCH  21  25
ENDBRANCH  18  19
ENDBRANCH   2  18
TORSDOF 6
ENDMDL
MODEL 6
REMARK VINA RESULT:      -7.0      0.377      1.266
REMARK  Name = 
REMARK  10 active torsions:
REMARK  status: ('A' for Active; 'I' for Inactive)
REMARK    1  A    between atoms: C_1  and  C_2
REMARK    2  A    between atoms: C_7  and  C_8
REMARK    3  A    between atoms: C_9  and  C_10
REMARK    4  A    between atoms: C_10  and  C_11
REMARK    5  A    between atoms: N_13  and  C_14
REMARK    6  A    between atoms: N_13  and  C_21
REMARK    7  A    between atoms: C_14  and  C_15
REMARK    8  A    between atoms: C_21  and  C_22
REMARK    9  A    between atoms: C_21  and  C_23
REMARK   10  A    between atoms: N_30  and  C_31
REMARK                            x       y       z     vdW  Elec       q    Type
REMARK                         _______ _______ _______ _____ _____    ______ ____
ROOT
ATOM      1  C   UNL     1       3.968   5.253  18.290  0.00  0.00    +0.000 A 
ATOM      2  C   UNL     1       2.868   5.655  19.071  0.00  0.00    +0.000 A 
ATOM      3  C   UNL     1       1.986   4.522  19.214  0.00  0.00    +0.000 A 
ATOM      4  C   UNL     1       0.792   4.271  19.925  0.00  0.00    +0.000 A 
ATOM      5  C   UNL     1       0.132   3.043  19.800  0.00  0.00    +0.000 A 
ATOM      6  C   UNL     1       0.639   2.054  18.971  0.00  0.00    +0.000 A 
ATOM      7  C   UNL     1       1.833   2.257  18.277  0.00  0.00    +0.000 A 
ATOM      8  C   UNL     1       2.505   3.483  18.431  0.00  0.00    +0.000 A 
ATOM      9  N   UNL     1       3.728   3.916  17.950  0.00  0.00    +0.000 N 
ATOM     10  C   UNL     1       4.650   3.025  17.260  0.00  0.00    +0.000 C 
ENDROOT
BRANCH   1  17
ATOM     11  C   UNL     1       6.731   5.233  19.802  0.00  0.00    +0.000 C 
ATOM     12  C   UNL     1       6.445   5.976  18.526  0.00  0.00    +0.000 A 
ATOM     13  C   UNL     1       7.541   6.695  17.991  0.00  0.00    +0.000 A 
ATOM     14  C   UNL     1       7.460   7.348  16.768  0.00  0.00    +0.000 A 
ATOM     15  C   UNL     1       6.257   7.355  16.087  0.00  0.00    +0.000 A 
ATOM     16  C   UNL     1       5.138   6.733  16.650  0.00  0.00    +0.000 A 
ATOM     17  C   UNL     1       5.200   5.994  17.854  0.00  0.00    +0.000 A 
ENDBRANCH   1  17
BRANCH   2  18
ATOM     18  C   UNL     1       2.669   6.997  19.726  0.00  0.00    +0.000 C 
BRANCH  18  19
ATOM     19  C   UNL     1       2.229   8.190  18.890  0.00  0.00    +0.000 C 
ATOM     20  O   UNL     1       2.638   8.283  17.727  0.00  0.00    +0.000 OA
ATOM     21  N   UNL     1       1.276   9.076  19.402  0.00  0.00    +0.000 N 
BRANCH  21  22
ATOM     22  C   UNL     1       1.058   9.236  20.859  0.00  0.00    +0.000 C 
ATOM     23  C   UNL     1       1.101  10.711  21.276  0.00  0.00    +0.000 C 
ATOM     24  C   UNL     1      -0.214   8.565  21.365  0.00  0.00    +0.000 C 
ENDBRANCH  21  22
BRANCH  21  25
ATOM     25  C   UNL     1       0.816  10.138  18.488  0.00  0.00    +0.000 C 
BRANCH  25  26
ATOM     26  C   UNL     1      -0.678  10.285  18.300  0.00  0.00    +0.000 A 
ATOM     27  C   UNL     1      -1.347  11.315  18.979  0.00  0.00    +0.000 A 
ATOM     28  C   UNL     1      -2.690  11.542  18.720  0.00  0.00    +0.000 A 
ATOM     29  N   UNL     1      -3.415  10.819  17.843  0.00  0.00    +0.000 NA
ATOM     30  C   UNL     1      -2.759   9.833  17.192  0.00  0.00    +0.000 A 
ATOM     31  C   UNL     1      -1.415   9.535  17.377  0.00  0.00    +0.000 A 
ENDBRANCH  25  26
ENDBRANCH  21  25
ENDBRANCH  18  19
ENDBRANCH   2  18
TORSDOF 6
ENDMDL
MODEL 7
REMARK VINA RESULT:      -7.0      4.540      9.586
REMARK  Name = 
REMARK  10 active torsions:
REMARK  status: ('A' for Active; 'I' for Inactive)
REMARK    1  A    between atoms: C_1  and  C_2
REMARK    2  A    between atoms: C_7  and  C_8
REMARK    3  A    between atoms: C_9  and  C_10
REMARK    4  A    between atoms: C_10  and  C_11
REMARK    5  A    between atoms: N_13  and  C_14
REMARK    6  A    between atoms: N_13  and  C_21
REMARK    7  A    between atoms: C_14  and  C_15
REMARK    8  A    between atoms: C_21  and  C_22
REMARK    9  A    between atoms: C_21  and  C_23
REMARK   10  A    between atoms: N_30  and  C_31
REMARK                            x       y       z     vdW  Elec       q    Type
REMARK                         _______ _______ _______ _____ _____    ______ ____
ROOT
ATOM      1  C   UNL     1      -4.807  11.692  19.365  0.00  0.00    +0.000 A 
ATOM      2  C   UNL     1      -4.387  12.577  20.376  0.00  0.00    +0.000 A 
ATOM      3  C   UNL     1      -5.422  12.626  21.382  0.00  0.00    +0.000 A 
ATOM      4  C   UNL     1      -5.560  13.250  22.640  0.00  0.00    +0.000 A 
ATOM      5  C   UNL     1      -6.754  13.142  23.363  0.00  0.00    +0.000 A 
ATOM      6  C   UNL     1      -7.823  12.424  22.850  0.00  0.00    +0.000 A 
ATOM      7  C   UNL     1      -7.710  11.769  21.623  0.00  0.00    +0.000 A 
ATOM      8  C   UNL     1      -6.497  11.858  20.916  0.00  0.00    +0.000 A 
ATOM      9  N   UNL     1      -6.078  11.248  19.748  0.00  0.00    +0.000 N 
ATOM     10  C   UNL     1      -6.863  10.215  19.087  0.00  0.00    +0.000 C 
ENDROOT
BRANCH   1  17
ATOM     11  C   UNL     1      -5.653  12.502  16.441  0.00  0.00    +0.000 C 
ATOM     12  C   UNL     1      -4.501  11.601  16.793  0.00  0.00    +0.000 A 
ATOM     13  C   UNL     1      -3.757  11.119  15.689  0.00  0.00    +0.000 A 
ATOM     14  C   UNL     1      -2.606  10.359  15.860  0.00  0.00    +0.000 A 
ATOM     15  C   UNL     1      -2.217  10.006  17.138  0.00  0.00    +0.000 A 
ATOM     16  C   UNL     1      -2.996  10.392  18.233  0.00  0.00    +0.000 A 
ATOM     17  C   UNL     1      -4.129  11.229  18.106  0.00  0.00    +0.000 A 
ENDBRANCH   1  17
BRANCH   2  18
ATOM     18  C   UNL     1      -3.062  13.288  20.460  0.00  0.00    +0.000 C 
BRANCH  18  19
ATOM     19  C   UNL     1      -1.894  12.632  21.181  0.00  0.00    +0.000 C 
ATOM     20  O   UNL     1      -2.118  11.991  22.215  0.00  0.00    +0.000 OA
ATOM     21  N   UNL     1      -0.624  12.651  20.595  0.00  0.00    +0.000 N 
BRANCH  21  22
ATOM     22  C   UNL     1      -0.232  13.687  19.610  0.00  0.00    +0.000 C 
ATOM     23  C   UNL     1      -0.640  13.293  18.186  0.00  0.00    +0.000 C 
ATOM     24  C   UNL     1      -0.739  15.082  19.955  0.00  0.00    +0.000 C 
ENDBRANCH  21  22
BRANCH  21  25
ATOM     25  C   UNL     1       0.429  11.894  21.297  0.00  0.00    +0.000 C 
BRANCH  25  26
ATOM     26  C   UNL     1       0.763  10.520  20.759  0.00  0.00    +0.000 A 
ATOM     27  C   UNL     1       1.035  10.377  19.391  0.00  0.00    +0.000 A 
ATOM     28  C   UNL     1       1.466   9.151  18.906  0.00  0.00    +0.000 A 
ATOM     29  N   UNL     1       1.639   8.061  19.679  0.00  0.00    +0.000 NA
ATOM     30  C   UNL     1       1.377   8.211  20.996  0.00  0.00    +0.000 A 
ATOM     31  C   UNL     1       0.950   9.399  21.576  0.00  0.00    +0.000 A 
ENDBRANCH  25  26
ENDBRANCH  21  25
ENDBRANCH  18  19
ENDBRANCH   2  18
TORSDOF 6
ENDMDL
MODEL 8
REMARK VINA RESULT:      -7.0      4.659      8.764
REMARK  Name = 
REMARK  10 active torsions:
REMARK  status: ('A' for Active; 'I' for Inactive)
REMARK    1  A    between atoms: C_1  and  C_2
REMARK    2  A    between atoms: C_7  and  C_8
REMARK    3  A    between atoms: C_9  and  C_10
REMARK    4  A    between atoms: C_10  and  C_11
REMARK    5  A    between atoms: N_13  and  C_14
REMARK    6  A    between atoms: N_13  and  C_21
REMARK    7  A    between atoms: C_14  and  C_15
REMARK    8  A    between atoms: C_21  and  C_22
REMARK    9  A    between atoms: C_21  and  C_23
REMARK   10  A    between atoms: N_30  and  C_31
REMARK                            x       y       z     vdW  Elec       q    Type
REMARK                         _______ _______ _______ _____ _____    ______ ____
ROOT
ATOM      1  C   UNL     1      -1.134  11.546  21.693  0.00  0.00    +0.000 A 
ATOM      2  C   UNL     1      -1.176  11.628  20.289  0.00  0.00    +0.000 A 
ATOM      3  C   UNL     1      -0.325  10.590  19.757  0.00  0.00    +0.000 A 
ATOM      4  C   UNL     1      -0.018  10.119  18.462  0.00  0.00    +0.000 A 
ATOM      5  C   UNL     1       0.924   9.101  18.278  0.00  0.00    +0.000 A 
ATOM      6  C   UNL     1       1.574   8.540  19.367  0.00  0.00    +0.000 A 
ATOM      7  C   UNL     1       1.272   8.961  20.663  0.00  0.00    +0.000 A 
ATOM      8  C   UNL     1       0.303   9.965  20.841  0.00  0.00    +0.000 A 
ATOM      9  N   UNL     1      -0.251  10.499  21.989  0.00  0.00    +0.000 N 
ATOM     10  C   UNL     1       0.015   9.947  23.310  0.00  0.00    +0.000 C 
ENDROOT
BRANCH   1  17
ATOM     11  C   UNL     1      -0.327  14.438  22.647  0.00  0.00    +0.000 C 
ATOM     12  C   UNL     1      -1.486  13.641  23.178  0.00  0.00    +0.000 A 
ATOM     13  C   UNL     1      -2.258  14.292  24.170  0.00  0.00    +0.000 A 
ATOM     14  C   UNL     1      -3.418  13.725  24.683  0.00  0.00    +0.000 A 
ATOM     15  C   UNL     1      -3.791  12.460  24.265  0.00  0.00    +0.000 A 
ATOM     16  C   UNL     1      -2.986  11.764  23.359  0.00  0.00    +0.000 A 
ATOM     17  C   UNL     1      -1.841  12.338  22.756  0.00  0.00    +0.000 A 
ENDBRANCH   1  17
BRANCH   2  18
ATOM     18  C   UNL     1      -2.019  12.565  19.464  0.00  0.00    +0.000 C 
BRANCH  18  19
ATOM     19  C   UNL     1      -3.531  12.400  19.440  0.00  0.00    +0.000 C 
ATOM     20  O   UNL     1      -4.193  12.837  20.389  0.00  0.00    +0.000 OA
ATOM     21  N   UNL     1      -4.150  11.884  18.296  0.00  0.00    +0.000 N 
BRANCH  21  22
ATOM     22  C   UNL     1      -3.424  11.019  17.337  0.00  0.00    +0.000 C 
ATOM     23  C   UNL     1      -3.453   9.548  17.770  0.00  0.00    +0.000 C 
ATOM     24  C   UNL     1      -3.899  11.171  15.896  0.00  0.00    +0.000 C 
ENDBRANCH  21  22
BRANCH  21  25
ATOM     25  C   UNL     1      -5.624  11.864  18.305  0.00  0.00    +0.000 C 
BRANCH  25  26
ATOM     26  C   UNL     1      -6.332  13.167  18.004  0.00  0.00    +0.000 A 
ATOM     27  C   UNL     1      -6.549  13.524  16.664  0.00  0.00    +0.000 A 
ATOM     28  C   UNL     1      -7.307  14.648  16.373  0.00  0.00    +0.000 A 
ATOM     29  N   UNL     1      -7.856  15.443  17.313  0.00  0.00    +0.000 NA
ATOM     30  C   UNL     1      -7.643  15.088  18.599  0.00  0.00    +0.000 A 
ATOM     31  C   UNL     1      -6.907  13.976  18.990  0.00  0.00    +0.000 A 
ENDBRANCH  25  26
ENDBRANCH  21  25
ENDBRANCH  18  19
ENDBRANCH   2  18
TORSDOF 6
ENDMDL
MODEL 9
REMARK VINA RESULT:      -7.0      4.769      9.496
REMARK  Name = 
REMARK  10 active torsions:
REMARK  status: ('A' for Active; 'I' for Inactive)
REMARK    1  A    between atoms: C_1  and  C_2
REMARK    2  A    between atoms: C_7  and  C_8
REMARK    3  A    between atoms: C_9  and  C_10
REMARK    4  A    between atoms: C_10  and  C_11
REMARK    5  A    between atoms: N_13  and  C_14
REMARK    6  A    between atoms: N_13  and  C_21
REMARK    7  A    between atoms: C_14  and  C_15
REMARK    8  A    between atoms: C_21  and  C_22
REMARK    9  A    between atoms: C_21  and  C_23
REMARK   10  A    between atoms: N_30  and  C_31
REMARK                            x       y       z     vdW  Elec       q    Type
REMARK                         _______ _______ _______ _____ _____    ______ ____
ROOT
ATOM      1  C   UNL     1      -4.782  11.721  19.166  0.00  0.00    +0.000 A 
ATOM      2  C   UNL     1      -4.453  12.641  20.178  0.00  0.00    +0.000 A 
ATOM      3  C   UNL     1      -5.508  12.616  21.163  0.00  0.00    +0.000 A 
ATOM      4  C   UNL     1      -5.719  13.236  22.414  0.00  0.00    +0.000 A 
ATOM      5  C   UNL     1      -6.915  13.040  23.113  0.00  0.00    +0.000 A 
ATOM      6  C   UNL     1      -7.915  12.238  22.586  0.00  0.00    +0.000 A 
ATOM      7  C   UNL     1      -7.728  11.587  21.366  0.00  0.00    +0.000 A 
ATOM      8  C   UNL     1      -6.511  11.765  20.682  0.00  0.00    +0.000 A 
ATOM      9  N   UNL     1      -6.024  11.182  19.527  0.00  0.00    +0.000 N 
ATOM     10  C   UNL     1      -6.713  10.088  18.858  0.00  0.00    +0.000 C 
ENDROOT
BRANCH   1  17
ATOM     11  C   UNL     1      -2.142  10.004  19.107  0.00  0.00    +0.000 C 
ATOM     12  C   UNL     1      -2.866  10.524  17.896  0.00  0.00    +0.000 A 
ATOM     13  C   UNL     1      -2.287  10.172  16.653  0.00  0.00    +0.000 A 
ATOM     14  C   UNL     1      -2.896  10.493  15.446  0.00  0.00    +0.000 A 
ATOM     15  C   UNL     1      -4.062  11.236  15.457  0.00  0.00    +0.000 A 
ATOM     16  C   UNL     1      -4.593  11.675  16.673  0.00  0.00    +0.000 A 
ATOM     17  C   UNL     1      -4.046  11.304  17.924  0.00  0.00    +0.000 A 
ENDBRANCH   1  17
BRANCH   2  18
ATOM     18  C   UNL     1      -3.189  13.454  20.282  0.00  0.00    +0.000 C 
BRANCH  18  19
ATOM     19  C   UNL     1      -2.003  12.913  21.068  0.00  0.00    +0.000 C 
ATOM     20  O   UNL     1      -2.219  12.267  22.100  0.00  0.00    +0.000 OA
ATOM     21  N   UNL     1      -0.713  13.038  20.542  0.00  0.00    +0.000 N 
BRANCH  21  22
ATOM     22  C   UNL     1      -0.367  14.093  19.561  0.00  0.00    +0.000 C 
ATOM     23  C   UNL     1       0.818  14.940  20.039  0.00  0.00    +0.000 C 
ATOM     24  C   UNL     1      -0.123  13.563  18.153  0.00  0.00    +0.000 C 
ENDBRANCH  21  22
BRANCH  21  25
ATOM     25  C   UNL     1       0.368  12.387  21.305  0.00  0.00    +0.000 C 
BRANCH  25  26
ATOM     26  C   UNL     1       0.843  11.038  20.810  0.00  0.00    +0.000 A 
ATOM     27  C   UNL     1       0.758   9.934  21.671  0.00  0.00    +0.000 A 
ATOM     28  C   UNL     1       1.069   8.670  21.191  0.00  0.00    +0.000 A 
ATOM     29  N   UNL     1       1.462   8.427  19.925  0.00  0.00    +0.000 NA
ATOM     30  C   UNL     1       1.536   9.498  19.104  0.00  0.00    +0.000 A 
ATOM     31  C   UNL     1       1.237  10.799  19.489  0.00  0.00    +0.000 A 
ENDBRANCH  25  26
ENDBRANCH  21  25
ENDBRANCH  18  19
ENDBRANCH   2  18
TORSDOF 6
ENDMDL
