MODEL 1
REMARK VINA RESULT:      -7.6      0.000      0.000
REMARK  Name = 
REMARK  7 active torsions:
REMARK  status: ('A' for Active; 'I' for Inactive)
REMARK    1  A    between atoms: C_1  and  C_2
REMARK    2  A    between atoms: C_2  and  C_3
REMARK    3  A    between atoms: C_3  and  C_4
REMARK    4  A    between atoms: C_4  and  O_5
REMARK    5  A    between atoms: O_5  and  C_6
REMARK    6  A    between atoms: C_9  and  C_10
REMARK    7  A    between atoms: C_10  and  N_11
REMARK                            x       y       z     vdW  Elec       q    Type
REMARK                         _______ _______ _______ _____ _____    ______ ____
ROOT
ATOM      1  C   UNL     1       7.594   6.896  18.055  0.00  0.00    +0.000 A 
ATOM      2  C   UNL     1       6.672   7.125  17.029  0.00  0.00    +0.000 A 
ATOM      3  C   UNL     1       5.777   6.123  16.633  0.00  0.00    +0.000 A 
ATOM      4  C   UNL     1       5.788   4.855  17.229  0.00  0.00    +0.000 A 
ATOM      5  C   UNL     1       6.748   4.612  18.226  0.00  0.00    +0.000 A 
ATOM      6  C   UNL     1       7.644   5.623  18.627  0.00  0.00    +0.000 A 
ENDROOT
BRANCH   1   7
ATOM      7  O   UNL     1       8.469   7.828  18.567  0.00  0.00    +0.000 OA
BRANCH   7   8
ATOM      8  C   UNL     1       8.305   9.173  18.095  0.00  0.00    +0.000 C 
BRANCH   8   9
ATOM      9  C   UNL     1       9.123  10.166  18.931  0.00  0.00    +0.000 C 
BRANCH   9  11
ATOM     10  C   UNL     1       8.760  12.356  17.726  0.00  0.00    +0.000 C 
ATOM     11  C   UNL     1       9.772  11.281  18.108  0.00  0.00    +0.000 C 
ENDBRANCH   9  11
ENDBRANCH   8   9
ENDBRANCH   7   8
ENDBRANCH   1   7
BRANCH   4  12
ATOM     12  C   UNL     1       4.659   3.885  16.950  0.00  0.00    +0.000 C 
BRANCH  12  13
ATOM     13  N   UNL     1       3.573   3.687  17.879  0.00  0.00    +0.000 N 
ATOM     14  C   UNL     1       3.214   2.390  18.244  0.00  0.00    +0.000 A 
ATOM     15  O   UNL     1       3.744   1.362  17.838  0.00  0.00    +0.000 OA
ATOM     16  O   UNL     1       2.191   2.376  19.191  0.00  0.00    +0.000 OA
ATOM     17  C   UNL     1       2.074   3.723  19.497  0.00  0.00    +0.000 A 
ATOM     18  C   UNL     1       1.218   4.203  20.464  0.00  0.00    +0.000 A 
ATOM     19  C   UNL     1       1.282   5.565  20.748  0.00  0.00    +0.000 A 
ATOM     20  C   UNL     1       2.191   6.392  20.054  0.00  0.00    +0.000 A 
ATOM     21  C   UNL     1       3.013   5.876  19.033  0.00  0.00    +0.000 A 
ATOM     22  C   UNL     1       2.934   4.530  18.762  0.00  0.00    +0.000 A 
ENDBRANCH  12  13
ENDBRANCH   4  12
TORSDOF 6
ENDMDL
MODEL 2
REMARK VINA RESULT:      -7.5      3.493      5.853
REMARK  Name = 
REMARK  7 active torsions:
REMARK  status: ('A' for Active; 'I' for Inactive)
REMARK    1  A    between atoms: C_1  and  C_2
REMARK    2  A    between atoms: C_2  and  C_3
REMARK    3  A    between atoms: C_3  and  C_4
REMARK    4  A    between atoms: C_4  and  O_5
REMARK    5  A    between atoms: O_5  and  C_6
REMARK    6  A    between atoms: C_9  and  C_10
REMARK    7  A    between atoms: C_10  and  N_11
REMARK                            x       y       z     vdW  Elec       q    Type
REMARK                         _______ _______ _______ _____ _____    ______ ____
ROOT
ATOM      1  C   UNL     1       6.350   4.237  14.180  0.00  0.00    +0.000 A 
ATOM      2  C   UNL     1       7.195   5.071  14.918  0.00  0.00    +0.000 A 
ATOM      3  C   UNL     1       6.900   5.391  16.251  0.00  0.00    +0.000 A 
ATOM      4  C   UNL     1       5.745   4.911  16.880  0.00  0.00    +0.000 A 
ATOM      5  C   UNL     1       4.872   4.114  16.121  0.00  0.00    +0.000 A 
ATOM      6  C   UNL     1       5.173   3.788  14.783  0.00  0.00    +0.000 A 
ENDROOT
BRANCH   1   7
ATOM      7  O   UNL     1       6.577   3.805  12.892  0.00  0.00    +0.000 OA
BRANCH   7   8
ATOM      8  C   UNL     1       5.522   3.044  12.288  0.00  0.00    +0.000 C 
BRANCH   8   9
ATOM      9  C   UNL     1       4.614   3.929  11.425  0.00  0.00    +0.000 C 
BRANCH   9  11
ATOM     10  C   UNL     1       2.899   3.966   9.570  0.00  0.00    +0.000 C 
ATOM     11  C   UNL     1       3.485   3.165  10.729  0.00  0.00    +0.000 C 
ENDBRANCH   9  11
ENDBRANCH   8   9
ENDBRANCH   7   8
ENDBRANCH   1   7
BRANCH   4  12
ATOM     12  C   UNL     1       5.582   5.074  18.377  0.00  0.00    +0.000 C 
BRANCH  12  13
ATOM     13  N   UNL     1       4.287   5.232  18.993  0.00  0.00    +0.000 N 
ATOM     14  C   UNL     1       3.519   6.356  18.690  0.00  0.00    +0.000 A 
ATOM     15  O   UNL     1       3.846   7.259  17.929  0.00  0.00    +0.000 OA
ATOM     16  O   UNL     1       2.276   6.326  19.319  0.00  0.00    +0.000 OA
ATOM     17  C   UNL     1       2.272   5.055  19.874  0.00  0.00    +0.000 A 
ATOM     18  C   UNL     1       1.190   4.531  20.547  0.00  0.00    +0.000 A 
ATOM     19  C   UNL     1       1.281   3.203  20.955  0.00  0.00    +0.000 A 
ATOM     20  C   UNL     1       2.445   2.454  20.680  0.00  0.00    +0.000 A 
ATOM     21  C   UNL     1       3.553   3.039  20.037  0.00  0.00    +0.000 A 
ATOM     22  C   UNL     1       3.449   4.353  19.644  0.00  0.00    +0.000 A 
ENDBRANCH  12  13
ENDBRANCH   4  12
TORSDOF 6
ENDMDL
MODEL 3
REMARK VINA RESULT:      -7.4      3.785      6.351
REMARK  Name = 
REMARK  7 active torsions:
REMARK  status: ('A' for Active; 'I' for Inactive)
REMARK    1  A    between atoms: C_1  and  C_2
REMARK    2  A    between atoms: C_2  and  C_3
REMARK    3  A    between atoms: C_3  and  C_4
REMARK    4  A    between atoms: C_4  and  O_5
REMARK    5  A    between atoms: O_5  and  C_6
REMARK    6  A    between atoms: C_9  and  C_10
REMARK    7  A    between atoms: C_10  and  N_11
REMARK                            x       y       z     vdW  Elec       q    Type
REMARK                         _______ _______ _______ _____ _____    ______ ____
ROOT
ATOM      1  C   UNL     1       1.006   9.554  19.450  0.00  0.00    +0.000 A 
ATOM      2  C   UNL     1       1.381   8.423  20.180  0.00  0.00    +0.000 A 
ATOM      3  C   UNL     1       2.242   7.466  19.627  0.00  0.00    +0.000 A 
ATOM      4  C   UNL     1       2.736   7.594  18.322  0.00  0.00    +0.000 A 
ATOM      5  C   UNL     1       2.318   8.706  17.572  0.00  0.00    +0.000 A 
ATOM      6  C   UNL     1       1.457   9.671  18.133  0.00  0.00    +0.000 A 
ENDROOT
BRANCH   1   7
ATOM      7  O   UNL     1       0.223  10.586  19.918  0.00  0.00    +0.000 OA
BRANCH   7   8
ATOM      8  C   UNL     1      -0.416  11.394  18.920  0.00  0.00    +0.000 C 
BRANCH   8   9
ATOM      9  C   UNL     1      -1.938  11.197  18.928  0.00  0.00    +0.000 C 
BRANCH   9  11
ATOM     10  C   UNL     1      -2.033  10.161  16.625  0.00  0.00    +0.000 C 
ATOM     11  C   UNL     1      -2.411  10.003  18.095  0.00  0.00    +0.000 C 
ENDBRANCH   9  11
ENDBRANCH   8   9
ENDBRANCH   7   8
ENDBRANCH   1   7
BRANCH   4  12
ATOM     12  C   UNL     1       3.845   6.678  17.846  0.00  0.00    +0.000 C 
BRANCH  12  13
ATOM     13  N   UNL     1       3.954   5.311  18.295  0.00  0.00    +0.000 N 
ATOM     14  C   UNL     1       5.100   4.906  18.979  0.00  0.00    +0.000 A 
ATOM     15  O   UNL     1       6.061   5.618  19.244  0.00  0.00    +0.000 OA
ATOM     16  O   UNL     1       5.021   3.579  19.394  0.00  0.00    +0.000 OA
ATOM     17  C   UNL     1       3.709   3.262  19.075  0.00  0.00    +0.000 A 
ATOM     18  C   UNL     1       3.133   2.047  19.376  0.00  0.00    +0.000 A 
ATOM     19  C   UNL     1       1.776   1.903  19.099  0.00  0.00    +0.000 A 
ATOM     20  C   UNL     1       1.051   2.973  18.532  0.00  0.00    +0.000 A 
ATOM     21  C   UNL     1       1.684   4.182  18.188  0.00  0.00    +0.000 A 
ATOM     22  C   UNL     1       3.027   4.307  18.463  0.00  0.00    +0.000 A 
ENDBRANCH  12  13
ENDBRANCH   4  12
TORSDOF 6
ENDMDL
MODEL 4
REMARK VINA RESULT:      -7.4      3.380      5.523
REMARK  Name = 
REMARK  7 active torsions:
REMARK  status: ('A' for Active; 'I' for Inactive)
REMARK    1  A    between atoms: C_1  and  C_2
REMARK    2  A    between atoms: C_2  and  C_3
REMARK    3  A    between atoms: C_3  and  C_4
REMARK    4  A    between atoms: C_4  and  O_5
REMARK    5  A    between atoms: O_5  and  C_6
REMARK    6  A    between atoms: C_9  and  C_10
REMARK    7  A    between atoms: C_10  and  N_11
REMARK                            x       y       z     vdW  Elec       q    Type
REMARK                         _______ _______ _______ _____ _____    ______ ____
ROOT
ATOM      1  C   UNL     1       6.408   5.310  15.407  0.00  0.00    +0.000 A 
ATOM      2  C   UNL     1       7.041   4.819  16.552  0.00  0.00    +0.000 A 
ATOM      3  C   UNL     1       6.528   5.090  17.827  0.00  0.00    +0.000 A 
ATOM      4  C   UNL     1       5.383   5.878  18.002  0.00  0.00    +0.000 A 
ATOM      5  C   UNL     1       4.777   6.412  16.853  0.00  0.00    +0.000 A 
ATOM      6  C   UNL     1       5.291   6.132  15.571  0.00  0.00    +0.000 A 
ENDROOT
BRANCH   1   7
ATOM      7  O   UNL     1       6.786   5.048  14.108  0.00  0.00    +0.000 OA
BRANCH   7   8
ATOM      8  C   UNL     1       6.555   3.711  13.643  0.00  0.00    +0.000 C 
BRANCH   8   9
ATOM      9  C   UNL     1       6.432   3.662  12.115  0.00  0.00    +0.000 C 
BRANCH   9  11
ATOM     10  C   UNL     1       6.369   1.336  11.128  0.00  0.00    +0.000 C 
ATOM     11  C   UNL     1       5.541   2.527  11.602  0.00  0.00    +0.000 C 
ENDBRANCH   9  11
ENDBRANCH   8   9
ENDBRANCH   7   8
ENDBRANCH   1   7
BRANCH   4  12
ATOM     12  C   UNL     1       4.722   5.950  19.363  0.00  0.00    +0.000 C 
BRANCH  12  13
ATOM     13  N   UNL     1       3.468   5.291  19.640  0.00  0.00    +0.000 N 
ATOM     14  C   UNL     1       2.362   6.055  20.011  0.00  0.00    +0.000 A 
ATOM     15  O   UNL     1       2.347   7.274  20.135  0.00  0.00    +0.000 OA
ATOM     16  O   UNL     1       1.220   5.276  20.183  0.00  0.00    +0.000 OA
ATOM     17  C   UNL     1       1.655   4.038  19.734  0.00  0.00    +0.000 A 
ATOM     18  C   UNL     1       0.830   2.938  19.643  0.00  0.00    +0.000 A 
ATOM     19  C   UNL     1       1.368   1.789  19.070  0.00  0.00    +0.000 A 
ATOM     20  C   UNL     1       2.704   1.780  18.617  0.00  0.00    +0.000 A 
ATOM     21  C   UNL     1       3.534   2.907  18.775  0.00  0.00    +0.000 A 
ATOM     22  C   UNL     1       2.990   4.033  19.348  0.00  0.00    +0.000 A 
ENDBRANCH  12  13
ENDBRANCH   4  12
TORSDOF 6
ENDMDL
MODEL 5
REMARK VINA RESULT:      -7.3      3.556      6.124
REMARK  Name = 
REMARK  7 active torsions:
REMARK  status: ('A' for Active; 'I' for Inactive)
REMARK    1  A    between atoms: C_1  and  C_2
REMARK    2  A    between atoms: C_2  and  C_3
REMARK    3  A    between atoms: C_3  and  C_4
REMARK    4  A    between atoms: C_4  and  O_5
REMARK    5  A    between atoms: O_5  and  C_6
REMARK    6  A    between atoms: C_9  and  C_10
REMARK    7  A    between atoms: C_10  and  N_11
REMARK                            x       y       z     vdW  Elec       q    Type
REMARK                         _______ _______ _______ _____ _____    ______ ____
ROOT
ATOM      1  C   UNL     1       0.994   9.387  19.337  0.00  0.00    +0.000 A 
ATOM      2  C   UNL     1       1.585   9.605  18.089  0.00  0.00    +0.000 A 
ATOM      3  C   UNL     1       2.535   8.710  17.579  0.00  0.00    +0.000 A 
ATOM      4  C   UNL     1       2.943   7.583  18.306  0.00  0.00    +0.000 A 
ATOM      5  C   UNL     1       2.384   7.393  19.581  0.00  0.00    +0.000 A 
ATOM      6  C   UNL     1       1.424   8.291  20.090  0.00  0.00    +0.000 A 
ENDROOT
BRANCH   1   7
ATOM      7  O   UNL     1       0.005  10.162  19.901  0.00  0.00    +0.000 OA
BRANCH   7   8
ATOM      8  C   UNL     1       0.388  10.936  21.046  0.00  0.00    +0.000 C 
BRANCH   8   9
ATOM      9  C   UNL     1      -0.837  11.412  21.838  0.00  0.00    +0.000 C 
BRANCH   9  11
ATOM     10  C   UNL     1      -0.065   9.506  23.306  0.00  0.00    +0.000 C 
ATOM     11  C   UNL     1      -1.070  10.641  23.140  0.00  0.00    +0.000 C 
ENDBRANCH   9  11
ENDBRANCH   8   9
ENDBRANCH   7   8
ENDBRANCH   1   7
BRANCH   4  12
ATOM     12  C   UNL     1       3.780   6.517  17.631  0.00  0.00    +0.000 C 
BRANCH  12  13
ATOM     13  N   UNL     1       3.905   5.186  18.173  0.00  0.00    +0.000 N 
ATOM     14  C   UNL     1       5.051   4.845  18.892  0.00  0.00    +0.000 A 
ATOM     15  O   UNL     1       6.000   5.588  19.114  0.00  0.00    +0.000 OA
ATOM     16  O   UNL     1       4.987   3.548  19.395  0.00  0.00    +0.000 OA
ATOM     17  C   UNL     1       3.683   3.191  19.088  0.00  0.00    +0.000 A 
ATOM     18  C   UNL     1       3.123   1.990  19.467  0.00  0.00    +0.000 A 
ATOM     19  C   UNL     1       1.770   1.808  19.191  0.00  0.00    +0.000 A 
ATOM     20  C   UNL     1       1.034   2.825  18.547  0.00  0.00    +0.000 A 
ATOM     21  C   UNL     1       1.653   4.018  18.127  0.00  0.00    +0.000 A 
ATOM     22  C   UNL     1       2.991   4.181  18.402  0.00  0.00    +0.000 A 
ENDBRANCH  12  13
ENDBRANCH   4  12
TORSDOF 6
ENDMDL
MODEL 6
REMARK VINA RESULT:      -7.3      3.403      5.799
REMARK  Name = 
REMARK  7 active torsions:
REMARK  status: ('A' for Active; 'I' for Inactive)
REMARK    1  A    between atoms: C_1  and  C_2
REMARK    2  A    between atoms: C_2  and  C_3
REMARK    3  A    between atoms: C_3  and  C_4
REMARK    4  A    between atoms: C_4  and  O_5
REMARK    5  A    between atoms: O_5  and  C_6
REMARK    6  A    between atoms: C_9  and  C_10
REMARK    7  A    between atoms: C_10  and  N_11
REMARK                            x       y       z     vdW  Elec       q    Type
REMARK                         _______ _______ _______ _____ _____    ______ ____
ROOT
ATOM      1  C   UNL     1       6.206   4.219  14.209  0.00  0.00    +0.000 A 
ATOM      2  C   UNL     1       5.238   3.599  15.005  0.00  0.00    +0.000 A 
ATOM      3  C   UNL     1       5.132   3.900  16.369  0.00  0.00    +0.000 A 
ATOM      4  C   UNL     1       6.000   4.809  16.988  0.00  0.00    +0.000 A 
ATOM      5  C   UNL     1       7.004   5.394  16.197  0.00  0.00    +0.000 A 
ATOM      6  C   UNL     1       7.105   5.094  14.823  0.00  0.00    +0.000 A 
ENDROOT
BRANCH   1   7
ATOM      7  O   UNL     1       6.354   4.049  12.851  0.00  0.00    +0.000 OA
BRANCH   7   8
ATOM      8  C   UNL     1       6.294   2.697  12.375  0.00  0.00    +0.000 C 
BRANCH   8   9
ATOM      9  C   UNL     1       5.245   2.538  11.267  0.00  0.00    +0.000 C 
BRANCH   9  11
ATOM     10  C   UNL     1       3.326   3.753  10.159  0.00  0.00    +0.000 C 
ATOM     11  C   UNL     1       3.983   3.376  11.484  0.00  0.00    +0.000 C 
ENDBRANCH   9  11
ENDBRANCH   8   9
ENDBRANCH   7   8
ENDBRANCH   1   7
BRANCH   4  12
ATOM     12  C   UNL     1       5.707   5.291  18.393  0.00  0.00    +0.000 C 
BRANCH  12  13
ATOM     13  N   UNL     1       4.361   5.378  18.906  0.00  0.00    +0.000 N 
ATOM     14  C   UNL     1       3.531   6.414  18.474  0.00  0.00    +0.000 A 
ATOM     15  O   UNL     1       3.843   7.291  17.678  0.00  0.00    +0.000 OA
ATOM     16  O   UNL     1       2.251   6.319  19.016  0.00  0.00    +0.000 OA
ATOM     17  C   UNL     1       2.306   5.090  19.655  0.00  0.00    +0.000 A 
ATOM     18  C   UNL     1       1.221   4.521  20.286  0.00  0.00    +0.000 A 
ATOM     19  C   UNL     1       1.385   3.233  20.790  0.00  0.00    +0.000 A 
ATOM     20  C   UNL     1       2.622   2.568  20.648  0.00  0.00    +0.000 A 
ATOM     21  C   UNL     1       3.725   3.202  20.044  0.00  0.00    +0.000 A 
ATOM     22  C   UNL     1       3.548   4.476  19.556  0.00  0.00    +0.000 A 
ENDBRANCH  12  13
ENDBRANCH   4  12
TORSDOF 6
ENDMDL
MODEL 7
REMARK VINA RESULT:      -7.3      3.764      6.681
REMARK  Name = 
REMARK  7 active torsions:
REMARK  status: ('A' for Active; 'I' for Inactive)
REMARK    1  A    between atoms: C_1  and  C_2
REMARK    2  A    between atoms: C_2  and  C_3
REMARK    3  A    between atoms: C_3  and  C_4
REMARK    4  A    between atoms: C_4  and  O_5
REMARK    5  A    between atoms: O_5  and  C_6
REMARK    6  A    between atoms: C_9  and  C_10
REMARK    7  A    between atoms: C_10  and  N_11
REMARK                            x       y       z     vdW  Elec       q    Type
REMARK                         _______ _______ _______ _____ _____    ______ ____
ROOT
ATOM      1  C   UNL     1       1.072   9.591  18.781  0.00  0.00    +0.000 A 
ATOM      2  C   UNL     1       1.853   8.952  17.815  0.00  0.00    +0.000 A 
ATOM      3  C   UNL     1       2.527   7.760  18.111  0.00  0.00    +0.000 A 
ATOM      4  C   UNL     1       2.462   7.180  19.385  0.00  0.00    +0.000 A 
ATOM      5  C   UNL     1       1.716   7.851  20.369  0.00  0.00    +0.000 A 
ATOM      6  C   UNL     1       1.034   9.047  20.067  0.00  0.00    +0.000 A 
ENDROOT
BRANCH   1   7
ATOM      7  O   UNL     1       0.317  10.725  18.579  0.00  0.00    +0.000 OA
BRANCH   7   8
ATOM      8  C   UNL     1      -0.994  10.721  19.163  0.00  0.00    +0.000 C 
BRANCH   8   9
ATOM      9  C   UNL     1      -2.082  10.926  18.101  0.00  0.00    +0.000 C 
BRANCH   9  11
ATOM     10  C   UNL     1      -2.686  10.439  15.696  0.00  0.00    +0.000 C 
ATOM     11  C   UNL     1      -2.047   9.895  16.970  0.00  0.00    +0.000 C 
ENDBRANCH   9  11
ENDBRANCH   8   9
ENDBRANCH   7   8
ENDBRANCH   1   7
BRANCH   4  12
ATOM     12  C   UNL     1       2.997   5.780  19.601  0.00  0.00    +0.000 C 
BRANCH  12  13
ATOM     13  N   UNL     1       3.598   5.018  18.534  0.00  0.00    +0.000 N 
ATOM     14  C   UNL     1       2.788   4.223  17.722  0.00  0.00    +0.000 A 
ATOM     15  O   UNL     1       1.574   4.098  17.830  0.00  0.00    +0.000 OA
ATOM     16  O   UNL     1       3.513   3.603  16.706  0.00  0.00    +0.000 OA
ATOM     17  C   UNL     1       4.758   4.197  16.847  0.00  0.00    +0.000 A 
ATOM     18  C   UNL     1       5.811   3.948  15.993  0.00  0.00    +0.000 A 
ATOM     19  C   UNL     1       6.970   4.697  16.182  0.00  0.00    +0.000 A 
ATOM     20  C   UNL     1       7.034   5.657  17.214  0.00  0.00    +0.000 A 
ATOM     21  C   UNL     1       5.957   5.846  18.101  0.00  0.00    +0.000 A 
ATOM     22  C   UNL     1       4.821   5.095  17.905  0.00  0.00    +0.000 A 
ENDBRANCH  12  13
ENDBRANCH   4  12
TORSDOF 6
ENDMDL
MODEL 8
REMARK VINA RESULT:      -7.2      3.783      6.240
REMARK  Name = 
REMARK  7 active torsions:
REMARK  status: ('A' for Active; 'I' for Inactive)
REMARK    1  A    between atoms: C_1  and  C_2
REMARK    2  A    between atoms: C_2  and  C_3
REMARK    3  A    between atoms: C_3  and  C_4
REMARK    4  A    between atoms: C_4  and  O_5
REMARK    5  A    between atoms: O_5  and  C_6
REMARK    6  A    between atoms: C_9  and  C_10
REMARK    7  A    between atoms: C_10  and  N_11
REMARK                            x       y       z     vdW  Elec       q    Type
REMARK                         _______ _______ _______ _____ _____    ______ ____
ROOT
ATOM      1  C   UNL     1       0.950   9.357  19.389  0.00  0.00    +0.000 A 
ATOM      2  C   UNL     1       1.519   9.579  18.132  0.00  0.00    +0.000 A 
ATOM      3  C   UNL     1       2.484   8.702  17.617  0.00  0.00    +0.000 A 
ATOM      4  C   UNL     1       2.928   7.593  18.349  0.00  0.00    +0.000 A 
ATOM      5  C   UNL     1       2.391   7.401  19.632  0.00  0.00    +0.000 A 
ATOM      6  C   UNL     1       1.416   8.280  20.145  0.00  0.00    +0.000 A 
ENDROOT
BRANCH   1   7
ATOM      7  O   UNL     1      -0.051  10.113  19.959  0.00  0.00    +0.000 OA
BRANCH   7   8
ATOM      8  C   UNL     1      -0.374  11.338  19.287  0.00  0.00    +0.000 C 
BRANCH   8   9
ATOM      9  C   UNL     1      -1.884  11.464  19.042  0.00  0.00    +0.000 C 
BRANCH   9  11
ATOM     10  C   UNL     1      -1.991   9.928  17.039  0.00  0.00    +0.000 C 
ATOM     11  C   UNL     1      -2.286  11.327  17.572  0.00  0.00    +0.000 C 
ENDBRANCH   9  11
ENDBRANCH   8   9
ENDBRANCH   7   8
ENDBRANCH   1   7
BRANCH   4  12
ATOM     12  C   UNL     1       3.783   6.541  17.672  0.00  0.00    +0.000 C 
BRANCH  12  13
ATOM     13  N   UNL     1       3.909   5.204  18.198  0.00  0.00    +0.000 N 
ATOM     14  C   UNL     1       5.053   4.856  18.916  0.00  0.00    +0.000 A 
ATOM     15  O   UNL     1       6.000   5.598  19.150  0.00  0.00    +0.000 OA
ATOM     16  O   UNL     1       4.990   3.552  19.403  0.00  0.00    +0.000 OA
ATOM     17  C   UNL     1       3.688   3.197  19.088  0.00  0.00    +0.000 A 
ATOM     18  C   UNL     1       3.128   1.991  19.450  0.00  0.00    +0.000 A 
ATOM     19  C   UNL     1       1.776   1.810  19.167  0.00  0.00    +0.000 A 
ATOM     20  C   UNL     1       1.040   2.834  18.534  0.00  0.00    +0.000 A 
ATOM     21  C   UNL     1       1.659   4.033  18.130  0.00  0.00    +0.000 A 
ATOM     22  C   UNL     1       2.996   4.195  18.411  0.00  0.00    +0.000 A 
ENDBRANCH  12  13
ENDBRANCH   4  12
TORSDOF 6
ENDMDL
MODEL 9
REMARK VINA RESULT:      -7.2      3.678      6.664
REMARK  Name = 
REMARK  7 active torsions:
REMARK  status: ('A' for Active; 'I' for Inactive)
REMARK    1  A    between atoms: C_1  and  C_2
REMARK    2  A    between atoms: C_2  and  C_3
REMARK    3  A    between atoms: C_3  and  C_4
REMARK    4  A    between atoms: C_4  and  O_5
REMARK    5  A    between atoms: O_5  and  C_6
REMARK    6  A    between atoms: C_9  and  C_10
REMARK    7  A    between atoms: C_10  and  N_11
REMARK                            x       y       z     vdW  Elec       q    Type
REMARK                         _______ _______ _______ _____ _____    ______ ____
ROOT
ATOM      1  C   UNL     1       1.184   9.773  18.928  0.00  0.00    +0.000 A 
ATOM      2  C   UNL     1       1.087   9.083  20.140  0.00  0.00    +0.000 A 
ATOM      3  C   UNL     1       1.685   7.826  20.300  0.00  0.00    +0.000 A 
ATOM      4  C   UNL     1       2.378   7.207  19.251  0.00  0.00    +0.000 A 
ATOM      5  C   UNL     1       2.432   7.880  18.019  0.00  0.00    +0.000 A 
ATOM      6  C   UNL     1       1.835   9.147  17.862  0.00  0.00    +0.000 A 
ENDROOT
BRANCH   1   7
ATOM      7  O   UNL     1       0.694  11.037  18.685  0.00  0.00    +0.000 OA
BRANCH   7   8
ATOM      8  C   UNL     1      -0.483  11.407  19.416  0.00  0.00    +0.000 C 
BRANCH   8   9
ATOM      9  C   UNL     1      -1.703  11.524  18.493  0.00  0.00    +0.000 C 
BRANCH   9  11
ATOM     10  C   UNL     1      -2.191   9.951  16.577  0.00  0.00    +0.000 C 
ATOM     11  C   UNL     1      -2.300  10.176  18.082  0.00  0.00    +0.000 C 
ENDBRANCH   9  11
ENDBRANCH   8   9
ENDBRANCH   7   8
ENDBRANCH   1   7
BRANCH   4  12
ATOM     12  C   UNL     1       3.211   5.973  19.527  0.00  0.00    +0.000 C 
BRANCH  12  13
ATOM     13  N   UNL     1       3.740   5.154  18.463  0.00  0.00    +0.000 N 
ATOM     14  C   UNL     1       2.901   4.245  17.819  0.00  0.00    +0.000 A 
ATOM     15  O   UNL     1       1.717   4.061  18.077  0.00  0.00    +0.000 OA
ATOM     16  O   UNL     1       3.549   3.579  16.781  0.00  0.00    +0.000 OA
ATOM     17  C   UNL     1       4.759   4.252  16.727  0.00  0.00    +0.000 A 
ATOM     18  C   UNL     1       5.726   3.989  15.781  0.00  0.00    +0.000 A 
ATOM     19  C   UNL     1       6.846   4.816  15.772  0.00  0.00    +0.000 A 
ATOM     20  C   UNL     1       6.959   5.867  16.707  0.00  0.00    +0.000 A 
ATOM     21  C   UNL     1       5.977   6.073  17.694  0.00  0.00    +0.000 A 
ATOM     22  C   UNL     1       4.878   5.244  17.693  0.00  0.00    +0.000 A 
ENDBRANCH  12  13
ENDBRANCH   4  12
TORSDOF 6
ENDMDL
