MODEL 1
REMARK VINA RESULT:      -8.0      0.000      0.000
REMARK  Name = 
REMARK  8 active torsions:
REMARK  status: ('A' for Active; 'I' for Inactive)
REMARK    1  A    between atoms: C_1  and  C_2
REMARK    2  A    between atoms: C_2  and  S_3
REMARK    3  A    between atoms: S_3  and  C_6
REMARK    4  A    between atoms: C_6  and  C_7
REMARK    5  A    between atoms: C_10  and  O_11
REMARK    6  A    between atoms: O_11  and  C_12
REMARK    7  A    between atoms: C_20  and  C_21
REMARK    8  A    between atoms: C_23  and  C_24
REMARK                            x       y       z     vdW  Elec       q    Type
REMARK                         _______ _______ _______ _____ _____    ______ ____
ROOT
ATOM      1  C   UNL     1       1.625   9.026  18.673  0.00  0.00    +0.000 A 
ATOM      2  C   UNL     1       1.213   8.474  19.885  0.00  0.00    +0.000 A 
ATOM      3  C   UNL     1       1.855   7.358  20.404  0.00  0.00    +0.000 A 
ATOM      4  C   UNL     1       2.830   6.677  19.658  0.00  0.00    +0.000 A 
ATOM      5  C   UNL     1       3.337   7.247  18.472  0.00  0.00    +0.000 A 
ATOM      6  C   UNL     1       2.712   8.430  18.005  0.00  0.00    +0.000 A 
ENDROOT
BRANCH   5   7
ATOM      7  C   UNL     1       4.385   6.629  17.611  0.00  0.00    +0.000 A 
ATOM      8  C   UNL     1       4.324   6.436  16.233  0.00  0.00    +0.000 A 
ATOM      9  C   UNL     1       5.421   5.646  15.811  0.00  0.00    +0.000 A 
ATOM     10  C   UNL     1       5.669   5.138  14.435  0.00  0.00    +0.000 C 
ATOM     11  C   UNL     1       6.188   5.429  16.939  0.00  0.00    +0.000 A 
ATOM     12  C   UNL     1       7.409   4.667  17.114  0.00  0.00    +0.000 A 
ATOM     13  O   UNL     1       7.966   4.014  16.236  0.00  0.00    +0.000 OA
ATOM     14  N   UNL     1       7.942   4.717  18.393  0.00  0.00    +0.000 N 
ATOM     15  C   UNL     1       7.422   5.468  19.417  0.00  0.00    +0.000 A 
ATOM     16  C   UNL     1       6.297   6.174  19.229  0.00  0.00    +0.000 A 
ATOM     17  N   UNL     1       5.622   6.112  18.009  0.00  0.00    +0.000 N 
ATOM     18  H   UNL     1       8.787   4.174  18.527  0.00  0.00    +0.000 HD
ENDBRANCH   5   7
BRANCH   1  19
ATOM     19  C   UNL     1       0.880  10.188  18.068  0.00  0.00    +0.000 C 
BRANCH  19  20
ATOM     20  S   UNL     1       1.388  11.725  18.851  0.00  0.00    +0.000 S 
ATOM     21  O   UNL     1       2.596  12.193  18.194  0.00  0.00    +0.000 OA
ATOM     22  O   UNL     1       1.326  11.575  20.290  0.00  0.00    +0.000 OA
BRANCH  20  24
ATOM     23  C   UNL     1      -1.267  12.286  18.851  0.00  0.00    +0.000 C 
ATOM     24  C   UNL     1       0.074  12.839  18.406  0.00  0.00    +0.000 C 
ENDBRANCH  20  24
ENDBRANCH  19  20
ENDBRANCH   1  19
BRANCH   4  25
ATOM     25  O   UNL     1       3.278   5.430  20.063  0.00  0.00    +0.000 OA
BRANCH  25  26
ATOM     26  C   UNL     1       2.589   4.307  19.656  0.00  0.00    +0.000 A 
ATOM     27  C   UNL     1       1.261   4.192  20.076  0.00  0.00    +0.000 A 
ATOM     28  C   UNL     1       0.494   3.104  19.650  0.00  0.00    +0.000 A 
ATOM     29  C   UNL     1       1.060   2.147  18.811  0.00  0.00    +0.000 A 
ATOM     30  F   UNL     1       0.311   1.125  18.378  0.00  0.00    +0.000 F 
ATOM     31  C   UNL     1       2.387   2.232  18.417  0.00  0.00    +0.000 A 
ATOM     32  C   UNL     1       3.156   3.295  18.871  0.00  0.00    +0.000 A 
ATOM     33  F   UNL     1       4.443   3.352  18.501  0.00  0.00    +0.000 F 
ENDBRANCH  25  26
ENDBRANCH   4  25
TORSDOF 6
ENDMDL
MODEL 2
REMARK VINA RESULT:      -7.8      4.699      8.916
REMARK  Name = 
REMARK  8 active torsions:
REMARK  status: ('A' for Active; 'I' for Inactive)
REMARK    1  A    between atoms: C_1  and  C_2
REMARK    2  A    between atoms: C_2  and  S_3
REMARK    3  A    between atoms: S_3  and  C_6
REMARK    4  A    between atoms: C_6  and  C_7
REMARK    5  A    between atoms: C_10  and  O_11
REMARK    6  A    between atoms: O_11  and  C_12
REMARK    7  A    between atoms: C_20  and  C_21
REMARK    8  A    between atoms: C_23  and  C_24
REMARK                            x       y       z     vdW  Elec       q    Type
REMARK                         _______ _______ _______ _____ _____    ______ ____
ROOT
ATOM      1  C   UNL     1       2.039   7.443  19.645  0.00  0.00    +0.000 A 
ATOM      2  C   UNL     1       2.106   7.700  18.277  0.00  0.00    +0.000 A 
ATOM      3  C   UNL     1       1.667   8.914  17.767  0.00  0.00    +0.000 A 
ATOM      4  C   UNL     1       1.017   9.848  18.590  0.00  0.00    +0.000 A 
ATOM      5  C   UNL     1       1.005   9.667  19.989  0.00  0.00    +0.000 A 
ATOM      6  C   UNL     1       1.531   8.449  20.489  0.00  0.00    +0.000 A 
ENDROOT
BRANCH   5   7
ATOM      7  C   UNL     1       0.368  10.600  20.962  0.00  0.00    +0.000 A 
ATOM      8  C   UNL     1      -0.682  10.307  21.830  0.00  0.00    +0.000 A 
ATOM      9  C   UNL     1      -1.136  11.497  22.450  0.00  0.00    +0.000 A 
ATOM     10  C   UNL     1      -2.299  11.629  23.369  0.00  0.00    +0.000 C 
ATOM     11  C   UNL     1      -0.296  12.500  22.006  0.00  0.00    +0.000 A 
ATOM     12  C   UNL     1      -0.300  13.922  22.285  0.00  0.00    +0.000 A 
ATOM     13  O   UNL     1      -1.135  14.505  22.972  0.00  0.00    +0.000 OA
ATOM     14  N   UNL     1       0.743  14.627  21.705  0.00  0.00    +0.000 N 
ATOM     15  C   UNL     1       1.753  14.051  20.975  0.00  0.00    +0.000 A 
ATOM     16  C   UNL     1       1.742  12.731  20.739  0.00  0.00    +0.000 A 
ATOM     17  N   UNL     1       0.681  11.943  21.190  0.00  0.00    +0.000 N 
ATOM     18  H   UNL     1       0.738  15.625  21.883  0.00  0.00    +0.000 HD
ENDBRANCH   5   7
BRANCH   1  19
ATOM     19  C   UNL     1       2.440   6.097  20.192  0.00  0.00    +0.000 C 
BRANCH  19  20
ATOM     20  S   UNL     1       2.661   4.923  18.847  0.00  0.00    +0.000 S 
ATOM     21  O   UNL     1       4.042   4.995  18.402  0.00  0.00    +0.000 OA
ATOM     22  O   UNL     1       1.563   5.051  17.913  0.00  0.00    +0.000 OA
BRANCH  20  24
ATOM     23  C   UNL     1       1.271   3.411  20.621  0.00  0.00    +0.000 C 
ATOM     24  C   UNL     1       2.445   3.356  19.662  0.00  0.00    +0.000 C 
ENDBRANCH  20  24
ENDBRANCH  19  20
ENDBRANCH   1  19
BRANCH   4  25
ATOM     25  O   UNL     1       0.357  10.932  18.036  0.00  0.00    +0.000 OA
BRANCH  25  26
ATOM     26  C   UNL     1      -1.020  10.918  17.976  0.00  0.00    +0.000 A 
ATOM     27  C   UNL     1      -1.616   9.816  17.357  0.00  0.00    +0.000 A 
ATOM     28  C   UNL     1      -3.010   9.717  17.315  0.00  0.00    +0.000 A 
ATOM     29  C   UNL     1      -3.790  10.717  17.892  0.00  0.00    +0.000 A 
ATOM     30  F   UNL     1      -5.124  10.601  17.879  0.00  0.00    +0.000 F 
ATOM     31  C   UNL     1      -3.210  11.833  18.477  0.00  0.00    +0.000 A 
ATOM     32  C   UNL     1      -1.826  11.945  18.485  0.00  0.00    +0.000 A 
ATOM     33  F   UNL     1      -1.280  13.039  19.033  0.00  0.00    +0.000 F 
ENDBRANCH  25  26
ENDBRANCH   4  25
TORSDOF 6
ENDMDL
MODEL 3
REMARK VINA RESULT:      -7.6      5.090      8.625
REMARK  Name = 
REMARK  8 active torsions:
REMARK  status: ('A' for Active; 'I' for Inactive)
REMARK    1  A    between atoms: C_1  and  C_2
REMARK    2  A    between atoms: C_2  and  S_3
REMARK    3  A    between atoms: S_3  and  C_6
REMARK    4  A    between atoms: C_6  and  C_7
REMARK    5  A    between atoms: C_10  and  O_11
REMARK    6  A    between atoms: O_11  and  C_12
REMARK    7  A    between atoms: C_20  and  C_21
REMARK    8  A    between atoms: C_23  and  C_24
REMARK                            x       y       z     vdW  Elec       q    Type
REMARK                         _______ _______ _______ _____ _____    ______ ____
ROOT
ATOM      1  C   UNL     1       1.102  14.673  19.245  0.00  0.00    +0.000 A 
ATOM      2  C   UNL     1       2.006  13.926  19.997  0.00  0.00    +0.000 A 
ATOM      3  C   UNL     1       1.787  12.574  20.221  0.00  0.00    +0.000 A 
ATOM      4  C   UNL     1       0.587  11.963  19.822  0.00  0.00    +0.000 A 
ATOM      5  C   UNL     1      -0.313  12.657  18.986  0.00  0.00    +0.000 A 
ATOM      6  C   UNL     1      -0.024  14.017  18.712  0.00  0.00    +0.000 A 
ENDROOT
BRANCH   5   7
ATOM      7  C   UNL     1      -1.603  12.105  18.482  0.00  0.00    +0.000 A 
ATOM      8  C   UNL     1      -1.804  11.419  17.286  0.00  0.00    +0.000 A 
ATOM      9  C   UNL     1      -3.191  11.231  17.071  0.00  0.00    +0.000 A 
ATOM     10  C   UNL     1      -3.826  10.628  15.867  0.00  0.00    +0.000 C 
ATOM     11  C   UNL     1      -3.822  11.741  18.188  0.00  0.00    +0.000 A 
ATOM     12  C   UNL     1      -5.232  11.845  18.508  0.00  0.00    +0.000 A 
ATOM     13  O   UNL     1      -6.151  11.514  17.764  0.00  0.00    +0.000 OA
ATOM     14  N   UNL     1      -5.503  12.368  19.763  0.00  0.00    +0.000 N 
ATOM     15  C   UNL     1      -4.541  12.707  20.682  0.00  0.00    +0.000 A 
ATOM     16  C   UNL     1      -3.242  12.592  20.368  0.00  0.00    +0.000 A 
ATOM     17  N   UNL     1      -2.859  12.174  19.092  0.00  0.00    +0.000 N 
ATOM     18  H   UNL     1      -6.487  12.458  19.987  0.00  0.00    +0.000 HD
ENDBRANCH   5   7
BRANCH   1  19
ATOM     19  C   UNL     1       1.295  16.157  19.068  0.00  0.00    +0.000 C 
BRANCH  19  20
ATOM     20  S   UNL     1       2.733  16.476  18.035  0.00  0.00    +0.000 S 
ATOM     21  O   UNL     1       2.490  17.693  17.281  0.00  0.00    +0.000 OA
ATOM     22  O   UNL     1       3.131  15.251  17.375  0.00  0.00    +0.000 OA
BRANCH  20  24
ATOM     23  C   UNL     1       5.209  15.949  19.010  0.00  0.00    +0.000 C 
ATOM     24  C   UNL     1       3.998  16.835  19.233  0.00  0.00    +0.000 C 
ENDBRANCH  20  24
ENDBRANCH  19  20
ENDBRANCH   1  19
BRANCH   4  25
ATOM     25  O   UNL     1       0.264  10.693  20.270  0.00  0.00    +0.000 OA
BRANCH  25  26
ATOM     26  C   UNL     1       0.941   9.609  19.753  0.00  0.00    +0.000 A 
ATOM     27  C   UNL     1       1.235   9.637  18.387  0.00  0.00    +0.000 A 
ATOM     28  C   UNL     1       1.968   8.593  17.816  0.00  0.00    +0.000 A 
ATOM     29  C   UNL     1       2.399   7.536  18.614  0.00  0.00    +0.000 A 
ATOM     30  F   UNL     1       3.130   6.555  18.069  0.00  0.00    +0.000 F 
ATOM     31  C   UNL     1       2.082   7.479  19.963  0.00  0.00    +0.000 A 
ATOM     32  C   UNL     1       1.323   8.500  20.519  0.00  0.00    +0.000 A 
ATOM     33  F   UNL     1       1.006   8.420  21.819  0.00  0.00    +0.000 F 
ENDBRANCH  25  26
ENDBRANCH   4  25
TORSDOF 6
ENDMDL
MODEL 4
REMARK VINA RESULT:      -7.6      1.021      1.280
REMARK  Name = 
REMARK  8 active torsions:
REMARK  status: ('A' for Active; 'I' for Inactive)
REMARK    1  A    between atoms: C_1  and  C_2
REMARK    2  A    between atoms: C_2  and  S_3
REMARK    3  A    between atoms: S_3  and  C_6
REMARK    4  A    between atoms: C_6  and  C_7
REMARK    5  A    between atoms: C_10  and  O_11
REMARK    6  A    between atoms: O_11  and  C_12
REMARK    7  A    between atoms: C_20  and  C_21
REMARK    8  A    between atoms: C_23  and  C_24
REMARK                            x       y       z     vdW  Elec       q    Type
REMARK                         _______ _______ _______ _____ _____    ______ ____
ROOT
ATOM      1  C   UNL     1       1.611   9.202  18.608  0.00  0.00    +0.000 A 
ATOM      2  C   UNL     1       1.187   8.666  19.822  0.00  0.00    +0.000 A 
ATOM      3  C   UNL     1       1.814   7.549  20.355  0.00  0.00    +0.000 A 
ATOM      4  C   UNL     1       2.788   6.852  19.623  0.00  0.00    +0.000 A 
ATOM      5  C   UNL     1       3.307   7.405  18.434  0.00  0.00    +0.000 A 
ATOM      6  C   UNL     1       2.697   8.590  17.952  0.00  0.00    +0.000 A 
ENDROOT
BRANCH   5   7
ATOM      7  C   UNL     1       4.356   6.770  17.586  0.00  0.00    +0.000 A 
ATOM      8  C   UNL     1       4.325   6.614  16.202  0.00  0.00    +0.000 A 
ATOM      9  C   UNL     1       5.403   5.793  15.790  0.00  0.00    +0.000 A 
ATOM     10  C   UNL     1       5.670   5.310  14.408  0.00  0.00    +0.000 C 
ATOM     11  C   UNL     1       6.130   5.518  16.931  0.00  0.00    +0.000 A 
ATOM     12  C   UNL     1       7.316   4.707  17.120  0.00  0.00    +0.000 A 
ATOM     13  O   UNL     1       7.872   4.055  16.240  0.00  0.00    +0.000 OA
ATOM     14  N   UNL     1       7.815   4.704  18.413  0.00  0.00    +0.000 N 
ATOM     15  C   UNL     1       7.295   5.449  19.442  0.00  0.00    +0.000 A 
ATOM     16  C   UNL     1       6.203   6.202  19.242  0.00  0.00    +0.000 A 
ATOM     17  N   UNL     1       5.560   6.196  18.003  0.00  0.00    +0.000 N 
ATOM     18  H   UNL     1       8.635   4.126  18.555  0.00  0.00    +0.000 HD
ENDBRANCH   5   7
BRANCH   1  19
ATOM     19  C   UNL     1       0.881  10.365  17.987  0.00  0.00    +0.000 C 
BRANCH  19  20
ATOM     20  S   UNL     1       0.349  11.515  19.263  0.00  0.00    +0.000 S 
ATOM     21  O   UNL     1       1.513  11.904  20.039  0.00  0.00    +0.000 OA
ATOM     22  O   UNL     1      -0.844  11.003  19.904  0.00  0.00    +0.000 OA
BRANCH  20  24
ATOM     23  C   UNL     1       0.489  14.195  18.858  0.00  0.00    +0.000 C 
ATOM     24  C   UNL     1      -0.160  12.934  18.318  0.00  0.00    +0.000 C 
ENDBRANCH  20  24
ENDBRANCH  19  20
ENDBRANCH   1  19
BRANCH   4  25
ATOM     25  O   UNL     1       3.221   5.604  20.042  0.00  0.00    +0.000 OA
BRANCH  25  26
ATOM     26  C   UNL     1       2.448   4.498  19.762  0.00  0.00    +0.000 A 
ATOM     27  C   UNL     1       2.080   4.304  18.427  0.00  0.00    +0.000 A 
ATOM     28  C   UNL     1       1.343   3.171  18.072  0.00  0.00    +0.000 A 
ATOM     29  C   UNL     1       0.984   2.246  19.050  0.00  0.00    +0.000 A 
ATOM     30  F   UNL     1       0.308   1.145  18.699  0.00  0.00    +0.000 F 
ATOM     31  C   UNL     1       1.313   2.446  20.383  0.00  0.00    +0.000 A 
ATOM     32  C   UNL     1       2.014   3.592  20.737  0.00  0.00    +0.000 A 
ATOM     33  F   UNL     1       2.305   3.783  22.031  0.00  0.00    +0.000 F 
ENDBRANCH  25  26
ENDBRANCH   4  25
TORSDOF 6
ENDMDL
MODEL 5
REMARK VINA RESULT:      -7.5      1.079      1.095
REMARK  Name = 
REMARK  8 active torsions:
REMARK  status: ('A' for Active; 'I' for Inactive)
REMARK    1  A    between atoms: C_1  and  C_2
REMARK    2  A    between atoms: C_2  and  S_3
REMARK    3  A    between atoms: S_3  and  C_6
REMARK    4  A    between atoms: C_6  and  C_7
REMARK    5  A    between atoms: C_10  and  O_11
REMARK    6  A    between atoms: O_11  and  C_12
REMARK    7  A    between atoms: C_20  and  C_21
REMARK    8  A    between atoms: C_23  and  C_24
REMARK                            x       y       z     vdW  Elec       q    Type
REMARK                         _______ _______ _______ _____ _____    ______ ____
ROOT
ATOM      1  C   UNL     1       1.413   9.014  18.881  0.00  0.00    +0.000 A 
ATOM      2  C   UNL     1       1.148   8.612  20.188  0.00  0.00    +0.000 A 
ATOM      3  C   UNL     1       1.820   7.530  20.742  0.00  0.00    +0.000 A 
ATOM      4  C   UNL     1       2.667   6.732  19.958  0.00  0.00    +0.000 A 
ATOM      5  C   UNL     1       3.029   7.150  18.660  0.00  0.00    +0.000 A 
ATOM      6  C   UNL     1       2.383   8.303  18.149  0.00  0.00    +0.000 A 
ENDROOT
BRANCH   5   7
ATOM      7  C   UNL     1       3.936   6.399  17.746  0.00  0.00    +0.000 A 
ATOM      8  C   UNL     1       3.631   5.236  17.041  0.00  0.00    +0.000 A 
ATOM      9  C   UNL     1       4.806   4.719  16.442  0.00  0.00    +0.000 A 
ATOM     10  C   UNL     1       4.924   3.443  15.684  0.00  0.00    +0.000 C 
ATOM     11  C   UNL     1       5.808   5.624  16.727  0.00  0.00    +0.000 A 
ATOM     12  C   UNL     1       7.219   5.602  16.395  0.00  0.00    +0.000 A 
ATOM     13  O   UNL     1       7.791   4.689  15.806  0.00  0.00    +0.000 OA
ATOM     14  N   UNL     1       7.926   6.723  16.800  0.00  0.00    +0.000 N 
ATOM     15  C   UNL     1       7.358   7.815  17.409  0.00  0.00    +0.000 A 
ATOM     16  C   UNL     1       6.048   7.819  17.696  0.00  0.00    +0.000 A 
ATOM     17  N   UNL     1       5.264   6.696  17.425  0.00  0.00    +0.000 N 
ATOM     18  H   UNL     1       8.916   6.708  16.585  0.00  0.00    +0.000 HD
ENDBRANCH   5   7
BRANCH   1  19
ATOM     19  C   UNL     1       0.629  10.137  18.251  0.00  0.00    +0.000 C 
BRANCH  19  20
ATOM     20  S   UNL     1       1.208  11.722  18.873  0.00  0.00    +0.000 S 
ATOM     21  O   UNL     1       2.407  12.087  18.138  0.00  0.00    +0.000 OA
ATOM     22  O   UNL     1       1.190  11.705  20.320  0.00  0.00    +0.000 OA
BRANCH  20  24
ATOM     23  C   UNL     1      -1.086  13.032  19.491  0.00  0.00    +0.000 C 
ATOM     24  C   UNL     1      -0.087  12.832  18.367  0.00  0.00    +0.000 C 
ENDBRANCH  20  24
ENDBRANCH  19  20
ENDBRANCH   1  19
BRANCH   4  25
ATOM     25  O   UNL     1       3.128   5.516  20.437  0.00  0.00    +0.000 OA
BRANCH  25  26
ATOM     26  C   UNL     1       2.521   4.355  20.009  0.00  0.00    +0.000 A 
ATOM     27  C   UNL     1       1.124   4.315  20.058  0.00  0.00    +0.000 A 
ATOM     28  C   UNL     1       0.449   3.186  19.586  0.00  0.00    +0.000 A 
ATOM     29  C   UNL     1       1.174   2.114  19.070  0.00  0.00    +0.000 A 
ATOM     30  F   UNL     1       0.520   1.049  18.587  0.00  0.00    +0.000 F 
ATOM     31  C   UNL     1       2.560   2.128  19.049  0.00  0.00    +0.000 A 
ATOM     32  C   UNL     1       3.229   3.236  19.553  0.00  0.00    +0.000 A 
ATOM     33  F   UNL     1       4.569   3.226  19.547  0.00  0.00    +0.000 F 
ENDBRANCH  25  26
ENDBRANCH   4  25
TORSDOF 6
ENDMDL
MODEL 6
REMARK VINA RESULT:      -7.5      5.075      8.568
REMARK  Name = 
REMARK  8 active torsions:
REMARK  status: ('A' for Active; 'I' for Inactive)
REMARK    1  A    between atoms: C_1  and  C_2
REMARK    2  A    between atoms: C_2  and  S_3
REMARK    3  A    between atoms: S_3  and  C_6
REMARK    4  A    between atoms: C_6  and  C_7
REMARK    5  A    between atoms: C_10  and  O_11
REMARK    6  A    between atoms: O_11  and  C_12
REMARK    7  A    between atoms: C_20  and  C_21
REMARK    8  A    between atoms: C_23  and  C_24
REMARK                            x       y       z     vdW  Elec       q    Type
REMARK                         _______ _______ _______ _____ _____    ______ ____
ROOT
ATOM      1  C   UNL     1       1.063  14.587  19.097  0.00  0.00    +0.000 A 
ATOM      2  C   UNL     1       1.974  13.844  19.845  0.00  0.00    +0.000 A 
ATOM      3  C   UNL     1       1.757  12.494  20.080  0.00  0.00    +0.000 A 
ATOM      4  C   UNL     1       0.553  11.881  19.697  0.00  0.00    +0.000 A 
ATOM      5  C   UNL     1      -0.355  12.569  18.865  0.00  0.00    +0.000 A 
ATOM      6  C   UNL     1      -0.069  13.927  18.579  0.00  0.00    +0.000 A 
ENDROOT
BRANCH   5   7
ATOM      7  C   UNL     1      -1.650  12.015  18.378  0.00  0.00    +0.000 A 
ATOM      8  C   UNL     1      -1.859  11.302  17.199  0.00  0.00    +0.000 A 
ATOM      9  C   UNL     1      -3.248  11.119  16.991  0.00  0.00    +0.000 A 
ATOM     10  C   UNL     1      -3.890  10.492  15.804  0.00  0.00    +0.000 C 
ATOM     11  C   UNL     1      -3.872  11.660  18.097  0.00  0.00    +0.000 A 
ATOM     12  C   UNL     1      -5.281  11.781  18.418  0.00  0.00    +0.000 A 
ATOM     13  O   UNL     1      -6.204  11.438  17.684  0.00  0.00    +0.000 OA
ATOM     14  N   UNL     1      -5.545  12.335  19.661  0.00  0.00    +0.000 N 
ATOM     15  C   UNL     1      -4.578  12.689  20.569  0.00  0.00    +0.000 A 
ATOM     16  C   UNL     1      -3.280  12.558  20.255  0.00  0.00    +0.000 A 
ATOM     17  N   UNL     1      -2.904  12.107  18.989  0.00  0.00    +0.000 N 
ATOM     18  H   UNL     1      -6.528  12.437  19.885  0.00  0.00    +0.000 HD
ENDBRANCH   5   7
BRANCH   1  19
ATOM     19  C   UNL     1       1.255  16.070  18.908  0.00  0.00    +0.000 C 
BRANCH  19  20
ATOM     20  S   UNL     1       0.439  16.974  20.232  0.00  0.00    +0.000 S 
ATOM     21  O   UNL     1       1.378  17.945  20.765  0.00  0.00    +0.000 OA
ATOM     22  O   UNL     1      -0.249  16.041  21.098  0.00  0.00    +0.000 OA
BRANCH  20  24
ATOM     23  C   UNL     1      -0.720  17.635  17.869  0.00  0.00    +0.000 C 
ATOM     24  C   UNL     1      -0.824  17.876  19.363  0.00  0.00    +0.000 C 
ENDBRANCH  20  24
ENDBRANCH  19  20
ENDBRANCH   1  19
BRANCH   4  25
ATOM     25  O   UNL     1       0.234  10.614  20.156  0.00  0.00    +0.000 OA
BRANCH  25  26
ATOM     26  C   UNL     1       0.940   9.531  19.677  0.00  0.00    +0.000 A 
ATOM     27  C   UNL     1       1.240   9.523  18.312  0.00  0.00    +0.000 A 
ATOM     28  C   UNL     1       2.002   8.480  17.778  0.00  0.00    +0.000 A 
ATOM     29  C   UNL     1       2.456   7.460  18.612  0.00  0.00    +0.000 A 
ATOM     30  F   UNL     1       3.214   6.481  18.101  0.00  0.00    +0.000 F 
ATOM     31  C   UNL     1       2.134   7.438  19.960  0.00  0.00    +0.000 A 
ATOM     32  C   UNL     1       1.347   8.458  20.480  0.00  0.00    +0.000 A 
ATOM     33  F   UNL     1       1.025   8.411  21.780  0.00  0.00    +0.000 F 
ENDBRANCH  25  26
ENDBRANCH   4  25
TORSDOF 6
ENDMDL
MODEL 7
REMARK VINA RESULT:      -7.4      5.121      8.696
REMARK  Name = 
REMARK  8 active torsions:
REMARK  status: ('A' for Active; 'I' for Inactive)
REMARK    1  A    between atoms: C_1  and  C_2
REMARK    2  A    between atoms: C_2  and  S_3
REMARK    3  A    between atoms: S_3  and  C_6
REMARK    4  A    between atoms: C_6  and  C_7
REMARK    5  A    between atoms: C_10  and  O_11
REMARK    6  A    between atoms: O_11  and  C_12
REMARK    7  A    between atoms: C_20  and  C_21
REMARK    8  A    between atoms: C_23  and  C_24
REMARK                            x       y       z     vdW  Elec       q    Type
REMARK                         _______ _______ _______ _____ _____    ______ ____
ROOT
ATOM      1  C   UNL     1       0.858  14.587  19.977  0.00  0.00    +0.000 A 
ATOM      2  C   UNL     1       1.790  13.752  20.590  0.00  0.00    +0.000 A 
ATOM      3  C   UNL     1       1.610  12.376  20.588  0.00  0.00    +0.000 A 
ATOM      4  C   UNL     1       0.422  11.806  20.102  0.00  0.00    +0.000 A 
ATOM      5  C   UNL     1      -0.506  12.602  19.398  0.00  0.00    +0.000 A 
ATOM      6  C   UNL     1      -0.256  13.996  19.350  0.00  0.00    +0.000 A 
ENDROOT
BRANCH   5   7
ATOM      7  C   UNL     1      -1.786  12.105  18.819  0.00  0.00    +0.000 A 
ATOM      8  C   UNL     1      -1.952  11.470  17.589  0.00  0.00    +0.000 A 
ATOM      9  C   UNL     1      -3.332  11.328  17.308  0.00  0.00    +0.000 A 
ATOM     10  C   UNL     1      -3.929  10.789  16.056  0.00  0.00    +0.000 C 
ATOM     11  C   UNL     1      -3.998  11.814  18.416  0.00  0.00    +0.000 A 
ATOM     12  C   UNL     1      -5.418  11.944  18.679  0.00  0.00    +0.000 A 
ATOM     13  O   UNL     1      -6.311  11.666  17.884  0.00  0.00    +0.000 OA
ATOM     14  N   UNL     1      -5.730  12.426  19.940  0.00  0.00    +0.000 N 
ATOM     15  C   UNL     1      -4.801  12.705  20.912  0.00  0.00    +0.000 A 
ATOM     16  C   UNL     1      -3.492  12.566  20.650  0.00  0.00    +0.000 A 
ATOM     17  N   UNL     1      -3.065  12.186  19.377  0.00  0.00    +0.000 N 
ATOM     18  H   UNL     1      -6.720  12.535  20.125  0.00  0.00    +0.000 HD
ENDBRANCH   5   7
BRANCH   1  19
ATOM     19  C   UNL     1       1.010  16.085  20.046  0.00  0.00    +0.000 C 
BRANCH  19  20
ATOM     20  S   UNL     1       2.143  16.653  18.770  0.00  0.00    +0.000 S 
ATOM     21  O   UNL     1       2.422  15.538  17.881  0.00  0.00    +0.000 OA
ATOM     22  O   UNL     1       3.214  17.412  19.381  0.00  0.00    +0.000 OA
BRANCH  20  24
ATOM     23  C   UNL     1       1.688  17.995  16.456  0.00  0.00    +0.000 C 
ATOM     24  C   UNL     1       1.153  17.821  17.865  0.00  0.00    +0.000 C 
ENDBRANCH  20  24
ENDBRANCH  19  20
ENDBRANCH   1  19
BRANCH   4  25
ATOM     25  O   UNL     1       0.138  10.471  20.336  0.00  0.00    +0.000 OA
BRANCH  25  26
ATOM     26  C   UNL     1       0.906   9.505  19.721  0.00  0.00    +0.000 A 
ATOM     27  C   UNL     1       1.188   9.689  18.364  0.00  0.00    +0.000 A 
ATOM     28  C   UNL     1       2.008   8.773  17.699  0.00  0.00    +0.000 A 
ATOM     29  C   UNL     1       2.537   7.688  18.395  0.00  0.00    +0.000 A 
ATOM     30  F   UNL     1       3.350   6.833  17.761  0.00  0.00    +0.000 F 
ATOM     31  C   UNL     1       2.235   7.476  19.731  0.00  0.00    +0.000 A 
ATOM     32  C   UNL     1       1.390   8.368  20.380  0.00  0.00    +0.000 A 
ATOM     33  F   UNL     1       1.089   8.137  21.665  0.00  0.00    +0.000 F 
ENDBRANCH  25  26
ENDBRANCH   4  25
TORSDOF 6
ENDMDL
MODEL 8
REMARK VINA RESULT:      -7.3      5.124      8.856
REMARK  Name = 
REMARK  8 active torsions:
REMARK  status: ('A' for Active; 'I' for Inactive)
REMARK    1  A    between atoms: C_1  and  C_2
REMARK    2  A    between atoms: C_2  and  S_3
REMARK    3  A    between atoms: S_3  and  C_6
REMARK    4  A    between atoms: C_6  and  C_7
REMARK    5  A    between atoms: C_10  and  O_11
REMARK    6  A    between atoms: O_11  and  C_12
REMARK    7  A    between atoms: C_20  and  C_21
REMARK    8  A    between atoms: C_23  and  C_24
REMARK                            x       y       z     vdW  Elec       q    Type
REMARK                         _______ _______ _______ _____ _____    ______ ____
ROOT
ATOM      1  C   UNL     1      -3.726  11.142  17.670  0.00  0.00    +0.000 A 
ATOM      2  C   UNL     1      -3.000  10.032  17.243  0.00  0.00    +0.000 A 
ATOM      3  C   UNL     1      -1.672   9.874  17.615  0.00  0.00    +0.000 A 
ATOM      4  C   UNL     1      -0.992  10.891  18.304  0.00  0.00    +0.000 A 
ATOM      5  C   UNL     1      -1.707  11.988  18.829  0.00  0.00    +0.000 A 
ATOM      6  C   UNL     1      -3.081  12.083  18.496  0.00  0.00    +0.000 A 
ENDROOT
BRANCH   5   7
ATOM      7  C   UNL     1      -1.098  13.112  19.595  0.00  0.00    +0.000 A 
ATOM      8  C   UNL     1      -0.241  14.092  19.095  0.00  0.00    +0.000 A 
ATOM      9  C   UNL     1       0.277  14.863  20.164  0.00  0.00    +0.000 A 
ATOM     10  C   UNL     1       1.296  15.943  20.062  0.00  0.00    +0.000 C 
ATOM     11  C   UNL     1      -0.336  14.390  21.307  0.00  0.00    +0.000 A 
ATOM     12  C   UNL     1      -0.174  14.781  22.693  0.00  0.00    +0.000 A 
ATOM     13  O   UNL     1       0.622  15.623  23.100  0.00  0.00    +0.000 OA
ATOM     14  N   UNL     1      -1.008  14.121  23.581  0.00  0.00    +0.000 N 
ATOM     15  C   UNL     1      -1.968  13.213  23.209  0.00  0.00    +0.000 A 
ATOM     16  C   UNL     1      -2.108  12.874  21.918  0.00  0.00    +0.000 A 
ATOM     17  N   UNL     1      -1.249  13.403  20.953  0.00  0.00    +0.000 N 
ATOM     18  H   UNL     1      -0.889  14.378  24.554  0.00  0.00    +0.000 HD
ENDBRANCH   5   7
BRANCH   1  19
ATOM     19  C   UNL     1      -5.143  11.357  17.202  0.00  0.00    +0.000 C 
BRANCH  19  20
ATOM     20  S   UNL     1      -6.268  11.338  18.605  0.00  0.00    +0.000 S 
ATOM     21  O   UNL     1      -5.544  11.802  19.775  0.00  0.00    +0.000 OA
ATOM     22  O   UNL     1      -6.996  10.087  18.620  0.00  0.00    +0.000 OA
BRANCH  20  24
ATOM     23  C   UNL     1      -6.950  13.410  16.991  0.00  0.00    +0.000 C 
ATOM     24  C   UNL     1      -7.447  12.599  18.173  0.00  0.00    +0.000 C 
ENDBRANCH  20  24
ENDBRANCH  19  20
ENDBRANCH   1  19
BRANCH   4  25
ATOM     25  O   UNL     1       0.385  10.842  18.446  0.00  0.00    +0.000 OA
BRANCH  25  26
ATOM     26  C   UNL     1       0.975   9.666  18.855  0.00  0.00    +0.000 A 
ATOM     27  C   UNL     1       1.700   8.952  17.896  0.00  0.00    +0.000 A 
ATOM     28  C   UNL     1       2.367   7.780  18.265  0.00  0.00    +0.000 A 
ATOM     29  C   UNL     1       2.303   7.336  19.584  0.00  0.00    +0.000 A 
ATOM     30  F   UNL     1       2.971   6.231  19.940  0.00  0.00    +0.000 F 
ATOM     31  C   UNL     1       1.556   8.015  20.536  0.00  0.00    +0.000 A 
ATOM     32  C   UNL     1       0.866   9.160  20.157  0.00  0.00    +0.000 A 
ATOM     33  F   UNL     1       0.131   9.793  21.082  0.00  0.00    +0.000 F 
ENDBRANCH  25  26
ENDBRANCH   4  25
TORSDOF 6
ENDMDL
MODEL 9
REMARK VINA RESULT:      -7.3      6.800     10.358
REMARK  Name = 
REMARK  8 active torsions:
REMARK  status: ('A' for Active; 'I' for Inactive)
REMARK    1  A    between atoms: C_1  and  C_2
REMARK    2  A    between atoms: C_2  and  S_3
REMARK    3  A    between atoms: S_3  and  C_6
REMARK    4  A    between atoms: C_6  and  C_7
REMARK    5  A    between atoms: C_10  and  O_11
REMARK    6  A    between atoms: O_11  and  C_12
REMARK    7  A    between atoms: C_20  and  C_21
REMARK    8  A    between atoms: C_23  and  C_24
REMARK                            x       y       z     vdW  Elec       q    Type
REMARK                         _______ _______ _______ _____ _____    ______ ____
ROOT
ATOM      1  C   UNL     1      -3.646  12.898  24.097  0.00  0.00    +0.000 A 
ATOM      2  C   UNL     1      -3.071  14.130  24.402  0.00  0.00    +0.000 A 
ATOM      3  C   UNL     1      -1.850  14.493  23.850  0.00  0.00    +0.000 A 
ATOM      4  C   UNL     1      -1.102  13.576  23.094  0.00  0.00    +0.000 A 
ATOM      5  C   UNL     1      -1.681  12.355  22.691  0.00  0.00    +0.000 A 
ATOM      6  C   UNL     1      -2.963  12.045  23.209  0.00  0.00    +0.000 A 
ENDROOT
BRANCH   5   7
ATOM      7  C   UNL     1      -0.994  11.317  21.871  0.00  0.00    +0.000 A 
ATOM      8  C   UNL     1      -0.218  10.261  22.344  0.00  0.00    +0.000 A 
ATOM      9  C   UNL     1       0.421   9.613  21.259  0.00  0.00    +0.000 A 
ATOM     10  C   UNL     1       1.406   8.501  21.348  0.00  0.00    +0.000 C 
ATOM     11  C   UNL     1      -0.038  10.241  20.118  0.00  0.00    +0.000 A 
ATOM     12  C   UNL     1       0.293  10.019  18.725  0.00  0.00    +0.000 A 
ATOM     13  O   UNL     1       1.124   9.213  18.316  0.00  0.00    +0.000 OA
ATOM     14  N   UNL     1      -0.415  10.808  17.831  0.00  0.00    +0.000 N 
ATOM     15  C   UNL     1      -1.403  11.689  18.193  0.00  0.00    +0.000 A 
ATOM     16  C   UNL     1      -1.701  11.869  19.489  0.00  0.00    +0.000 A 
ATOM     17  N   UNL     1      -0.976  11.202  20.478  0.00  0.00    +0.000 N 
ATOM     18  H   UNL     1      -0.178  10.670  16.855  0.00  0.00    +0.000 HD
ENDBRANCH   5   7
BRANCH   1  19
ATOM     19  C   UNL     1      -4.932  12.469  24.757  0.00  0.00    +0.000 C 
BRANCH  19  20
ATOM     20  S   UNL     1      -6.302  12.622  23.602  0.00  0.00    +0.000 S 
ATOM     21  O   UNL     1      -7.356  11.716  24.024  0.00  0.00    +0.000 OA
ATOM     22  O   UNL     1      -5.792  12.602  22.247  0.00  0.00    +0.000 OA
BRANCH  20  24
ATOM     23  C   UNL     1      -6.303  15.234  22.865  0.00  0.00    +0.000 C 
ATOM     24  C   UNL     1      -6.874  14.280  23.897  0.00  0.00    +0.000 C 
ENDBRANCH  20  24
ENDBRANCH  19  20
ENDBRANCH   1  19
BRANCH   4  25
ATOM     25  O   UNL     1       0.217  13.848  22.766  0.00  0.00    +0.000 OA
BRANCH  25  26
ATOM     26  C   UNL     1       0.489  14.864  21.875  0.00  0.00    +0.000 A 
ATOM     27  C   UNL     1       0.359  14.565  20.515  0.00  0.00    +0.000 A 
ATOM     28  C   UNL     1       0.567  15.569  19.565  0.00  0.00    +0.000 A 
ATOM     29  C   UNL     1       0.900  16.856  19.982  0.00  0.00    +0.000 A 
ATOM     30  F   UNL     1       1.064  17.822  19.068  0.00  0.00    +0.000 F 
ATOM     31  C   UNL     1       1.067  17.155  21.325  0.00  0.00    +0.000 A 
ATOM     32  C   UNL     1       0.894  16.146  22.265  0.00  0.00    +0.000 A 
ATOM     33  F   UNL     1       1.081  16.445  23.558  0.00  0.00    +0.000 F 
ENDBRANCH  25  26
ENDBRANCH   4  25
TORSDOF 6
ENDMDL
