MODEL 1
REMARK VINA RESULT:      -7.7      0.000      0.000
REMARK  Name = 
REMARK  11 active torsions:
REMARK  status: ('A' for Active; 'I' for Inactive)
REMARK    1  A    between atoms: C_1  and  C_2
REMARK    2  A    between atoms: C_2  and  O_3
REMARK    3  A    between atoms: O_3  and  C_4
REMARK    4  A    between atoms: C_4  and  C_6
REMARK    5  A    between atoms: C_7  and  C_8
REMARK    6  A    between atoms: C_9  and  C_10
REMARK    7  A    between atoms: C_15  and  C_16
REMARK    8  A    between atoms: C_19  and  C_20
REMARK    9  A    between atoms: N_21  and  C_22
REMARK   10  A    between atoms: C_22  and  C_23
REMARK   11  A    between atoms: C_24  and  C_25
REMARK                            x       y       z     vdW  Elec       q    Type
REMARK                         _______ _______ _______ _____ _____    ______ ____
ROOT
ATOM      1  C   UNL     1       4.287   5.713  17.088  0.00  0.00    +0.000 A 
ATOM      2  C   UNL     1       3.164   5.908  17.958  0.00  0.00    +0.000 A 
ATOM      3  C   UNL     1       2.606   4.654  18.196  0.00  0.00    +0.000 A 
ATOM      4  C   UNL     1       1.396   4.264  18.986  0.00  0.00    +0.000 C 
ATOM      5  N   UNL     1       3.388   3.703  17.559  0.00  0.00    +0.000 N 
ATOM      6  C   UNL     1       4.428   4.334  16.910  0.00  0.00    +0.000 A 
ATOM      7  C   UNL     1       5.489   3.639  16.111  0.00  0.00    +0.000 C 
ENDROOT
BRANCH   1   8
ATOM      8  C   UNL     1       5.183   6.682  16.451  0.00  0.00    +0.000 C 
ATOM      9  O   UNL     1       5.121   6.976  15.262  0.00  0.00    +0.000 OA
BRANCH   8  10
ATOM     10  O   UNL     1       6.078   7.251  17.314  0.00  0.00    +0.000 OA
BRANCH  10  12
ATOM     11  C   UNL     1       7.703   6.137  18.714  0.00  0.00    +0.000 C 
ATOM     12  C   UNL     1       7.375   6.641  17.319  0.00  0.00    +0.000 C 
ENDBRANCH  10  12
ENDBRANCH   8  10
ENDBRANCH   1   8
BRANCH   2  13
ATOM     13  C   UNL     1       2.633   7.122  18.528  0.00  0.00    +0.000 C 
ATOM     14  C   UNL     1       2.134   8.177  17.859  0.00  0.00    +0.000 C 
BRANCH  14  15
ATOM     15  C   UNL     1       1.669   9.406  18.578  0.00  0.00    +0.000 C 
ATOM     16  O   UNL     1       1.966  10.523  18.164  0.00  0.00    +0.000 OA
ATOM     17  N   UNL     1       0.953   9.100  19.710  0.00  0.00    +0.000 N 
ATOM     18  C   UNL     1       0.415  10.055  20.535  0.00  0.00    +0.000 A 
ATOM     19  N   UNL     1       0.231  11.335  20.345  0.00  0.00    +0.000 NA
ATOM     20  C   UNL     1      -0.363  11.899  21.467  0.00  0.00    +0.000 A 
ATOM     21  C   UNL     1      -0.739  13.337  21.446  0.00  0.00    +0.000 C 
ATOM     22  C   UNL     1      -0.546  11.025  22.523  0.00  0.00    +0.000 A 
ATOM     23  S   UNL     1      -0.101   9.438  22.046  0.00  0.00    +0.000 S 
ATOM     24  H   UNL     1       0.858   8.151  20.027  0.00  0.00    +0.000 HD
ENDBRANCH  14  15
ENDBRANCH   2  13
BRANCH   5  25
ATOM     25  C   UNL     1       3.066   2.278  17.496  0.00  0.00    +0.000 C 
ATOM     26  C   UNL     1       3.665   1.437  18.615  0.00  0.00    +0.000 C 
ENDBRANCH   5  25
TORSDOF 6
ENDMDL
MODEL 2
REMARK VINA RESULT:      -7.4      2.161      3.538
REMARK  Name = 
REMARK  11 active torsions:
REMARK  status: ('A' for Active; 'I' for Inactive)
REMARK    1  A    between atoms: C_1  and  C_2
REMARK    2  A    between atoms: C_2  and  O_3
REMARK    3  A    between atoms: O_3  and  C_4
REMARK    4  A    between atoms: C_4  and  C_6
REMARK    5  A    between atoms: C_7  and  C_8
REMARK    6  A    between atoms: C_9  and  C_10
REMARK    7  A    between atoms: C_15  and  C_16
REMARK    8  A    between atoms: C_19  and  C_20
REMARK    9  A    between atoms: N_21  and  C_22
REMARK   10  A    between atoms: C_22  and  C_23
REMARK   11  A    between atoms: C_24  and  C_25
REMARK                            x       y       z     vdW  Elec       q    Type
REMARK                         _______ _______ _______ _____ _____    ______ ____
ROOT
ATOM      1  C   UNL     1       2.660   4.535  18.128  0.00  0.00    +0.000 A 
ATOM      2  C   UNL     1       3.074   5.898  17.969  0.00  0.00    +0.000 A 
ATOM      3  C   UNL     1       4.344   5.878  17.397  0.00  0.00    +0.000 A 
ATOM      4  C   UNL     1       5.272   7.001  17.054  0.00  0.00    +0.000 C 
ATOM      5  N   UNL     1       4.685   4.558  17.142  0.00  0.00    +0.000 N 
ATOM      6  C   UNL     1       3.655   3.739  17.555  0.00  0.00    +0.000 A 
ATOM      7  C   UNL     1       3.651   2.244  17.443  0.00  0.00    +0.000 C 
ENDROOT
BRANCH   1   8
ATOM      8  C   UNL     1       1.460   3.966  18.750  0.00  0.00    +0.000 C 
ATOM      9  O   UNL     1       0.710   3.186  18.175  0.00  0.00    +0.000 OA
BRANCH   8  10
ATOM     10  O   UNL     1       1.270   4.367  20.043  0.00  0.00    +0.000 OA
BRANCH  10  12
ATOM     11  C   UNL     1       1.630   2.633  21.688  0.00  0.00    +0.000 C 
ATOM     12  C   UNL     1       2.219   3.840  20.979  0.00  0.00    +0.000 C 
ENDBRANCH  10  12
ENDBRANCH   8  10
ENDBRANCH   1   8
BRANCH   2  13
ATOM     13  C   UNL     1       2.387   7.121  18.305  0.00  0.00    +0.000 C 
ATOM     14  C   UNL     1       2.146   7.598  19.540  0.00  0.00    +0.000 C 
BRANCH  14  15
ATOM     15  C   UNL     1       1.362   8.858  19.748  0.00  0.00    +0.000 C 
ATOM     16  O   UNL     1       1.361   9.742  18.897  0.00  0.00    +0.000 OA
ATOM     17  N   UNL     1       0.734   8.877  20.970  0.00  0.00    +0.000 N 
ATOM     18  C   UNL     1      -0.050   9.920  21.392  0.00  0.00    +0.000 A 
ATOM     19  N   UNL     1      -0.562  10.921  20.725  0.00  0.00    +0.000 NA
ATOM     20  C   UNL     1      -1.302  11.730  21.579  0.00  0.00    +0.000 A 
ATOM     21  C   UNL     1      -2.043  12.890  21.021  0.00  0.00    +0.000 C 
ATOM     22  C   UNL     1      -1.265  11.349  22.908  0.00  0.00    +0.000 A 
ATOM     23  S   UNL     1      -0.410   9.869  23.064  0.00  0.00    +0.000 S 
ATOM     24  H   UNL     1       0.887   8.149  21.647  0.00  0.00    +0.000 HD
ENDBRANCH  14  15
ENDBRANCH   2  13
BRANCH   5  25
ATOM     25  C   UNL     1       5.985   4.125  16.634  0.00  0.00    +0.000 C 
ATOM     26  C   UNL     1       6.045   3.915  15.127  0.00  0.00    +0.000 C 
ENDBRANCH   5  25
TORSDOF 6
ENDMDL
MODEL 3
REMARK VINA RESULT:      -7.1      1.541      1.585
REMARK  Name = 
REMARK  11 active torsions:
REMARK  status: ('A' for Active; 'I' for Inactive)
REMARK    1  A    between atoms: C_1  and  C_2
REMARK    2  A    between atoms: C_2  and  O_3
REMARK    3  A    between atoms: O_3  and  C_4
REMARK    4  A    between atoms: C_4  and  C_6
REMARK    5  A    between atoms: C_7  and  C_8
REMARK    6  A    between atoms: C_9  and  C_10
REMARK    7  A    between atoms: C_15  and  C_16
REMARK    8  A    between atoms: C_19  and  C_20
REMARK    9  A    between atoms: N_21  and  C_22
REMARK   10  A    between atoms: C_22  and  C_23
REMARK   11  A    between atoms: C_24  and  C_25
REMARK                            x       y       z     vdW  Elec       q    Type
REMARK                         _______ _______ _______ _____ _____    ______ ____
ROOT
ATOM      1  C   UNL     1       4.315   5.745  17.059  0.00  0.00    +0.000 A 
ATOM      2  C   UNL     1       3.147   5.965  17.861  0.00  0.00    +0.000 A 
ATOM      3  C   UNL     1       2.593   4.715  18.134  0.00  0.00    +0.000 A 
ATOM      4  C   UNL     1       1.350   4.346  18.881  0.00  0.00    +0.000 C 
ATOM      5  N   UNL     1       3.420   3.746  17.586  0.00  0.00    +0.000 N 
ATOM      6  C   UNL     1       4.483   4.361  16.958  0.00  0.00    +0.000 A 
ATOM      7  C   UNL     1       5.592   3.644  16.250  0.00  0.00    +0.000 C 
ENDROOT
BRANCH   1   8
ATOM      8  C   UNL     1       5.228   6.695  16.419  0.00  0.00    +0.000 C 
ATOM      9  O   UNL     1       5.220   6.930  15.216  0.00  0.00    +0.000 OA
BRANCH   8  10
ATOM     10  O   UNL     1       6.074   7.318  17.295  0.00  0.00    +0.000 OA
BRANCH  10  12
ATOM     11  C   UNL     1       7.660   6.148  18.695  0.00  0.00    +0.000 C 
ATOM     12  C   UNL     1       7.399   6.774  17.336  0.00  0.00    +0.000 C 
ENDBRANCH  10  12
ENDBRANCH   8  10
ENDBRANCH   1   8
BRANCH   2  13
ATOM     13  C   UNL     1       2.571   7.197  18.342  0.00  0.00    +0.000 C 
ATOM     14  C   UNL     1       2.004   8.166  17.600  0.00  0.00    +0.000 C 
BRANCH  14  15
ATOM     15  C   UNL     1       1.497   9.429  18.225  0.00  0.00    +0.000 C 
ATOM     16  O   UNL     1       2.222  10.102  18.952  0.00  0.00    +0.000 OA
ATOM     17  N   UNL     1       0.180   9.666  17.912  0.00  0.00    +0.000 N 
ATOM     18  C   UNL     1      -0.508  10.765  18.359  0.00  0.00    +0.000 A 
ATOM     19  N   UNL     1      -0.079  11.873  18.906  0.00  0.00    +0.000 NA
ATOM     20  C   UNL     1      -1.151  12.709  19.187  0.00  0.00    +0.000 A 
ATOM     21  C   UNL     1      -0.892  14.062  19.743  0.00  0.00    +0.000 C 
ATOM     22  C   UNL     1      -2.393  12.168  18.907  0.00  0.00    +0.000 A 
ATOM     23  S   UNL     1      -2.202  10.643  18.142  0.00  0.00    +0.000 S 
ATOM     24  H   UNL     1      -0.363   8.995  17.397  0.00  0.00    +0.000 HD
ENDBRANCH  14  15
ENDBRANCH   2  13
BRANCH   5  25
ATOM     25  C   UNL     1       3.121   2.315  17.580  0.00  0.00    +0.000 C 
ATOM     26  C   UNL     1       3.683   1.540  18.763  0.00  0.00    +0.000 C 
ENDBRANCH   5  25
TORSDOF 6
ENDMDL
MODEL 4
REMARK VINA RESULT:      -7.1      1.358      1.509
REMARK  Name = 
REMARK  11 active torsions:
REMARK  status: ('A' for Active; 'I' for Inactive)
REMARK    1  A    between atoms: C_1  and  C_2
REMARK    2  A    between atoms: C_2  and  O_3
REMARK    3  A    between atoms: O_3  and  C_4
REMARK    4  A    between atoms: C_4  and  C_6
REMARK    5  A    between atoms: C_7  and  C_8
REMARK    6  A    between atoms: C_9  and  C_10
REMARK    7  A    between atoms: C_15  and  C_16
REMARK    8  A    between atoms: C_19  and  C_20
REMARK    9  A    between atoms: N_21  and  C_22
REMARK   10  A    between atoms: C_22  and  C_23
REMARK   11  A    between atoms: C_24  and  C_25
REMARK                            x       y       z     vdW  Elec       q    Type
REMARK                         _______ _______ _______ _____ _____    ______ ____
ROOT
ATOM      1  C   UNL     1       4.188   5.705  17.236  0.00  0.00    +0.000 A 
ATOM      2  C   UNL     1       3.091   5.838  18.149  0.00  0.00    +0.000 A 
ATOM      3  C   UNL     1       2.548   4.567  18.328  0.00  0.00    +0.000 A 
ATOM      4  C   UNL     1       1.366   4.120  19.130  0.00  0.00    +0.000 C 
ATOM      5  N   UNL     1       3.317   3.662  17.611  0.00  0.00    +0.000 N 
ATOM      6  C   UNL     1       4.332   4.340  16.970  0.00  0.00    +0.000 A 
ATOM      7  C   UNL     1       5.373   3.704  16.099  0.00  0.00    +0.000 C 
ENDROOT
BRANCH   1   8
ATOM      8  C   UNL     1       5.056   6.719  16.631  0.00  0.00    +0.000 C 
ATOM      9  O   UNL     1       4.970   7.066  15.459  0.00  0.00    +0.000 OA
BRANCH   8  10
ATOM     10  O   UNL     1       5.956   7.262  17.506  0.00  0.00    +0.000 OA
BRANCH  10  12
ATOM     11  C   UNL     1       7.674   6.046  18.694  0.00  0.00    +0.000 C 
ATOM     12  C   UNL     1       7.286   6.739  17.399  0.00  0.00    +0.000 C 
ENDBRANCH  10  12
ENDBRANCH   8  10
ENDBRANCH   1   8
BRANCH   2  13
ATOM     13  C   UNL     1       2.569   7.010  18.808  0.00  0.00    +0.000 C 
ATOM     14  C   UNL     1       2.141   7.098  20.080  0.00  0.00    +0.000 C 
BRANCH  14  15
ATOM     15  C   UNL     1       1.562   8.370  20.621  0.00  0.00    +0.000 C 
ATOM     16  O   UNL     1       1.571   8.598  21.827  0.00  0.00    +0.000 OA
ATOM     17  N   UNL     1       1.024   9.153  19.628  0.00  0.00    +0.000 N 
ATOM     18  C   UNL     1       0.441  10.371  19.870  0.00  0.00    +0.000 A 
ATOM     19  N   UNL     1       0.478  11.135  20.931  0.00  0.00    +0.000 NA
ATOM     20  C   UNL     1      -0.262  12.289  20.709  0.00  0.00    +0.000 A 
ATOM     21  C   UNL     1      -0.295  13.344  21.755  0.00  0.00    +0.000 C 
ATOM     22  C   UNL     1      -0.911  12.332  19.488  0.00  0.00    +0.000 A 
ATOM     23  S   UNL     1      -0.465  10.968  18.547  0.00  0.00    +0.000 S 
ATOM     24  H   UNL     1       0.967   8.826  18.679  0.00  0.00    +0.000 HD
ENDBRANCH  14  15
ENDBRANCH   2  13
BRANCH   5  25
ATOM     25  C   UNL     1       3.003   2.241  17.473  0.00  0.00    +0.000 C 
ATOM     26  C   UNL     1       3.664   1.337  18.504  0.00  0.00    +0.000 C 
ENDBRANCH   5  25
TORSDOF 6
ENDMDL
MODEL 5
REMARK VINA RESULT:      -6.9      2.158      2.332
REMARK  Name = 
REMARK  11 active torsions:
REMARK  status: ('A' for Active; 'I' for Inactive)
REMARK    1  A    between atoms: C_1  and  C_2
REMARK    2  A    between atoms: C_2  and  O_3
REMARK    3  A    between atoms: O_3  and  C_4
REMARK    4  A    between atoms: C_4  and  C_6
REMARK    5  A    between atoms: C_7  and  C_8
REMARK    6  A    between atoms: C_9  and  C_10
REMARK    7  A    between atoms: C_15  and  C_16
REMARK    8  A    between atoms: C_19  and  C_20
REMARK    9  A    between atoms: N_21  and  C_22
REMARK   10  A    between atoms: C_22  and  C_23
REMARK   11  A    between atoms: C_24  and  C_25
REMARK                            x       y       z     vdW  Elec       q    Type
REMARK                         _______ _______ _______ _____ _____    ______ ____
ROOT
ATOM      1  C   UNL     1       4.403   6.118  17.738  0.00  0.00    +0.000 A 
ATOM      2  C   UNL     1       3.245   6.416  18.530  0.00  0.00    +0.000 A 
ATOM      3  C   UNL     1       2.898   5.250  19.208  0.00  0.00    +0.000 A 
ATOM      4  C   UNL     1       1.754   4.967  20.130  0.00  0.00    +0.000 C 
ATOM      5  N   UNL     1       3.841   4.278  18.910  0.00  0.00    +0.000 N 
ATOM      6  C   UNL     1       4.775   4.805  18.043  0.00  0.00    +0.000 A 
ATOM      7  C   UNL     1       5.954   4.059  17.494  0.00  0.00    +0.000 C 
ENDROOT
BRANCH   1   8
ATOM      8  C   UNL     1       5.137   6.937  16.771  0.00  0.00    +0.000 C 
ATOM      9  O   UNL     1       5.005   6.827  15.557  0.00  0.00    +0.000 OA
BRANCH   8  10
ATOM     10  O   UNL     1       5.966   7.858  17.350  0.00  0.00    +0.000 OA
BRANCH  10  12
ATOM     11  C   UNL     1       8.189   8.607  17.937  0.00  0.00    +0.000 C 
ATOM     12  C   UNL     1       7.334   7.444  17.463  0.00  0.00    +0.000 C 
ENDBRANCH  10  12
ENDBRANCH   8  10
ENDBRANCH   1   8
BRANCH   2  13
ATOM     13  C   UNL     1       2.507   7.649  18.664  0.00  0.00    +0.000 C 
ATOM     14  C   UNL     1       1.881   8.325  17.684  0.00  0.00    +0.000 C 
BRANCH  14  15
ATOM     15  C   UNL     1       1.199   9.632  17.953  0.00  0.00    +0.000 C 
ATOM     16  O   UNL     1      -0.025   9.711  17.954  0.00  0.00    +0.000 OA
ATOM     17  N   UNL     1       2.100  10.653  18.138  0.00  0.00    +0.000 N 
ATOM     18  C   UNL     1       1.722  11.944  18.406  0.00  0.00    +0.000 A 
ATOM     19  N   UNL     1       0.567  12.432  18.776  0.00  0.00    +0.000 NA
ATOM     20  C   UNL     1       0.664  13.807  18.940  0.00  0.00    +0.000 A 
ATOM     21  C   UNL     1      -0.513  14.565  19.437  0.00  0.00    +0.000 C 
ATOM     22  C   UNL     1       1.897  14.341  18.610  0.00  0.00    +0.000 A 
ATOM     23  S   UNL     1       2.993  13.077  18.229  0.00  0.00    +0.000 S 
ATOM     24  H   UNL     1       3.087  10.509  18.007  0.00  0.00    +0.000 HD
ENDBRANCH  14  15
ENDBRANCH   2  13
BRANCH   5  25
ATOM     25  C   UNL     1       3.763   2.889  19.357  0.00  0.00    +0.000 C 
ATOM     26  C   UNL     1       3.101   1.936  18.371  0.00  0.00    +0.000 C 
ENDBRANCH   5  25
TORSDOF 6
ENDMDL
MODEL 6
REMARK VINA RESULT:      -6.9      1.975      3.472
REMARK  Name = 
REMARK  11 active torsions:
REMARK  status: ('A' for Active; 'I' for Inactive)
REMARK    1  A    between atoms: C_1  and  C_2
REMARK    2  A    between atoms: C_2  and  O_3
REMARK    3  A    between atoms: O_3  and  C_4
REMARK    4  A    between atoms: C_4  and  C_6
REMARK    5  A    between atoms: C_7  and  C_8
REMARK    6  A    between atoms: C_9  and  C_10
REMARK    7  A    between atoms: C_15  and  C_16
REMARK    8  A    between atoms: C_19  and  C_20
REMARK    9  A    between atoms: N_21  and  C_22
REMARK   10  A    between atoms: C_22  and  C_23
REMARK   11  A    between atoms: C_24  and  C_25
REMARK                            x       y       z     vdW  Elec       q    Type
REMARK                         _______ _______ _______ _____ _____    ______ ____
ROOT
ATOM      1  C   UNL     1       3.202   4.857  17.723  0.00  0.00    +0.000 A 
ATOM      2  C   UNL     1       3.568   6.226  17.944  0.00  0.00    +0.000 A 
ATOM      3  C   UNL     1       4.877   6.380  17.494  0.00  0.00    +0.000 A 
ATOM      4  C   UNL     1       5.779   7.574  17.522  0.00  0.00    +0.000 C 
ATOM      5  N   UNL     1       5.293   5.175  16.948  0.00  0.00    +0.000 N 
ATOM      6  C   UNL     1       4.272   4.254  17.055  0.00  0.00    +0.000 A 
ATOM      7  C   UNL     1       4.341   2.836  16.574  0.00  0.00    +0.000 C 
ENDROOT
BRANCH   1   8
ATOM      8  C   UNL     1       1.985   4.123  18.079  0.00  0.00    +0.000 C 
ATOM      9  O   UNL     1       0.963   4.146  17.402  0.00  0.00    +0.000 OA
BRANCH   8  10
ATOM     10  O   UNL     1       2.104   3.387  19.225  0.00  0.00    +0.000 OA
BRANCH  10  12
ATOM     11  C   UNL     1       1.366   2.823  21.456  0.00  0.00    +0.000 C 
ATOM     12  C   UNL     1       1.090   3.639  20.206  0.00  0.00    +0.000 C 
ENDBRANCH  10  12
ENDBRANCH   8  10
ENDBRANCH   1   8
BRANCH   2  13
ATOM     13  C   UNL     1       2.804   7.308  18.515  0.00  0.00    +0.000 C 
ATOM     14  C   UNL     1       2.227   8.327  17.851  0.00  0.00    +0.000 C 
BRANCH  14  15
ATOM     15  C   UNL     1       1.511   9.424  18.578  0.00  0.00    +0.000 C 
ATOM     16  O   UNL     1       1.418  10.544  18.086  0.00  0.00    +0.000 OA
ATOM     17  N   UNL     1       1.053   9.013  19.807  0.00  0.00    +0.000 N 
ATOM     18  C   UNL     1       0.359   9.834  20.659  0.00  0.00    +0.000 A 
ATOM     19  N   UNL     1      -0.212  10.990  20.447  0.00  0.00    +0.000 NA
ATOM     20  C   UNL     1      -0.809  11.445  21.616  0.00  0.00    +0.000 A 
ATOM     21  C   UNL     1      -1.589  12.710  21.589  0.00  0.00    +0.000 C 
ATOM     22  C   UNL     1      -0.605  10.636  22.719  0.00  0.00    +0.000 A 
ATOM     23  S   UNL     1       0.225   9.211  22.247  0.00  0.00    +0.000 S 
ATOM     24  H   UNL     1       1.277   8.102  20.169  0.00  0.00    +0.000 HD
ENDBRANCH  14  15
ENDBRANCH   2  13
BRANCH   5  25
ATOM     25  C   UNL     1       6.646   4.914  16.460  0.00  0.00    +0.000 C 
ATOM     26  C   UNL     1       7.652   4.531  17.537  0.00  0.00    +0.000 C 
ENDBRANCH   5  25
TORSDOF 6
ENDMDL
MODEL 7
REMARK VINA RESULT:      -6.9      2.600      3.887
REMARK  Name = 
REMARK  11 active torsions:
REMARK  status: ('A' for Active; 'I' for Inactive)
REMARK    1  A    between atoms: C_1  and  C_2
REMARK    2  A    between atoms: C_2  and  O_3
REMARK    3  A    between atoms: O_3  and  C_4
REMARK    4  A    between atoms: C_4  and  C_6
REMARK    5  A    between atoms: C_7  and  C_8
REMARK    6  A    between atoms: C_9  and  C_10
REMARK    7  A    between atoms: C_15  and  C_16
REMARK    8  A    between atoms: C_19  and  C_20
REMARK    9  A    between atoms: N_21  and  C_22
REMARK   10  A    between atoms: C_22  and  C_23
REMARK   11  A    between atoms: C_24  and  C_25
REMARK                            x       y       z     vdW  Elec       q    Type
REMARK                         _______ _______ _______ _____ _____    ______ ____
ROOT
ATOM      1  C   UNL     1       2.432   4.427  18.456  0.00  0.00    +0.000 A 
ATOM      2  C   UNL     1       2.796   5.808  18.328  0.00  0.00    +0.000 A 
ATOM      3  C   UNL     1       3.992   5.853  17.615  0.00  0.00    +0.000 A 
ATOM      4  C   UNL     1       4.851   7.018  17.232  0.00  0.00    +0.000 C 
ATOM      5  N   UNL     1       4.328   4.559  17.249  0.00  0.00    +0.000 N 
ATOM      6  C   UNL     1       3.371   3.691  17.729  0.00  0.00    +0.000 A 
ATOM      7  C   UNL     1       3.385   2.204  17.534  0.00  0.00    +0.000 C 
ENDROOT
BRANCH   1   8
ATOM      8  C   UNL     1       1.324   3.794  19.177  0.00  0.00    +0.000 C 
ATOM      9  O   UNL     1       0.522   3.035  18.645  0.00  0.00    +0.000 OA
BRANCH   8  10
ATOM     10  O   UNL     1       1.285   4.107  20.508  0.00  0.00    +0.000 OA
BRANCH  10  12
ATOM     11  C   UNL     1       2.774   2.493  21.520  0.00  0.00    +0.000 C 
ATOM     12  C   UNL     1       1.341   2.978  21.390  0.00  0.00    +0.000 C 
ENDBRANCH  10  12
ENDBRANCH   8  10
ENDBRANCH   1   8
BRANCH   2  13
ATOM     13  C   UNL     1       2.127   6.992  18.809  0.00  0.00    +0.000 C 
ATOM     14  C   UNL     1       2.094   7.441  20.077  0.00  0.00    +0.000 C 
BRANCH  14  15
ATOM     15  C   UNL     1       1.305   8.659  20.451  0.00  0.00    +0.000 C 
ATOM     16  O   UNL     1       1.304   9.073  21.607  0.00  0.00    +0.000 OA
ATOM     17  N   UNL     1       0.605   9.166  19.384  0.00  0.00    +0.000 N 
ATOM     18  C   UNL     1      -0.186  10.284  19.471  0.00  0.00    +0.000 A 
ATOM     19  N   UNL     1      -0.263  11.199  20.401  0.00  0.00    +0.000 NA
ATOM     20  C   UNL     1      -1.208  12.154  20.049  0.00  0.00    +0.000 A 
ATOM     21  C   UNL     1      -1.408  13.337  20.925  0.00  0.00    +0.000 C 
ATOM     22  C   UNL     1      -1.887  11.886  18.873  0.00  0.00    +0.000 A 
ATOM     23  S   UNL     1      -1.223  10.492  18.125  0.00  0.00    +0.000 S 
ATOM     24  H   UNL     1       0.583   8.689  18.499  0.00  0.00    +0.000 HD
ENDBRANCH  14  15
ENDBRANCH   2  13
BRANCH   5  25
ATOM     25  C   UNL     1       5.570   4.190  16.572  0.00  0.00    +0.000 C 
ATOM     26  C   UNL     1       5.500   4.214  15.051  0.00  0.00    +0.000 C 
ENDBRANCH   5  25
TORSDOF 6
ENDMDL
MODEL 8
REMARK VINA RESULT:      -6.8      2.434      3.728
REMARK  Name = 
REMARK  11 active torsions:
REMARK  status: ('A' for Active; 'I' for Inactive)
REMARK    1  A    between atoms: C_1  and  C_2
REMARK    2  A    between atoms: C_2  and  O_3
REMARK    3  A    between atoms: O_3  and  C_4
REMARK    4  A    between atoms: C_4  and  C_6
REMARK    5  A    between atoms: C_7  and  C_8
REMARK    6  A    between atoms: C_9  and  C_10
REMARK    7  A    between atoms: C_15  and  C_16
REMARK    8  A    between atoms: C_19  and  C_20
REMARK    9  A    between atoms: N_21  and  C_22
REMARK   10  A    between atoms: C_22  and  C_23
REMARK   11  A    between atoms: C_24  and  C_25
REMARK                            x       y       z     vdW  Elec       q    Type
REMARK                         _______ _______ _______ _____ _____    ______ ____
ROOT
ATOM      1  C   UNL     1       2.884   4.787  17.973  0.00  0.00    +0.000 A 
ATOM      2  C   UNL     1       3.418   6.116  17.896  0.00  0.00    +0.000 A 
ATOM      3  C   UNL     1       4.691   6.016  17.339  0.00  0.00    +0.000 A 
ATOM      4  C   UNL     1       5.719   7.070  17.072  0.00  0.00    +0.000 C 
ATOM      5  N   UNL     1       4.920   4.687  17.015  0.00  0.00    +0.000 N 
ATOM      6  C   UNL     1       3.816   3.940  17.368  0.00  0.00    +0.000 A 
ATOM      7  C   UNL     1       3.684   2.459  17.171  0.00  0.00    +0.000 C 
ENDROOT
BRANCH   1   8
ATOM      8  C   UNL     1       1.630   4.293  18.547  0.00  0.00    +0.000 C 
ATOM      9  O   UNL     1       0.769   3.720  17.889  0.00  0.00    +0.000 OA
BRANCH   8  10
ATOM     10  O   UNL     1       1.521   4.506  19.893  0.00  0.00    +0.000 OA
BRANCH  10  12
ATOM     11  C   UNL     1       1.677   2.851  21.649  0.00  0.00    +0.000 C 
ATOM     12  C   UNL     1       2.440   3.753  20.695  0.00  0.00    +0.000 C 
ENDBRANCH  10  12
ENDBRANCH   8  10
ENDBRANCH   1   8
BRANCH   2  13
ATOM     13  C   UNL     1       2.834   7.374  18.293  0.00  0.00    +0.000 C 
ATOM     14  C   UNL     1       2.247   8.280  17.490  0.00  0.00    +0.000 C 
BRANCH  14  15
ATOM     15  C   UNL     1       1.734   9.580  18.028  0.00  0.00    +0.000 C 
ATOM     16  O   UNL     1       2.500  10.393  18.537  0.00  0.00    +0.000 OA
ATOM     17  N   UNL     1       0.369   9.684  17.908  0.00  0.00    +0.000 N 
ATOM     18  C   UNL     1      -0.336  10.785  18.322  0.00  0.00    +0.000 A 
ATOM     19  N   UNL     1       0.073  11.983  18.649  0.00  0.00    +0.000 NA
ATOM     20  C   UNL     1      -1.013  12.776  18.996  0.00  0.00    +0.000 A 
ATOM     21  C   UNL     1      -0.791  14.207  19.328  0.00  0.00    +0.000 C 
ATOM     22  C   UNL     1      -2.231  12.120  18.992  0.00  0.00    +0.000 A 
ATOM     23  S   UNL     1      -2.026  10.522  18.402  0.00  0.00    +0.000 S 
ATOM     24  H   UNL     1      -0.186   8.914  17.576  0.00  0.00    +0.000 HD
ENDBRANCH  14  15
ENDBRANCH   2  13
BRANCH   5  25
ATOM     25  C   UNL     1       6.186   4.171  16.498  0.00  0.00    +0.000 C 
ATOM     26  C   UNL     1       6.251   4.037  14.983  0.00  0.00    +0.000 C 
ENDBRANCH   5  25
TORSDOF 6
ENDMDL
MODEL 9
REMARK VINA RESULT:      -6.8      1.577      1.736
REMARK  Name = 
REMARK  11 active torsions:
REMARK  status: ('A' for Active; 'I' for Inactive)
REMARK    1  A    between atoms: C_1  and  C_2
REMARK    2  A    between atoms: C_2  and  O_3
REMARK    3  A    between atoms: O_3  and  C_4
REMARK    4  A    between atoms: C_4  and  C_6
REMARK    5  A    between atoms: C_7  and  C_8
REMARK    6  A    between atoms: C_9  and  C_10
REMARK    7  A    between atoms: C_15  and  C_16
REMARK    8  A    between atoms: C_19  and  C_20
REMARK    9  A    between atoms: N_21  and  C_22
REMARK   10  A    between atoms: C_22  and  C_23
REMARK   11  A    between atoms: C_24  and  C_25
REMARK                            x       y       z     vdW  Elec       q    Type
REMARK                         _______ _______ _______ _____ _____    ______ ____
ROOT
ATOM      1  C   UNL     1       4.496   5.913  17.111  0.00  0.00    +0.000 A 
ATOM      2  C   UNL     1       3.518   6.412  18.033  0.00  0.00    +0.000 A 
ATOM      3  C   UNL     1       2.996   5.314  18.714  0.00  0.00    +0.000 A 
ATOM      4  C   UNL     1       1.918   5.236  19.749  0.00  0.00    +0.000 C 
ATOM      5  N   UNL     1       3.670   4.179  18.287  0.00  0.00    +0.000 N 
ATOM      6  C   UNL     1       4.602   4.538  17.336  0.00  0.00    +0.000 A 
ATOM      7  C   UNL     1       5.528   3.586  16.640  0.00  0.00    +0.000 C 
ENDROOT
BRANCH   1   8
ATOM      8  C   UNL     1       5.288   6.605  16.090  0.00  0.00    +0.000 C 
ATOM      9  O   UNL     1       4.792   7.185  15.131  0.00  0.00    +0.000 OA
BRANCH   8  10
ATOM     10  O   UNL     1       6.635   6.567  16.323  0.00  0.00    +0.000 OA
BRANCH  10  12
ATOM     11  C   UNL     1       7.847   8.198  17.633  0.00  0.00    +0.000 C 
ATOM     12  C   UNL     1       7.022   6.923  17.657  0.00  0.00    +0.000 C 
ENDBRANCH  10  12
ENDBRANCH   8  10
ENDBRANCH   1   8
BRANCH   2  13
ATOM     13  C   UNL     1       3.084   7.765  18.282  0.00  0.00    +0.000 C 
ATOM     14  C   UNL     1       2.133   8.443  17.614  0.00  0.00    +0.000 C 
BRANCH  14  15
ATOM     15  C   UNL     1       1.823   9.873  17.938  0.00  0.00    +0.000 C 
ATOM     16  O   UNL     1       2.700  10.730  17.892  0.00  0.00    +0.000 OA
ATOM     17  N   UNL     1       0.510  10.042  18.310  0.00  0.00    +0.000 N 
ATOM     18  C   UNL     1      -0.019  11.262  18.648  0.00  0.00    +0.000 A 
ATOM     19  N   UNL     1       0.448  12.470  18.470  0.00  0.00    +0.000 NA
ATOM     20  C   UNL     1      -0.450  13.403  18.972  0.00  0.00    +0.000 A 
ATOM     21  C   UNL     1      -0.161  14.851  18.807  0.00  0.00    +0.000 C 
ATOM     22  C   UNL     1      -1.559  12.859  19.593  0.00  0.00    +0.000 A 
ATOM     23  S   UNL     1      -1.546  11.153  19.415  0.00  0.00    +0.000 S 
ATOM     24  H   UNL     1      -0.105   9.256  18.424  0.00  0.00    +0.000 HD
ENDBRANCH  14  15
ENDBRANCH   2  13
BRANCH   5  25
ATOM     25  C   UNL     1       3.336   2.818  18.702  0.00  0.00    +0.000 C 
ATOM     26  C   UNL     1       2.302   2.119  17.830  0.00  0.00    +0.000 C 
ENDBRANCH   5  25
TORSDOF 6
ENDMDL
