MODEL 1
REMARK VINA RESULT:      -6.5      0.000      0.000
REMARK  Name = 
REMARK  5 active torsions:
REMARK  status: ('A' for Active; 'I' for Inactive)
REMARK    1  A    between atoms: C_1  and  C_2
REMARK    2  A    between atoms: C_5  and  S_6
REMARK    3  A    between atoms: S_6  and  N_7
REMARK    4  A    between atoms: C_10  and  C_11
REMARK    5  A    between atoms: C_17  and  C_18
REMARK                            x       y       z     vdW  Elec       q    Type
REMARK                         _______ _______ _______ _____ _____    ______ ____
ROOT
ATOM      1  C   UNL     1       5.191   4.247  13.137  0.00  0.00    +0.000 C 
ATOM      2  C   UNL     1       5.820   4.603  14.451  0.00  0.00    +0.000 A 
ATOM      3  C   UNL     1       7.026   4.069  14.870  0.00  0.00    +0.000 A 
ATOM      4  C   UNL     1       7.489   4.356  16.155  0.00  0.00    +0.000 A 
ATOM      5  C   UNL     1       6.717   5.121  17.055  0.00  0.00    +0.000 A 
ATOM      6  C   UNL     1       5.486   5.661  16.656  0.00  0.00    +0.000 A 
ATOM      7  C   UNL     1       5.127   5.457  15.315  0.00  0.00    +0.000 A 
ENDROOT
BRANCH   6   8
ATOM      8  C   UNL     1       4.614   6.568  17.486  0.00  0.00    +0.000 C 
ATOM      9  O   UNL     1       5.076   7.680  17.739  0.00  0.00    +0.000 OA
ATOM     10  N   UNL     1       3.284   6.195  17.854  0.00  0.00    +0.000 N 
ATOM     11  C   UNL     1       2.403   7.250  18.366  0.00  0.00    +0.000 C 
ATOM     12  C   UNL     1       2.024   7.106  19.843  0.00  0.00    +0.000 C 
ATOM     13  C   UNL     1       1.029   6.001  20.208  0.00  0.00    +0.000 C 
ATOM     14  C   UNL     1       1.351   4.572  19.749  0.00  0.00    +0.000 C 
ATOM     15  C   UNL     1       1.359   4.508  18.227  0.00  0.00    +0.000 C 
ATOM     16  C   UNL     1       2.658   4.907  17.537  0.00  0.00    +0.000 C 
BRANCH  14  17
ATOM     17  C   UNL     1       2.645   4.013  20.359  0.00  0.00    +0.000 C 
ATOM     18  C   UNL     1       2.840   2.464  20.313  0.00  0.00    +0.000 C 
ATOM     19  C   UNL     1       2.283   2.399  21.743  0.00  0.00    +0.000 C 
ATOM     20  C   UNL     1       2.701   3.874  21.907  0.00  0.00    +0.000 C 
ENDBRANCH  14  17
ENDBRANCH   6   8
BRANCH   5  21
ATOM     21  S   UNL     1       7.384   5.309  18.686  0.00  0.00    +0.000 S 
ATOM     22  O   UNL     1       6.350   5.234  19.678  0.00  0.00    +0.000 OA
ATOM     23  O   UNL     1       8.566   4.468  18.790  0.00  0.00    +0.000 OA
BRANCH  21  24
ATOM     24  N   UNL     1       8.003   6.868  18.639  0.00  0.00    +0.000 NA
ATOM     25  H   UNL     1       8.890   6.872  18.125  0.00  0.00    +0.000 HD
ATOM     26  H   UNL     1       7.303   7.534  18.318  0.00  0.00    +0.000 HD
ENDBRANCH  21  24
ENDBRANCH   5  21
TORSDOF 4
ENDMDL
MODEL 2
REMARK VINA RESULT:      -6.0     10.037     13.147
REMARK  Name = 
REMARK  5 active torsions:
REMARK  status: ('A' for Active; 'I' for Inactive)
REMARK    1  A    between atoms: C_1  and  C_2
REMARK    2  A    between atoms: C_5  and  S_6
REMARK    3  A    between atoms: S_6  and  N_7
REMARK    4  A    between atoms: C_10  and  C_11
REMARK    5  A    between atoms: C_17  and  C_18
REMARK                            x       y       z     vdW  Elec       q    Type
REMARK                         _______ _______ _______ _____ _____    ______ ____
ROOT
ATOM      1  C   UNL     1      -6.702  10.596  18.519  0.00  0.00    +0.000 C 
ATOM      2  C   UNL     1      -6.666  11.246  19.870  0.00  0.00    +0.000 A 
ATOM      3  C   UNL     1      -7.638  11.025  20.832  0.00  0.00    +0.000 A 
ATOM      4  C   UNL     1      -7.601  11.757  22.019  0.00  0.00    +0.000 A 
ATOM      5  C   UNL     1      -6.635  12.765  22.225  0.00  0.00    +0.000 A 
ATOM      6  C   UNL     1      -5.650  13.015  21.259  0.00  0.00    +0.000 A 
ATOM      7  C   UNL     1      -5.648  12.165  20.144  0.00  0.00    +0.000 A 
ENDROOT
BRANCH   6   8
ATOM      8  C   UNL     1      -4.512  13.994  21.398  0.00  0.00    +0.000 C 
ATOM      9  O   UNL     1      -4.740  15.146  21.029  0.00  0.00    +0.000 OA
ATOM     10  N   UNL     1      -3.283  13.626  22.030  0.00  0.00    +0.000 N 
ATOM     11  C   UNL     1      -2.372  14.708  22.417  0.00  0.00    +0.000 C 
ATOM     12  C   UNL     1      -1.058  14.749  21.630  0.00  0.00    +0.000 C 
ATOM     13  C   UNL     1      -0.020  13.669  21.941  0.00  0.00    +0.000 C 
ATOM     14  C   UNL     1      -0.471  12.204  21.866  0.00  0.00    +0.000 C 
ATOM     15  C   UNL     1      -1.538  11.937  22.921  0.00  0.00    +0.000 C 
ATOM     16  C   UNL     1      -2.972  12.287  22.539  0.00  0.00    +0.000 C 
BRANCH  14  17
ATOM     17  C   UNL     1      -0.924  11.777  20.462  0.00  0.00    +0.000 C 
ATOM     18  C   UNL     1      -0.654  10.295  20.049  0.00  0.00    +0.000 C 
ATOM     19  C   UNL     1       0.630  10.774  19.355  0.00  0.00    +0.000 C 
ATOM     20  C   UNL     1      -0.011  12.173  19.268  0.00  0.00    +0.000 C 
ENDBRANCH  14  17
ENDBRANCH   6   8
BRANCH   5  21
ATOM     21  S   UNL     1      -6.781  13.684  23.733  0.00  0.00    +0.000 S 
ATOM     22  O   UNL     1      -6.665  15.093  23.492  0.00  0.00    +0.000 OA
ATOM     23  O   UNL     1      -7.916  13.156  24.476  0.00  0.00    +0.000 OA
BRANCH  21  24
ATOM     24  N   UNL     1      -5.449  13.152  24.604  0.00  0.00    +0.000 NA
ATOM     25  H   UNL     1      -5.303  12.152  24.436  0.00  0.00    +0.000 HD
ATOM     26  H   UNL     1      -4.641  13.751  24.445  0.00  0.00    +0.000 HD
ENDBRANCH  21  24
ENDBRANCH   5  21
TORSDOF 4
ENDMDL
MODEL 3
REMARK VINA RESULT:      -5.8      7.524     10.346
REMARK  Name = 
REMARK  5 active torsions:
REMARK  status: ('A' for Active; 'I' for Inactive)
REMARK    1  A    between atoms: C_1  and  C_2
REMARK    2  A    between atoms: C_5  and  S_6
REMARK    3  A    between atoms: S_6  and  N_7
REMARK    4  A    between atoms: C_10  and  C_11
REMARK    5  A    between atoms: C_17  and  C_18
REMARK                            x       y       z     vdW  Elec       q    Type
REMARK                         _______ _______ _______ _____ _____    ______ ____
ROOT
ATOM      1  C   UNL     1       1.777   8.829  17.802  0.00  0.00    +0.000 C 
ATOM      2  C   UNL     1       1.220   9.530  19.005  0.00  0.00    +0.000 A 
ATOM      3  C   UNL     1       1.160   8.937  20.255  0.00  0.00    +0.000 A 
ATOM      4  C   UNL     1       0.520   9.608  21.298  0.00  0.00    +0.000 A 
ATOM      5  C   UNL     1      -0.124  10.845  21.084  0.00  0.00    +0.000 A 
ATOM      6  C   UNL     1      -0.087  11.458  19.823  0.00  0.00    +0.000 A 
ATOM      7  C   UNL     1       0.680  10.810  18.843  0.00  0.00    +0.000 A 
ENDROOT
BRANCH   6   8
ATOM      8  C   UNL     1      -0.652  12.814  19.489  0.00  0.00    +0.000 C 
ATOM      9  O   UNL     1      -1.763  12.823  18.960  0.00  0.00    +0.000 OA
ATOM     10  N   UNL     1       0.017  14.018  19.873  0.00  0.00    +0.000 N 
ATOM     11  C   UNL     1      -0.748  15.268  19.807  0.00  0.00    +0.000 C 
ATOM     12  C   UNL     1      -0.267  16.256  18.741  0.00  0.00    +0.000 C 
ATOM     13  C   UNL     1       1.048  16.993  19.009  0.00  0.00    +0.000 C 
ATOM     14  C   UNL     1       2.285  16.147  19.339  0.00  0.00    +0.000 C 
ATOM     15  C   UNL     1       2.064  15.398  20.647  0.00  0.00    +0.000 C 
ATOM     16  C   UNL     1       1.315  14.073  20.553  0.00  0.00    +0.000 C 
BRANCH  14  17
ATOM     17  C   UNL     1       2.704  15.209  18.198  0.00  0.00    +0.000 C 
ATOM     18  C   UNL     1       3.926  14.272  18.461  0.00  0.00    +0.000 C 
ATOM     19  C   UNL     1       4.814  15.314  17.766  0.00  0.00    +0.000 C 
ATOM     20  C   UNL     1       3.549  15.821  17.046  0.00  0.00    +0.000 C 
ENDBRANCH  14  17
ENDBRANCH   6   8
BRANCH   5  21
ATOM     21  S   UNL     1      -0.988  11.522  22.475  0.00  0.00    +0.000 S 
ATOM     22  O   UNL     1      -0.251  12.602  23.064  0.00  0.00    +0.000 OA
ATOM     23  O   UNL     1      -2.382  11.702  22.097  0.00  0.00    +0.000 OA
BRANCH  21  24
ATOM     24  N   UNL     1      -1.025  10.224  23.537  0.00  0.00    +0.000 NA
ATOM     25  H   UNL     1      -0.550  10.476  24.409  0.00  0.00    +0.000 HD
ATOM     26  H   UNL     1      -1.970   9.856  23.638  0.00  0.00    +0.000 HD
ENDBRANCH  21  24
ENDBRANCH   5  21
TORSDOF 4
ENDMDL
MODEL 4
REMARK VINA RESULT:      -5.6      1.213      1.625
REMARK  Name = 
REMARK  5 active torsions:
REMARK  status: ('A' for Active; 'I' for Inactive)
REMARK    1  A    between atoms: C_1  and  C_2
REMARK    2  A    between atoms: C_5  and  S_6
REMARK    3  A    between atoms: S_6  and  N_7
REMARK    4  A    between atoms: C_10  and  C_11
REMARK    5  A    between atoms: C_17  and  C_18
REMARK                            x       y       z     vdW  Elec       q    Type
REMARK                         _______ _______ _______ _____ _____    ______ ____
ROOT
ATOM      1  C   UNL     1       5.364   3.740  12.806  0.00  0.00    +0.000 C 
ATOM      2  C   UNL     1       5.814   4.288  14.127  0.00  0.00    +0.000 A 
ATOM      3  C   UNL     1       7.138   4.267  14.532  0.00  0.00    +0.000 A 
ATOM      4  C   UNL     1       7.463   4.687  15.823  0.00  0.00    +0.000 A 
ATOM      5  C   UNL     1       6.460   5.064  16.742  0.00  0.00    +0.000 A 
ATOM      6  C   UNL     1       5.112   5.079  16.357  0.00  0.00    +0.000 A 
ATOM      7  C   UNL     1       4.849   4.778  15.012  0.00  0.00    +0.000 A 
ENDROOT
BRANCH   6   8
ATOM      8  C   UNL     1       3.960   5.549  17.209  0.00  0.00    +0.000 C 
ATOM      9  O   UNL     1       3.846   6.767  17.342  0.00  0.00    +0.000 OA
ATOM     10  N   UNL     1       2.995   4.632  17.732  0.00  0.00    +0.000 N 
ATOM     11  C   UNL     1       1.747   5.193  18.259  0.00  0.00    +0.000 C 
ATOM     12  C   UNL     1       1.568   5.043  19.773  0.00  0.00    +0.000 C 
ATOM     13  C   UNL     1       1.247   3.645  20.306  0.00  0.00    +0.000 C 
ATOM     14  C   UNL     1       2.187   2.498  19.912  0.00  0.00    +0.000 C 
ATOM     15  C   UNL     1       2.138   2.286  18.404  0.00  0.00    +0.000 C 
ATOM     16  C   UNL     1       3.046   3.177  17.563  0.00  0.00    +0.000 C 
BRANCH  14  17
ATOM     17  C   UNL     1       3.623   2.683  20.424  0.00  0.00    +0.000 C 
ATOM     18  C   UNL     1       4.775   2.140  19.520  0.00  0.00    +0.000 C 
ATOM     19  C   UNL     1       4.769   0.858  20.365  0.00  0.00    +0.000 C 
ATOM     20  C   UNL     1       4.130   1.681  21.500  0.00  0.00    +0.000 C 
ENDBRANCH  14  17
ENDBRANCH   6   8
BRANCH   5  21
ATOM     21  S   UNL     1       7.015   5.466  18.376  0.00  0.00    +0.000 S 
ATOM     22  O   UNL     1       5.921   5.478  19.304  0.00  0.00    +0.000 OA
ATOM     23  O   UNL     1       8.207   4.680  18.654  0.00  0.00    +0.000 OA
BRANCH  21  24
ATOM     24  N   UNL     1       7.600   7.026  18.178  0.00  0.00    +0.000 NA
ATOM     25  H   UNL     1       8.264   7.244  18.928  0.00  0.00    +0.000 HD
ATOM     26  H   UNL     1       7.939   7.175  17.229  0.00  0.00    +0.000 HD
ENDBRANCH  21  24
ENDBRANCH   5  21
TORSDOF 4
ENDMDL
MODEL 5
REMARK VINA RESULT:      -5.5      9.739     11.003
REMARK  Name = 
REMARK  5 active torsions:
REMARK  status: ('A' for Active; 'I' for Inactive)
REMARK    1  A    between atoms: C_1  and  C_2
REMARK    2  A    between atoms: C_5  and  S_6
REMARK    3  A    between atoms: S_6  and  N_7
REMARK    4  A    between atoms: C_10  and  C_11
REMARK    5  A    between atoms: C_17  and  C_18
REMARK                            x       y       z     vdW  Elec       q    Type
REMARK                         _______ _______ _______ _____ _____    ______ ____
ROOT
ATOM      1  C   UNL     1       9.573  10.280  19.308  0.00  0.00    +0.000 C 
ATOM      2  C   UNL     1       9.761  11.712  18.905  0.00  0.00    +0.000 A 
ATOM      3  C   UNL     1       9.935  12.101  17.588  0.00  0.00    +0.000 A 
ATOM      4  C   UNL     1      10.222  13.436  17.303  0.00  0.00    +0.000 A 
ATOM      5  C   UNL     1      10.408  14.379  18.337  0.00  0.00    +0.000 A 
ATOM      6  C   UNL     1      10.251  14.005  19.679  0.00  0.00    +0.000 A 
ATOM      7  C   UNL     1       9.831  12.686  19.907  0.00  0.00    +0.000 A 
ENDROOT
BRANCH   6   8
ATOM      8  C   UNL     1      10.329  14.932  20.865  0.00  0.00    +0.000 C 
ATOM      9  O   UNL     1      11.417  15.473  21.058  0.00  0.00    +0.000 OA
ATOM     10  N   UNL     1       9.172  15.247  21.644  0.00  0.00    +0.000 N 
ATOM     11  C   UNL     1       9.264  16.393  22.556  0.00  0.00    +0.000 C 
ATOM     12  C   UNL     1       9.215  16.032  24.043  0.00  0.00    +0.000 C 
ATOM     13  C   UNL     1       7.863  15.595  24.615  0.00  0.00    +0.000 C 
ATOM     14  C   UNL     1       7.130  14.444  23.912  0.00  0.00    +0.000 C 
ATOM     15  C   UNL     1       6.760  14.858  22.493  0.00  0.00    +0.000 C 
ATOM     16  C   UNL     1       7.838  14.678  21.430  0.00  0.00    +0.000 C 
BRANCH  14  17
ATOM     17  C   UNL     1       7.904  13.118  23.946  0.00  0.00    +0.000 C 
ATOM     18  C   UNL     1       7.087  11.813  23.687  0.00  0.00    +0.000 C 
ATOM     19  C   UNL     1       6.969  11.642  25.209  0.00  0.00    +0.000 C 
ATOM     20  C   UNL     1       8.229  12.518  25.344  0.00  0.00    +0.000 C 
ENDBRANCH  14  17
ENDBRANCH   6   8
BRANCH   5  21
ATOM     21  S   UNL     1      10.877  16.010  17.826  0.00  0.00    +0.000 S 
ATOM     22  O   UNL     1       9.944  16.989  18.304  0.00  0.00    +0.000 OA
ATOM     23  O   UNL     1      12.302  16.168  18.075  0.00  0.00    +0.000 OA
BRANCH  21  24
ATOM     24  N   UNL     1      10.772  15.903  16.155  0.00  0.00    +0.000 NA
ATOM     25  H   UNL     1      11.689  15.666  15.765  0.00  0.00    +0.000 HD
ATOM     26  H   UNL     1      10.001  15.300  15.872  0.00  0.00    +0.000 HD
ENDBRANCH  21  24
ENDBRANCH   5  21
TORSDOF 4
ENDMDL
MODEL 6
REMARK VINA RESULT:      -5.5      7.522      9.837
REMARK  Name = 
REMARK  5 active torsions:
REMARK  status: ('A' for Active; 'I' for Inactive)
REMARK    1  A    between atoms: C_1  and  C_2
REMARK    2  A    between atoms: C_5  and  S_6
REMARK    3  A    between atoms: S_6  and  N_7
REMARK    4  A    between atoms: C_10  and  C_11
REMARK    5  A    between atoms: C_17  and  C_18
REMARK                            x       y       z     vdW  Elec       q    Type
REMARK                         _______ _______ _______ _____ _____    ______ ____
ROOT
ATOM      1  C   UNL     1       5.401  14.414  17.839  0.00  0.00    +0.000 C 
ATOM      2  C   UNL     1       4.035  14.915  18.204  0.00  0.00    +0.000 A 
ATOM      3  C   UNL     1       3.501  16.078  17.676  0.00  0.00    +0.000 A 
ATOM      4  C   UNL     1       2.275  16.542  18.153  0.00  0.00    +0.000 A 
ATOM      5  C   UNL     1       1.607  15.886  19.210  0.00  0.00    +0.000 A 
ATOM      6  C   UNL     1       2.136  14.714  19.768  0.00  0.00    +0.000 A 
ATOM      7  C   UNL     1       3.300  14.214  19.166  0.00  0.00    +0.000 A 
ENDROOT
BRANCH   6   8
ATOM      8  C   UNL     1       1.478  13.872  20.831  0.00  0.00    +0.000 C 
ATOM      9  O   UNL     1       1.753  14.158  21.996  0.00  0.00    +0.000 OA
ATOM     10  N   UNL     1       0.504  12.879  20.500  0.00  0.00    +0.000 N 
ATOM     11  C   UNL     1      -0.317  12.346  21.593  0.00  0.00    +0.000 C 
ATOM     12  C   UNL     1      -0.060  10.874  21.926  0.00  0.00    +0.000 C 
ATOM     13  C   UNL     1      -0.578   9.829  20.934  0.00  0.00    +0.000 C 
ATOM     14  C   UNL     1      -0.159   9.972  19.465  0.00  0.00    +0.000 C 
ATOM     15  C   UNL     1      -0.723  11.267  18.892  0.00  0.00    +0.000 C 
ATOM     16  C   UNL     1       0.094  12.530  19.136  0.00  0.00    +0.000 C 
BRANCH  14  17
ATOM     17  C   UNL     1       1.356   9.854  19.248  0.00  0.00    +0.000 C 
ATOM     18  C   UNL     1       1.863   9.837  17.771  0.00  0.00    +0.000 C 
ATOM     19  C   UNL     1       1.877   8.303  17.844  0.00  0.00    +0.000 C 
ATOM     20  C   UNL     1       1.986   8.438  19.375  0.00  0.00    +0.000 C 
ENDBRANCH  14  17
ENDBRANCH   6   8
BRANCH   5  21
ATOM     21  S   UNL     1       0.116  16.654  19.782  0.00  0.00    +0.000 S 
ATOM     22  O   UNL     1       0.067  16.683  21.215  0.00  0.00    +0.000 OA
ATOM     23  O   UNL     1      -0.088  17.873  19.014  0.00  0.00    +0.000 OA
BRANCH  21  24
ATOM     24  N   UNL     1      -1.066  15.613  19.202  0.00  0.00    +0.000 NA
ATOM     25  H   UNL     1      -1.569  15.189  19.987  0.00  0.00    +0.000 HD
ATOM     26  H   UNL     1      -1.645  16.068  18.498  0.00  0.00    +0.000 HD
ENDBRANCH  21  24
ENDBRANCH   5  21
TORSDOF 4
ENDMDL
MODEL 7
REMARK VINA RESULT:      -5.5     10.730     13.188
REMARK  Name = 
REMARK  5 active torsions:
REMARK  status: ('A' for Active; 'I' for Inactive)
REMARK    1  A    between atoms: C_1  and  C_2
REMARK    2  A    between atoms: C_5  and  S_6
REMARK    3  A    between atoms: S_6  and  N_7
REMARK    4  A    between atoms: C_10  and  C_11
REMARK    5  A    between atoms: C_17  and  C_18
REMARK                            x       y       z     vdW  Elec       q    Type
REMARK                         _______ _______ _______ _____ _____    ______ ____
ROOT
ATOM      1  C   UNL     1      -5.430  11.493  17.571  0.00  0.00    +0.000 C 
ATOM      2  C   UNL     1      -5.735  11.671  19.029  0.00  0.00    +0.000 A 
ATOM      3  C   UNL     1      -6.750  10.981  19.670  0.00  0.00    +0.000 A 
ATOM      4  C   UNL     1      -7.050  11.288  20.997  0.00  0.00    +0.000 A 
ATOM      5  C   UNL     1      -6.387  12.334  21.673  0.00  0.00    +0.000 A 
ATOM      6  C   UNL     1      -5.365  13.055  21.039  0.00  0.00    +0.000 A 
ATOM      7  C   UNL     1      -5.009  12.622  19.753  0.00  0.00    +0.000 A 
ENDROOT
BRANCH   6   8
ATOM      8  C   UNL     1      -4.520  14.127  21.678  0.00  0.00    +0.000 C 
ATOM      9  O   UNL     1      -5.023  15.248  21.742  0.00  0.00    +0.000 OA
ATOM     10  N   UNL     1      -3.257  13.825  22.276  0.00  0.00    +0.000 N 
ATOM     11  C   UNL     1      -2.664  14.841  23.153  0.00  0.00    +0.000 C 
ATOM     12  C   UNL     1      -1.382  15.482  22.612  0.00  0.00    +0.000 C 
ATOM     13  C   UNL     1      -0.111  14.629  22.625  0.00  0.00    +0.000 C 
ATOM     14  C   UNL     1      -0.170  13.252  21.949  0.00  0.00    +0.000 C 
ATOM     15  C   UNL     1      -1.164  12.360  22.682  0.00  0.00    +0.000 C 
ATOM     16  C   UNL     1      -2.628  12.500  22.281  0.00  0.00    +0.000 C 
BRANCH  14  17
ATOM     17  C   UNL     1      -0.459  13.325  20.442  0.00  0.00    +0.000 C 
ATOM     18  C   UNL     1       0.100  12.166  19.556  0.00  0.00    +0.000 C 
ATOM     19  C   UNL     1       1.313  13.055  19.243  0.00  0.00    +0.000 C 
ATOM     20  C   UNL     1       0.433  14.272  19.591  0.00  0.00    +0.000 C 
ENDBRANCH  14  17
ENDBRANCH   6   8
BRANCH   5  21
ATOM     21  S   UNL     1      -6.952  12.679  23.317  0.00  0.00    +0.000 S 
ATOM     22  O   UNL     1      -5.856  12.722  24.241  0.00  0.00    +0.000 OA
ATOM     23  O   UNL     1      -7.898  13.782  23.246  0.00  0.00    +0.000 OA
BRANCH  21  24
ATOM     24  N   UNL     1      -7.915  11.346  23.649  0.00  0.00    +0.000 NA
ATOM     25  H   UNL     1      -8.624  11.240  22.917  0.00  0.00    +0.000 HD
ATOM     26  H   UNL     1      -7.349  10.520  23.840  0.00  0.00    +0.000 HD
ENDBRANCH  21  24
ENDBRANCH   5  21
TORSDOF 4
ENDMDL
MODEL 8
REMARK VINA RESULT:      -5.4      9.221     12.722
REMARK  Name = 
REMARK  5 active torsions:
REMARK  status: ('A' for Active; 'I' for Inactive)
REMARK    1  A    between atoms: C_1  and  C_2
REMARK    2  A    between atoms: C_5  and  S_6
REMARK    3  A    between atoms: S_6  and  N_7
REMARK    4  A    between atoms: C_10  and  C_11
REMARK    5  A    between atoms: C_17  and  C_18
REMARK                            x       y       z     vdW  Elec       q    Type
REMARK                         _______ _______ _______ _____ _____    ______ ____
ROOT
ATOM      1  C   UNL     1      -0.122  16.905  24.791  0.00  0.00    +0.000 C 
ATOM      2  C   UNL     1      -1.217  15.969  24.375  0.00  0.00    +0.000 A 
ATOM      3  C   UNL     1      -2.546  16.183  24.700  0.00  0.00    +0.000 A 
ATOM      4  C   UNL     1      -3.492  15.209  24.380  0.00  0.00    +0.000 A 
ATOM      5  C   UNL     1      -3.108  13.982  23.798  0.00  0.00    +0.000 A 
ATOM      6  C   UNL     1      -1.766  13.737  23.473  0.00  0.00    +0.000 A 
ATOM      7  C   UNL     1      -0.874  14.799  23.690  0.00  0.00    +0.000 A 
ENDROOT
BRANCH   6   8
ATOM      8  C   UNL     1      -1.242  12.514  22.766  0.00  0.00    +0.000 C 
ATOM      9  O   UNL     1      -1.026  11.530  23.474  0.00  0.00    +0.000 OA
ATOM     10  N   UNL     1      -1.117  12.469  21.342  0.00  0.00    +0.000 N 
ATOM     11  C   UNL     1      -0.921  11.155  20.721  0.00  0.00    +0.000 C 
ATOM     12  C   UNL     1       0.452  10.952  20.075  0.00  0.00    +0.000 C 
ATOM     13  C   UNL     1       0.726  11.690  18.762  0.00  0.00    +0.000 C 
ATOM     14  C   UNL     1       0.508  13.209  18.740  0.00  0.00    +0.000 C 
ATOM     15  C   UNL     1      -0.963  13.523  18.985  0.00  0.00    +0.000 C 
ATOM     16  C   UNL     1      -1.410  13.588  20.441  0.00  0.00    +0.000 C 
BRANCH  14  17
ATOM     17  C   UNL     1       1.431  13.972  19.701  0.00  0.00    +0.000 C 
ATOM     18  C   UNL     1       1.616  15.501  19.445  0.00  0.00    +0.000 C 
ATOM     19  C   UNL     1       2.900  15.168  18.671  0.00  0.00    +0.000 C 
ATOM     20  C   UNL     1       2.963  13.848  19.465  0.00  0.00    +0.000 C 
ENDBRANCH  14  17
ENDBRANCH   6   8
BRANCH   5  21
ATOM     21  S   UNL     1      -4.404  12.799  23.552  0.00  0.00    +0.000 S 
ATOM     22  O   UNL     1      -4.549  12.474  22.162  0.00  0.00    +0.000 OA
ATOM     23  O   UNL     1      -4.246  11.744  24.542  0.00  0.00    +0.000 OA
BRANCH  21  24
ATOM     24  N   UNL     1      -5.758  13.641  24.075  0.00  0.00    +0.000 NA
ATOM     25  H   UNL     1      -5.468  14.502  24.549  0.00  0.00    +0.000 HD
ATOM     26  H   UNL     1      -6.434  13.756  23.322  0.00  0.00    +0.000 HD
ENDBRANCH  21  24
ENDBRANCH   5  21
TORSDOF 4
ENDMDL
MODEL 9
REMARK VINA RESULT:      -5.4      9.415     12.015
REMARK  Name = 
REMARK  5 active torsions:
REMARK  status: ('A' for Active; 'I' for Inactive)
REMARK    1  A    between atoms: C_1  and  C_2
REMARK    2  A    between atoms: C_5  and  S_6
REMARK    3  A    between atoms: S_6  and  N_7
REMARK    4  A    between atoms: C_10  and  C_11
REMARK    5  A    between atoms: C_17  and  C_18
REMARK                            x       y       z     vdW  Elec       q    Type
REMARK                         _______ _______ _______ _____ _____    ______ ____
ROOT
ATOM      1  C   UNL     1      -0.060   9.648  20.574  0.00  0.00    +0.000 C 
ATOM      2  C   UNL     1      -0.272  11.042  21.084  0.00  0.00    +0.000 A 
ATOM      3  C   UNL     1       0.708  12.017  21.022  0.00  0.00    +0.000 A 
ATOM      4  C   UNL     1       0.477  13.255  21.625  0.00  0.00    +0.000 A 
ATOM      5  C   UNL     1      -0.705  13.502  22.354  0.00  0.00    +0.000 A 
ATOM      6  C   UNL     1      -1.706  12.524  22.442  0.00  0.00    +0.000 A 
ATOM      7  C   UNL     1      -1.486  11.348  21.709  0.00  0.00    +0.000 A 
ENDROOT
BRANCH   6   8
ATOM      8  C   UNL     1      -3.047  12.696  23.107  0.00  0.00    +0.000 C 
ATOM      9  O   UNL     1      -3.117  12.345  24.284  0.00  0.00    +0.000 OA
ATOM     10  N   UNL     1      -4.136  13.338  22.438  0.00  0.00    +0.000 N 
ATOM     11  C   UNL     1      -5.279  13.756  23.256  0.00  0.00    +0.000 C 
ATOM     12  C   UNL     1      -6.576  12.988  22.983  0.00  0.00    +0.000 C 
ATOM     13  C   UNL     1      -7.310  13.294  21.675  0.00  0.00    +0.000 C 
ATOM     14  C   UNL     1      -6.513  13.185  20.368  0.00  0.00    +0.000 C 
ATOM     15  C   UNL     1      -5.395  14.221  20.358  0.00  0.00    +0.000 C 
ATOM     16  C   UNL     1      -4.099  13.826  21.056  0.00  0.00    +0.000 C 
BRANCH  14  17
ATOM     17  C   UNL     1      -5.993  11.768  20.087  0.00  0.00    +0.000 C 
ATOM     18  C   UNL     1      -5.495  11.470  18.637  0.00  0.00    +0.000 C 
ATOM     19  C   UNL     1      -6.883  10.889  18.331  0.00  0.00    +0.000 C 
ATOM     20  C   UNL     1      -7.053  10.656  19.845  0.00  0.00    +0.000 C 
ENDBRANCH  14  17
ENDBRANCH   6   8
BRANCH   5  21
ATOM     21  S   UNL     1      -0.808  15.079  23.156  0.00  0.00    +0.000 S 
ATOM     22  O   UNL     1      -1.750  15.934  22.494  0.00  0.00    +0.000 OA
ATOM     23  O   UNL     1      -0.901  14.851  24.590  0.00  0.00    +0.000 OA
BRANCH  21  24
ATOM     24  N   UNL     1       0.743  15.686  22.947  0.00  0.00    +0.000 NA
ATOM     25  H   UNL     1       0.703  16.703  22.824  0.00  0.00    +0.000 HD
ATOM     26  H   UNL     1       1.371  15.352  23.676  0.00  0.00    +0.000 HD
ENDBRANCH  21  24
ENDBRANCH   5  21
TORSDOF 4
ENDMDL
