MODEL 1
REMARK VINA RESULT:      -7.0      0.000      0.000
REMARK  Name = 
REMARK  8 active torsions:
REMARK  status: ('A' for Active; 'I' for Inactive)
REMARK    1  A    between atoms: C_1  and  C_2
REMARK    2  A    between atoms: C_2  and  C_3
REMARK    3  A    between atoms: C_3  and  N_4
REMARK    4  A    between atoms: C_6  and  C_7
REMARK    5  A    between atoms: C_9  and  C_10
REMARK    6  A    between atoms: N_16  and  C_17
REMARK    7  A    between atoms: C_17  and  C_18
REMARK    8  A    between atoms: C_18  and  O_20
REMARK                            x       y       z     vdW  Elec       q    Type
REMARK                         _______ _______ _______ _____ _____    ______ ____
ROOT
ATOM      1  N   UNL     1       3.768   4.358  19.400  0.00  0.00    +0.000 N 
ATOM      2  N   UNL     1       2.844   4.739  20.308  0.00  0.00    +0.000 NA
ATOM      3  C   UNL     1       2.425   5.941  19.911  0.00  0.00    +0.000 A 
ATOM      4  C   UNL     1       1.356   6.614  20.697  0.00  0.00    +0.000 C 
ATOM      5  C   UNL     1       3.124   6.351  18.749  0.00  0.00    +0.000 A 
ATOM      6  C   UNL     1       3.063   7.525  17.941  0.00  0.00    +0.000 A 
ATOM      7  C   UNL     1       3.857   7.642  16.870  0.00  0.00    +0.000 A 
ATOM      8  C   UNL     1       4.794   6.580  16.479  0.00  0.00    +0.000 A 
ATOM      9  O   UNL     1       5.497   6.665  15.485  0.00  0.00    +0.000 OA
ATOM     10  N   UNL     1       4.816   5.378  17.289  0.00  0.00    +0.000 N 
ATOM     11  C   UNL     1       3.982   5.314  18.427  0.00  0.00    +0.000 A 
ENDROOT
BRANCH   6  12
ATOM     12  C   UNL     1       2.081   8.600  18.307  0.00  0.00    +0.000 C 
ATOM     13  F   UNL     1       2.571   9.835  18.004  0.00  0.00    +0.000 F 
ATOM     14  F   UNL     1       0.937   8.476  17.586  0.00  0.00    +0.000 F 
ENDBRANCH   6  12
BRANCH   1  15
ATOM     15  C   UNL     1       4.340   3.040  19.591  0.00  0.00    +0.000 C 
BRANCH  15  17
ATOM     16  C   UNL     1       2.724   2.187  17.824  0.00  0.00    +0.000 C 
ATOM     17  C   UNL     1       3.436   1.891  19.137  0.00  0.00    +0.000 C 
ENDBRANCH  15  17
ENDBRANCH   1  15
BRANCH  10  18
ATOM     18  C   UNL     1       5.680   4.287  16.782  0.00  0.00    +0.000 C 
BRANCH  18  19
ATOM     19  C   UNL     1       7.174   4.465  16.936  0.00  0.00    +0.000 C 
ATOM     20  O   UNL     1       7.779   4.375  17.994  0.00  0.00    +0.000 OA
BRANCH  19  21
ATOM     21  O   UNL     1       7.822   4.648  15.758  0.00  0.00    +0.000 OA
ATOM     22  H   UNL     1       8.748   4.337  15.696  0.00  0.00    +0.000 HD
ENDBRANCH  19  21
ENDBRANCH  18  19
ENDBRANCH  10  18
TORSDOF 6
ENDMDL
MODEL 2
REMARK VINA RESULT:      -6.9      2.689      4.317
REMARK  Name = 
REMARK  8 active torsions:
REMARK  status: ('A' for Active; 'I' for Inactive)
REMARK    1  A    between atoms: C_1  and  C_2
REMARK    2  A    between atoms: C_2  and  C_3
REMARK    3  A    between atoms: C_3  and  N_4
REMARK    4  A    between atoms: C_6  and  C_7
REMARK    5  A    between atoms: C_9  and  C_10
REMARK    6  A    between atoms: N_16  and  C_17
REMARK    7  A    between atoms: C_17  and  C_18
REMARK    8  A    between atoms: C_18  and  O_20
REMARK                            x       y       z     vdW  Elec       q    Type
REMARK                         _______ _______ _______ _____ _____    ______ ____
ROOT
ATOM      1  N   UNL     1       4.103   5.462  17.606  0.00  0.00    +0.000 N 
ATOM      2  N   UNL     1       3.866   6.717  17.169  0.00  0.00    +0.000 NA
ATOM      3  C   UNL     1       3.054   7.265  18.072  0.00  0.00    +0.000 A 
ATOM      4  C   UNL     1       2.644   8.684  17.889  0.00  0.00    +0.000 C 
ATOM      5  C   UNL     1       2.736   6.328  19.085  0.00  0.00    +0.000 A 
ATOM      6  C   UNL     1       1.924   6.400  20.257  0.00  0.00    +0.000 A 
ATOM      7  C   UNL     1       1.807   5.333  21.057  0.00  0.00    +0.000 A 
ATOM      8  C   UNL     1       2.510   4.073  20.777  0.00  0.00    +0.000 A 
ATOM      9  O   UNL     1       2.436   3.108  21.519  0.00  0.00    +0.000 OA
ATOM     10  N   UNL     1       3.361   4.029  19.604  0.00  0.00    +0.000 N 
ATOM     11  C   UNL     1       3.427   5.170  18.774  0.00  0.00    +0.000 A 
ENDROOT
BRANCH   6  12
ATOM     12  C   UNL     1       1.233   7.695  20.574  0.00  0.00    +0.000 C 
ATOM     13  F   UNL     1       0.088   7.478  21.282  0.00  0.00    +0.000 F 
ATOM     14  F   UNL     1       2.009   8.475  21.370  0.00  0.00    +0.000 F 
ENDBRANCH   6  12
BRANCH   1  15
ATOM     15  C   UNL     1       5.016   4.671  16.804  0.00  0.00    +0.000 C 
BRANCH  15  17
ATOM     16  C   UNL     1       6.767   4.786  14.965  0.00  0.00    +0.000 C 
ATOM     17  C   UNL     1       5.461   5.350  15.506  0.00  0.00    +0.000 C 
ENDBRANCH  15  17
ENDBRANCH   1  15
BRANCH  10  18
ATOM     18  C   UNL     1       4.147   2.786  19.436  0.00  0.00    +0.000 C 
BRANCH  18  19
ATOM     19  C   UNL     1       3.583   1.737  18.504  0.00  0.00    +0.000 C 
ATOM     20  O   UNL     1       2.603   1.895  17.790  0.00  0.00    +0.000 OA
BRANCH  19  21
ATOM     21  O   UNL     1       4.327   0.603  18.451  0.00  0.00    +0.000 OA
ATOM     22  H   UNL     1       4.520   0.147  19.295  0.00  0.00    +0.000 HD
ENDBRANCH  19  21
ENDBRANCH  18  19
ENDBRANCH  10  18
TORSDOF 6
ENDMDL
MODEL 3
REMARK VINA RESULT:      -6.7      2.785      4.530
REMARK  Name = 
REMARK  8 active torsions:
REMARK  status: ('A' for Active; 'I' for Inactive)
REMARK    1  A    between atoms: C_1  and  C_2
REMARK    2  A    between atoms: C_2  and  C_3
REMARK    3  A    between atoms: C_3  and  N_4
REMARK    4  A    between atoms: C_6  and  C_7
REMARK    5  A    between atoms: C_9  and  C_10
REMARK    6  A    between atoms: N_16  and  C_17
REMARK    7  A    between atoms: C_17  and  C_18
REMARK    8  A    between atoms: C_18  and  O_20
REMARK                            x       y       z     vdW  Elec       q    Type
REMARK                         _______ _______ _______ _____ _____    ______ ____
ROOT
ATOM      1  N   UNL     1       2.878   6.649  18.372  0.00  0.00    +0.000 N 
ATOM      2  N   UNL     1       2.003   6.325  19.349  0.00  0.00    +0.000 NA
ATOM      3  C   UNL     1       2.052   4.997  19.449  0.00  0.00    +0.000 A 
ATOM      4  C   UNL     1       1.219   4.333  20.487  0.00  0.00    +0.000 C 
ATOM      5  C   UNL     1       2.947   4.461  18.490  0.00  0.00    +0.000 A 
ATOM      6  C   UNL     1       3.354   3.129  18.178  0.00  0.00    +0.000 A 
ATOM      7  C   UNL     1       4.243   2.913  17.201  0.00  0.00    +0.000 A 
ATOM      8  C   UNL     1       4.838   4.017  16.435  0.00  0.00    +0.000 A 
ATOM      9  O   UNL     1       5.674   3.831  15.567  0.00  0.00    +0.000 OA
ATOM     10  N   UNL     1       4.442   5.366  16.791  0.00  0.00    +0.000 N 
ATOM     11  C   UNL     1       3.478   5.541  17.808  0.00  0.00    +0.000 A 
ENDROOT
BRANCH   6  12
ATOM     12  C   UNL     1       2.783   1.996  18.980  0.00  0.00    +0.000 C 
ATOM     13  F   UNL     1       1.495   1.738  18.616  0.00  0.00    +0.000 F 
ATOM     14  F   UNL     1       3.465   0.845  18.745  0.00  0.00    +0.000 F 
ENDBRANCH   6  12
BRANCH   1  15
ATOM     15  C   UNL     1       3.042   8.066  18.111  0.00  0.00    +0.000 C 
BRANCH  15  17
ATOM     16  C   UNL     1       1.781  10.272  18.169  0.00  0.00    +0.000 C 
ATOM     17  C   UNL     1       1.739   8.800  17.785  0.00  0.00    +0.000 C 
ENDBRANCH  15  17
ENDBRANCH   1  15
BRANCH  10  18
ATOM     18  C   UNL     1       5.163   6.447  16.082  0.00  0.00    +0.000 C 
BRANCH  18  19
ATOM     19  C   UNL     1       6.518   6.842  16.627  0.00  0.00    +0.000 C 
ATOM     20  O   UNL     1       6.696   7.642  17.533  0.00  0.00    +0.000 OA
BRANCH  19  21
ATOM     21  O   UNL     1       7.547   6.149  16.076  0.00  0.00    +0.000 OA
ATOM     22  H   UNL     1       7.462   5.175  16.024  0.00  0.00    +0.000 HD
ENDBRANCH  19  21
ENDBRANCH  18  19
ENDBRANCH  10  18
TORSDOF 6
ENDMDL
MODEL 4
REMARK VINA RESULT:      -6.6      2.055      2.451
REMARK  Name = 
REMARK  8 active torsions:
REMARK  status: ('A' for Active; 'I' for Inactive)
REMARK    1  A    between atoms: C_1  and  C_2
REMARK    2  A    between atoms: C_2  and  C_3
REMARK    3  A    between atoms: C_3  and  N_4
REMARK    4  A    between atoms: C_6  and  C_7
REMARK    5  A    between atoms: C_9  and  C_10
REMARK    6  A    between atoms: N_16  and  C_17
REMARK    7  A    between atoms: C_17  and  C_18
REMARK    8  A    between atoms: C_18  and  O_20
REMARK                            x       y       z     vdW  Elec       q    Type
REMARK                         _______ _______ _______ _____ _____    ______ ____
ROOT
ATOM      1  N   UNL     1       2.455   5.176  20.505  0.00  0.00    +0.000 N 
ATOM      2  N   UNL     1       1.622   5.969  21.214  0.00  0.00    +0.000 NA
ATOM      3  C   UNL     1       1.524   7.101  20.518  0.00  0.00    +0.000 A 
ATOM      4  C   UNL     1       0.626   8.172  21.029  0.00  0.00    +0.000 C 
ATOM      5  C   UNL     1       2.342   7.045  19.363  0.00  0.00    +0.000 A 
ATOM      6  C   UNL     1       2.599   7.969  18.306  0.00  0.00    +0.000 A 
ATOM      7  C   UNL     1       3.433   7.638  17.314  0.00  0.00    +0.000 A 
ATOM      8  C   UNL     1       4.094   6.326  17.262  0.00  0.00    +0.000 A 
ATOM      9  O   UNL     1       4.829   6.003  16.344  0.00  0.00    +0.000 OA
ATOM     10  N   UNL     1       3.793   5.384  18.323  0.00  0.00    +0.000 N 
ATOM     11  C   UNL     1       2.930   5.792  19.364  0.00  0.00    +0.000 A 
ENDROOT
BRANCH   6  12
ATOM     12  C   UNL     1       1.898   9.297  18.327  0.00  0.00    +0.000 C 
ATOM     13  F   UNL     1       2.622  10.244  17.666  0.00  0.00    +0.000 F 
ATOM     14  F   UNL     1       0.710   9.227  17.673  0.00  0.00    +0.000 F 
ENDBRANCH   6  12
BRANCH   1  15
ATOM     15  C   UNL     1       2.679   3.849  21.042  0.00  0.00    +0.000 C 
BRANCH  15  17
ATOM     16  C   UNL     1       0.688   2.850  19.819  0.00  0.00    +0.000 C 
ATOM     17  C   UNL     1       1.415   2.993  21.149  0.00  0.00    +0.000 C 
ENDBRANCH  15  17
ENDBRANCH   1  15
BRANCH  10  18
ATOM     18  C   UNL     1       4.379   4.035  18.159  0.00  0.00    +0.000 C 
BRANCH  18  19
ATOM     19  C   UNL     1       3.481   2.960  17.588  0.00  0.00    +0.000 C 
ATOM     20  O   UNL     1       2.495   3.172  16.898  0.00  0.00    +0.000 OA
BRANCH  19  21
ATOM     21  O   UNL     1       3.921   1.700  17.834  0.00  0.00    +0.000 OA
ATOM     22  H   UNL     1       4.798   1.448  17.480  0.00  0.00    +0.000 HD
ENDBRANCH  19  21
ENDBRANCH  18  19
ENDBRANCH  10  18
TORSDOF 6
ENDMDL
MODEL 5
REMARK VINA RESULT:      -6.6      1.766      2.311
REMARK  Name = 
REMARK  8 active torsions:
REMARK  status: ('A' for Active; 'I' for Inactive)
REMARK    1  A    between atoms: C_1  and  C_2
REMARK    2  A    between atoms: C_2  and  C_3
REMARK    3  A    between atoms: C_3  and  N_4
REMARK    4  A    between atoms: C_6  and  C_7
REMARK    5  A    between atoms: C_9  and  C_10
REMARK    6  A    between atoms: N_16  and  C_17
REMARK    7  A    between atoms: C_17  and  C_18
REMARK    8  A    between atoms: C_18  and  O_20
REMARK                            x       y       z     vdW  Elec       q    Type
REMARK                         _______ _______ _______ _____ _____    ______ ____
ROOT
ATOM      1  N   UNL     1       2.095   5.742  20.579  0.00  0.00    +0.000 N 
ATOM      2  N   UNL     1       1.283   6.576  21.263  0.00  0.00    +0.000 NA
ATOM      3  C   UNL     1       1.253   7.707  20.558  0.00  0.00    +0.000 A 
ATOM      4  C   UNL     1       0.393   8.821  21.041  0.00  0.00    +0.000 C 
ATOM      5  C   UNL     1       2.093   7.605  19.422  0.00  0.00    +0.000 A 
ATOM      6  C   UNL     1       2.416   8.509  18.367  0.00  0.00    +0.000 A 
ATOM      7  C   UNL     1       3.257   8.132  17.396  0.00  0.00    +0.000 A 
ATOM      8  C   UNL     1       3.859   6.792  17.368  0.00  0.00    +0.000 A 
ATOM      9  O   UNL     1       4.599   6.429  16.469  0.00  0.00    +0.000 OA
ATOM     10  N   UNL     1       3.490   5.873  18.427  0.00  0.00    +0.000 N 
ATOM     11  C   UNL     1       2.624   6.327  19.446  0.00  0.00    +0.000 A 
ENDROOT
BRANCH   6  12
ATOM     12  C   UNL     1       1.776   9.868  18.363  0.00  0.00    +0.000 C 
ATOM     13  F   UNL     1       2.510  10.753  17.630  0.00  0.00    +0.000 F 
ATOM     14  F   UNL     1       0.557   9.826  17.766  0.00  0.00    +0.000 F 
ENDBRANCH   6  12
BRANCH   1  15
ATOM     15  C   UNL     1       2.246   4.409  21.129  0.00  0.00    +0.000 C 
BRANCH  15  17
ATOM     16  C   UNL     1       1.651   2.264  19.904  0.00  0.00    +0.000 C 
ATOM     17  C   UNL     1       1.136   3.435  20.729  0.00  0.00    +0.000 C 
ENDBRANCH  15  17
ENDBRANCH   1  15
BRANCH  10  18
ATOM     18  C   UNL     1       4.018   4.497  18.285  0.00  0.00    +0.000 C 
BRANCH  18  19
ATOM     19  C   UNL     1       5.234   4.138  19.110  0.00  0.00    +0.000 C 
ATOM     20  O   UNL     1       6.115   4.923  19.428  0.00  0.00    +0.000 OA
BRANCH  19  21
ATOM     21  O   UNL     1       5.224   2.859  19.562  0.00  0.00    +0.000 OA
ATOM     22  H   UNL     1       5.223   2.142  18.896  0.00  0.00    +0.000 HD
ENDBRANCH  19  21
ENDBRANCH  18  19
ENDBRANCH  10  18
TORSDOF 6
ENDMDL
MODEL 6
REMARK VINA RESULT:      -6.4      2.623      4.143
REMARK  Name = 
REMARK  8 active torsions:
REMARK  status: ('A' for Active; 'I' for Inactive)
REMARK    1  A    between atoms: C_1  and  C_2
REMARK    2  A    between atoms: C_2  and  C_3
REMARK    3  A    between atoms: C_3  and  N_4
REMARK    4  A    between atoms: C_6  and  C_7
REMARK    5  A    between atoms: C_9  and  C_10
REMARK    6  A    between atoms: N_16  and  C_17
REMARK    7  A    between atoms: C_17  and  C_18
REMARK    8  A    between atoms: C_18  and  O_20
REMARK                            x       y       z     vdW  Elec       q    Type
REMARK                         _______ _______ _______ _____ _____    ______ ____
ROOT
ATOM      1  N   UNL     1       3.796   4.746  17.352  0.00  0.00    +0.000 N 
ATOM      2  N   UNL     1       4.070   6.013  16.973  0.00  0.00    +0.000 NA
ATOM      3  C   UNL     1       3.486   6.794  17.881  0.00  0.00    +0.000 A 
ATOM      4  C   UNL     1       3.649   8.268  17.759  0.00  0.00    +0.000 C 
ATOM      5  C   UNL     1       2.794   6.011  18.837  0.00  0.00    +0.000 A 
ATOM      6  C   UNL     1       2.019   6.341  19.989  0.00  0.00    +0.000 A 
ATOM      7  C   UNL     1       1.474   5.370  20.731  0.00  0.00    +0.000 A 
ATOM      8  C   UNL     1       1.661   3.949  20.407  0.00  0.00    +0.000 A 
ATOM      9  O   UNL     1       1.196   3.057  21.097  0.00  0.00    +0.000 OA
ATOM     10  N   UNL     1       2.483   3.629  19.255  0.00  0.00    +0.000 N 
ATOM     11  C   UNL     1       3.010   4.689  18.486  0.00  0.00    +0.000 A 
ENDROOT
BRANCH   6  12
ATOM     12  C   UNL     1       1.854   7.789  20.353  0.00  0.00    +0.000 C 
ATOM     13  F   UNL     1       1.001   8.416  19.494  0.00  0.00    +0.000 F 
ATOM     14  F   UNL     1       1.292   7.918  21.582  0.00  0.00    +0.000 F 
ENDBRANCH   6  12
BRANCH   1  15
ATOM     15  C   UNL     1       4.378   3.699  16.536  0.00  0.00    +0.000 C 
BRANCH  15  17
ATOM     16  C   UNL     1       5.863   4.049  14.503  0.00  0.00    +0.000 C 
ATOM     17  C   UNL     1       5.786   4.012  16.023  0.00  0.00    +0.000 C 
ENDBRANCH  15  17
ENDBRANCH   1  15
BRANCH  10  18
ATOM     18  C   UNL     1       2.748   2.188  19.046  0.00  0.00    +0.000 C 
BRANCH  18  19
ATOM     19  C   UNL     1       4.137   1.690  19.378  0.00  0.00    +0.000 C 
ATOM     20  O   UNL     1       4.873   2.188  20.217  0.00  0.00    +0.000 OA
BRANCH  19  21
ATOM     21  O   UNL     1       4.479   0.556  18.715  0.00  0.00    +0.000 OA
ATOM     22  H   UNL     1       3.768  -0.089  18.523  0.00  0.00    +0.000 HD
ENDBRANCH  19  21
ENDBRANCH  18  19
ENDBRANCH  10  18
TORSDOF 6
ENDMDL
MODEL 7
REMARK VINA RESULT:      -6.4      2.645      4.243
REMARK  Name = 
REMARK  8 active torsions:
REMARK  status: ('A' for Active; 'I' for Inactive)
REMARK    1  A    between atoms: C_1  and  C_2
REMARK    2  A    between atoms: C_2  and  C_3
REMARK    3  A    between atoms: C_3  and  N_4
REMARK    4  A    between atoms: C_6  and  C_7
REMARK    5  A    between atoms: C_9  and  C_10
REMARK    6  A    between atoms: N_16  and  C_17
REMARK    7  A    between atoms: C_17  and  C_18
REMARK    8  A    between atoms: C_18  and  O_20
REMARK                            x       y       z     vdW  Elec       q    Type
REMARK                         _______ _______ _______ _____ _____    ______ ____
ROOT
ATOM      1  N   UNL     1       3.983   5.883  17.524  0.00  0.00    +0.000 N 
ATOM      2  N   UNL     1       3.700   7.144  17.134  0.00  0.00    +0.000 NA
ATOM      3  C   UNL     1       2.897   7.640  18.075  0.00  0.00    +0.000 A 
ATOM      4  C   UNL     1       2.442   9.051  17.948  0.00  0.00    +0.000 C 
ATOM      5  C   UNL     1       2.630   6.662  19.064  0.00  0.00    +0.000 A 
ATOM      6  C   UNL     1       1.846   6.672  20.256  0.00  0.00    +0.000 A 
ATOM      7  C   UNL     1       1.779   5.577  21.023  0.00  0.00    +0.000 A 
ATOM      8  C   UNL     1       2.510   4.348  20.686  0.00  0.00    +0.000 A 
ATOM      9  O   UNL     1       2.481   3.357  21.397  0.00  0.00    +0.000 OA
ATOM     10  N   UNL     1       3.331   4.366  19.491  0.00  0.00    +0.000 N 
ATOM     11  C   UNL     1       3.345   5.534  18.698  0.00  0.00    +0.000 A 
ENDROOT
BRANCH   6  12
ATOM     12  C   UNL     1       1.128   7.936  20.633  0.00  0.00    +0.000 C 
ATOM     13  F   UNL     1      -0.029   7.661  21.300  0.00  0.00    +0.000 F 
ATOM     14  F   UNL     1       1.873   8.679  21.491  0.00  0.00    +0.000 F 
ENDBRANCH   6  12
BRANCH   1  15
ATOM     15  C   UNL     1       4.897   5.145  16.675  0.00  0.00    +0.000 C 
BRANCH  15  17
ATOM     16  C   UNL     1       7.281   4.745  17.461  0.00  0.00    +0.000 C 
ATOM     17  C   UNL     1       6.337   5.665  16.701  0.00  0.00    +0.000 C 
ENDBRANCH  15  17
ENDBRANCH   1  15
BRANCH  10  18
ATOM     18  C   UNL     1       4.147   3.152  19.264  0.00  0.00    +0.000 C 
BRANCH  18  19
ATOM     19  C   UNL     1       3.542   2.070  18.397  0.00  0.00    +0.000 C 
ATOM     20  O   UNL     1       3.853   0.889  18.441  0.00  0.00    +0.000 OA
BRANCH  19  21
ATOM     21  O   UNL     1       2.530   2.511  17.607  0.00  0.00    +0.000 OA
ATOM     22  H   UNL     1       2.331   3.469  17.617  0.00  0.00    +0.000 HD
ENDBRANCH  19  21
ENDBRANCH  18  19
ENDBRANCH  10  18
TORSDOF 6
ENDMDL
MODEL 8
REMARK VINA RESULT:      -6.3      2.490      4.148
REMARK  Name = 
REMARK  8 active torsions:
REMARK  status: ('A' for Active; 'I' for Inactive)
REMARK    1  A    between atoms: C_1  and  C_2
REMARK    2  A    between atoms: C_2  and  C_3
REMARK    3  A    between atoms: C_3  and  N_4
REMARK    4  A    between atoms: C_6  and  C_7
REMARK    5  A    between atoms: C_9  and  C_10
REMARK    6  A    between atoms: N_16  and  C_17
REMARK    7  A    between atoms: C_17  and  C_18
REMARK    8  A    between atoms: C_18  and  O_20
REMARK                            x       y       z     vdW  Elec       q    Type
REMARK                         _______ _______ _______ _____ _____    ______ ____
ROOT
ATOM      1  N   UNL     1       3.596   5.750  17.512  0.00  0.00    +0.000 N 
ATOM      2  N   UNL     1       3.507   7.054  17.170  0.00  0.00    +0.000 NA
ATOM      3  C   UNL     1       2.814   7.635  18.148  0.00  0.00    +0.000 A 
ATOM      4  C   UNL     1       2.584   9.104  18.079  0.00  0.00    +0.000 C 
ATOM      5  C   UNL     1       2.420   6.677  19.114  0.00  0.00    +0.000 A 
ATOM      6  C   UNL     1       1.676   6.768  20.329  0.00  0.00    +0.000 A 
ATOM      7  C   UNL     1       1.456   5.672  21.063  0.00  0.00    +0.000 A 
ATOM      8  C   UNL     1       1.976   4.355  20.667  0.00  0.00    +0.000 A 
ATOM      9  O   UNL     1       1.809   3.357  21.348  0.00  0.00    +0.000 OA
ATOM     10  N   UNL     1       2.761   4.287  19.450  0.00  0.00    +0.000 N 
ATOM     11  C   UNL     1       2.940   5.465  18.693  0.00  0.00    +0.000 A 
ENDROOT
BRANCH   6  12
ATOM     12  C   UNL     1       1.175   8.115  20.765  0.00  0.00    +0.000 C 
ATOM     13  F   UNL     1      -0.071   8.021  21.310  0.00  0.00    +0.000 F 
ATOM     14  F   UNL     1       1.961   8.630  21.745  0.00  0.00    +0.000 F 
ENDBRANCH   6  12
BRANCH   1  15
ATOM     15  C   UNL     1       4.363   4.909  16.615  0.00  0.00    +0.000 C 
BRANCH  15  17
ATOM     16  C   UNL     1       6.601   4.699  15.429  0.00  0.00    +0.000 C 
ATOM     17  C   UNL     1       5.491   5.638  15.881  0.00  0.00    +0.000 C 
ENDBRANCH  15  17
ENDBRANCH   1  15
BRANCH  10  18
ATOM     18  C   UNL     1       3.370   2.968  19.162  0.00  0.00    +0.000 C 
BRANCH  18  19
ATOM     19  C   UNL     1       4.746   2.707  19.734  0.00  0.00    +0.000 C 
ATOM     20  O   UNL     1       4.999   1.858  20.575  0.00  0.00    +0.000 OA
BRANCH  19  21
ATOM     21  O   UNL     1       5.723   3.449  19.155  0.00  0.00    +0.000 OA
ATOM     22  H   UNL     1       6.069   4.215  19.657  0.00  0.00    +0.000 HD
ENDBRANCH  19  21
ENDBRANCH  18  19
ENDBRANCH  10  18
TORSDOF 6
ENDMDL
MODEL 9
REMARK VINA RESULT:      -6.3      3.637      5.335
REMARK  Name = 
REMARK  8 active torsions:
REMARK  status: ('A' for Active; 'I' for Inactive)
REMARK    1  A    between atoms: C_1  and  C_2
REMARK    2  A    between atoms: C_2  and  C_3
REMARK    3  A    between atoms: C_3  and  N_4
REMARK    4  A    between atoms: C_6  and  C_7
REMARK    5  A    between atoms: C_9  and  C_10
REMARK    6  A    between atoms: N_16  and  C_17
REMARK    7  A    between atoms: C_17  and  C_18
REMARK    8  A    between atoms: C_18  and  O_20
REMARK                            x       y       z     vdW  Elec       q    Type
REMARK                         _______ _______ _______ _____ _____    ______ ____
ROOT
ATOM      1  N   UNL     1       4.105   5.176  17.235  0.00  0.00    +0.000 N 
ATOM      2  N   UNL     1       4.202   3.842  17.050  0.00  0.00    +0.000 NA
ATOM      3  C   UNL     1       3.431   3.291  17.987  0.00  0.00    +0.000 A 
ATOM      4  C   UNL     1       3.296   1.809  18.014  0.00  0.00    +0.000 C 
ATOM      5  C   UNL     1       2.861   4.292  18.811  0.00  0.00    +0.000 A 
ATOM      6  C   UNL     1       1.983   4.244  19.935  0.00  0.00    +0.000 A 
ATOM      7  C   UNL     1       1.592   5.378  20.528  0.00  0.00    +0.000 A 
ATOM      8  C   UNL     1       2.028   6.696  20.045  0.00  0.00    +0.000 A 
ATOM      9  O   UNL     1       1.649   7.735  20.559  0.00  0.00    +0.000 OA
ATOM     10  N   UNL     1       2.889   6.729  18.879  0.00  0.00    +0.000 N 
ATOM     11  C   UNL     1       3.299   5.505  18.307  0.00  0.00    +0.000 A 
ENDROOT
BRANCH   6  12
ATOM     12  C   UNL     1       1.499   2.905  20.412  0.00  0.00    +0.000 C 
ATOM     13  F   UNL     1       1.089   2.967  21.710  0.00  0.00    +0.000 F 
ATOM     14  F   UNL     1       0.410   2.505  19.706  0.00  0.00    +0.000 F 
ENDBRANCH   6  12
BRANCH   1  15
ATOM     15  C   UNL     1       4.826   6.003  16.288  0.00  0.00    +0.000 C 
BRANCH  15  17
ATOM     16  C   UNL     1       6.970   5.006  15.356  0.00  0.00    +0.000 C 
ATOM     17  C   UNL     1       5.479   5.224  15.144  0.00  0.00    +0.000 C 
ENDBRANCH  15  17
ENDBRANCH   1  15
BRANCH  10  18
ATOM     18  C   UNL     1       3.195   8.079  18.355  0.00  0.00    +0.000 C 
BRANCH  18  19
ATOM     19  C   UNL     1       2.062   8.832  17.693  0.00  0.00    +0.000 C 
ATOM     20  O   UNL     1       0.972   8.351  17.420  0.00  0.00    +0.000 OA
BRANCH  19  21
ATOM     21  O   UNL     1       2.326  10.149  17.502  0.00  0.00    +0.000 OA
ATOM     22  H   UNL     1       3.128  10.518  17.925  0.00  0.00    +0.000 HD
ENDBRANCH  19  21
ENDBRANCH  18  19
ENDBRANCH  10  18
TORSDOF 6
ENDMDL
