MODEL 1
REMARK VINA RESULT:      -7.4      0.000      0.000
REMARK  Name = 
REMARK  5 active torsions:
REMARK  status: ('A' for Active; 'I' for Inactive)
REMARK    1  A    between atoms: C_1  and  C_2
REMARK    2  A    between atoms: C_5  and  C_6
REMARK    3  A    between atoms: C_12  and  C_13
REMARK    4  A    between atoms: C_13  and  N_14
REMARK    5  A    between atoms: N_17  and  C_18
REMARK                            x       y       z     vdW  Elec       q    Type
REMARK                         _______ _______ _______ _____ _____    ______ ____
ROOT
ATOM      1  C   UNL     1       2.124   7.011  18.060  0.00  0.00    +0.000 C 
ENDROOT
BRANCH   1  11
ATOM      2  C   UNL     1       5.301   6.338  17.701  0.00  0.00    +0.000 C 
ATOM      3  C   UNL     1       4.300   5.598  18.509  0.00  0.00    +0.000 A 
ATOM      4  N   UNL     1       4.675   4.487  19.151  0.00  0.00    +0.000 NA
ATOM      5  N   UNL     1       3.560   4.038  19.787  0.00  0.00    +0.000 N 
ATOM      6  C   UNL     1       3.400   2.846  20.516  0.00  0.00    +0.000 A 
ATOM      7  C   UNL     1       2.204   2.584  21.090  0.00  0.00    +0.000 A 
ATOM      8  C   UNL     1       1.135   3.561  20.991  0.00  0.00    +0.000 A 
ATOM      9  C   UNL     1       1.282   4.695  20.284  0.00  0.00    +0.000 A 
ATOM     10  C   UNL     1       2.510   4.944  19.604  0.00  0.00    +0.000 A 
ATOM     11  C   UNL     1       2.927   5.910  18.708  0.00  0.00    +0.000 A 
BRANCH   6  12
ATOM     12  C   UNL     1       4.475   1.918  20.622  0.00  0.00    +0.000 C 
ATOM     13  N   UNL     1       5.393   1.202  20.663  0.00  0.00    +0.000 NA
ENDBRANCH   6  12
ENDBRANCH   1  11
BRANCH   1  14
ATOM     14  N   UNL     1       2.352   8.275  18.754  0.00  0.00    +0.000 NA
ATOM     15  C   UNL     1       2.033   9.473  17.969  0.00  0.00    +0.000 C 
ATOM     16  C   UNL     1       0.551   9.901  17.972  0.00  0.00    +0.000 C 
ATOM     17  N   UNL     1       0.101  10.151  19.346  0.00  0.00    +0.000 N 
ATOM     18  C   UNL     1       0.410   9.101  20.336  0.00  0.00    +0.000 C 
ATOM     19  C   UNL     1       1.756   8.356  20.097  0.00  0.00    +0.000 C 
BRANCH  17  20
ATOM     20  C   UNL     1      -0.968  11.014  19.590  0.00  0.00    +0.000 A 
ATOM     21  C   UNL     1      -1.126  11.724  20.795  0.00  0.00    +0.000 A 
ATOM     22  C   UNL     1      -2.266  12.504  21.055  0.00  0.00    +0.000 A 
ATOM     23  C   UNL     1      -3.278  12.590  20.108  0.00  0.00    +0.000 A 
ATOM     24 CL   UNL     1      -4.693  13.510  20.432  0.00  0.00    +0.000 Cl
ATOM     25  C   UNL     1      -3.149  11.921  18.900  0.00  0.00    +0.000 A 
ATOM     26  C   UNL     1      -2.005  11.150  18.650  0.00  0.00    +0.000 A 
ENDBRANCH  17  20
ENDBRANCH   1  14
TORSDOF 4
ENDMDL
MODEL 2
REMARK VINA RESULT:      -7.3      0.388      1.004
REMARK  Name = 
REMARK  5 active torsions:
REMARK  status: ('A' for Active; 'I' for Inactive)
REMARK    1  A    between atoms: C_1  and  C_2
REMARK    2  A    between atoms: C_5  and  C_6
REMARK    3  A    between atoms: C_12  and  C_13
REMARK    4  A    between atoms: C_13  and  N_14
REMARK    5  A    between atoms: N_17  and  C_18
REMARK                            x       y       z     vdW  Elec       q    Type
REMARK                         _______ _______ _______ _____ _____    ______ ____
ROOT
ATOM      1  C   UNL     1       2.024   7.060  18.071  0.00  0.00    +0.000 C 
ENDROOT
BRANCH   1  11
ATOM      2  C   UNL     1       5.207   6.454  17.645  0.00  0.00    +0.000 C 
ATOM      3  C   UNL     1       4.236   5.687  18.466  0.00  0.00    +0.000 A 
ATOM      4  N   UNL     1       4.646   4.579  19.092  0.00  0.00    +0.000 NA
ATOM      5  N   UNL     1       3.552   4.103  19.746  0.00  0.00    +0.000 N 
ATOM      6  C   UNL     1       3.431   2.902  20.468  0.00  0.00    +0.000 A 
ATOM      7  C   UNL     1       2.252   2.612  21.063  0.00  0.00    +0.000 A 
ATOM      8  C   UNL     1       1.161   3.568  20.992  0.00  0.00    +0.000 A 
ATOM      9  C   UNL     1       1.272   4.710  20.292  0.00  0.00    +0.000 A 
ATOM     10  C   UNL     1       2.481   4.989  19.591  0.00  0.00    +0.000 A 
ATOM     11  C   UNL     1       2.862   5.970  18.694  0.00  0.00    +0.000 A 
BRANCH   6  12
ATOM     12  C   UNL     1       4.526   1.995  20.546  0.00  0.00    +0.000 C 
ATOM     13  N   UNL     1       5.377   1.201  20.584  0.00  0.00    +0.000 NA
ENDBRANCH   6  12
ENDBRANCH   1  11
BRANCH   1  14
ATOM     14  N   UNL     1       2.301   8.339  18.717  0.00  0.00    +0.000 NA
ATOM     15  C   UNL     1       1.839   9.516  17.972  0.00  0.00    +0.000 C 
ATOM     16  C   UNL     1       0.358   9.896  18.173  0.00  0.00    +0.000 C 
ATOM     17  N   UNL     1       0.090  10.149  19.593  0.00  0.00    +0.000 N 
ATOM     18  C   UNL     1       0.564   9.122  20.541  0.00  0.00    +0.000 C 
ATOM     19  C   UNL     1       1.890   8.417  20.128  0.00  0.00    +0.000 C 
BRANCH  17  20
ATOM     20  C   UNL     1      -0.966  10.980  19.973  0.00  0.00    +0.000 A 
ATOM     21  C   UNL     1      -1.941  11.448  19.072  0.00  0.00    +0.000 A 
ATOM     22  C   UNL     1      -2.931  12.367  19.459  0.00  0.00    +0.000 A 
ATOM     23  C   UNL     1      -2.966  12.839  20.765  0.00  0.00    +0.000 A 
ATOM     24 CL   UNL     1      -4.149  13.993  21.238  0.00  0.00    +0.000 Cl
ATOM     25  C   UNL     1      -2.034  12.385  21.687  0.00  0.00    +0.000 A 
ATOM     26  C   UNL     1      -1.055  11.465  21.290  0.00  0.00    +0.000 A 
ENDBRANCH  17  20
ENDBRANCH   1  14
TORSDOF 4
ENDMDL
MODEL 3
REMARK VINA RESULT:      -7.2      3.114      5.140
REMARK  Name = 
REMARK  5 active torsions:
REMARK  status: ('A' for Active; 'I' for Inactive)
REMARK    1  A    between atoms: C_1  and  C_2
REMARK    2  A    between atoms: C_5  and  C_6
REMARK    3  A    between atoms: C_12  and  C_13
REMARK    4  A    between atoms: C_13  and  N_14
REMARK    5  A    between atoms: N_17  and  C_18
REMARK                            x       y       z     vdW  Elec       q    Type
REMARK                         _______ _______ _______ _____ _____    ______ ____
ROOT
ATOM      1  C   UNL     1       5.123   5.689  18.828  0.00  0.00    +0.000 C 
ENDROOT
BRANCH   1  11
ATOM      2  C   UNL     1       7.799   7.480  18.268  0.00  0.00    +0.000 C 
ATOM      3  C   UNL     1       7.157   6.494  17.362  0.00  0.00    +0.000 A 
ATOM      4  N   UNL     1       7.664   6.308  16.140  0.00  0.00    +0.000 NA
ATOM      5  N   UNL     1       6.875   5.367  15.555  0.00  0.00    +0.000 N 
ATOM      6  C   UNL     1       6.925   4.896  14.231  0.00  0.00    +0.000 A 
ATOM      7  C   UNL     1       6.054   3.938  13.842  0.00  0.00    +0.000 A 
ATOM      8  C   UNL     1       5.128   3.379  14.812  0.00  0.00    +0.000 A 
ATOM      9  C   UNL     1       5.070   3.836  16.074  0.00  0.00    +0.000 A 
ATOM     10  C   UNL     1       5.927   4.904  16.473  0.00  0.00    +0.000 A 
ATOM     11  C   UNL     1       6.022   5.677  17.616  0.00  0.00    +0.000 A 
BRANCH   6  12
ATOM     12  C   UNL     1       7.862   5.442  13.308  0.00  0.00    +0.000 C 
ATOM     13  N   UNL     1       8.578   5.938  12.535  0.00  0.00    +0.000 NA
ENDBRANCH   6  12
ENDBRANCH   1  11
BRANCH   1  14
ATOM     14  N   UNL     1       3.727   5.808  18.418  0.00  0.00    +0.000 NA
ATOM     15  C   UNL     1       2.750   5.480  19.463  0.00  0.00    +0.000 C 
ATOM     16  C   UNL     1       2.412   6.620  20.444  0.00  0.00    +0.000 C 
ATOM     17  N   UNL     1       1.890   7.779  19.711  0.00  0.00    +0.000 N 
ATOM     18  C   UNL     1       2.678   8.224  18.546  0.00  0.00    +0.000 C 
ATOM     19  C   UNL     1       3.385   7.080  17.762  0.00  0.00    +0.000 C 
BRANCH  17  20
ATOM     20  C   UNL     1       1.052   8.696  20.349  0.00  0.00    +0.000 A 
ATOM     21  C   UNL     1       0.554   9.851  19.719  0.00  0.00    +0.000 A 
ATOM     22  C   UNL     1      -0.201  10.811  20.415  0.00  0.00    +0.000 A 
ATOM     23  C   UNL     1      -0.475  10.632  21.765  0.00  0.00    +0.000 A 
ATOM     24 CL   UNL     1      -1.364  11.819  22.634  0.00  0.00    +0.000 Cl
ATOM     25  C   UNL     1      -0.019   9.495  22.415  0.00  0.00    +0.000 A 
ATOM     26  C   UNL     1       0.729   8.542  21.709  0.00  0.00    +0.000 A 
ENDBRANCH  17  20
ENDBRANCH   1  14
TORSDOF 4
ENDMDL
MODEL 4
REMARK VINA RESULT:      -7.1      2.427      3.519
REMARK  Name = 
REMARK  5 active torsions:
REMARK  status: ('A' for Active; 'I' for Inactive)
REMARK    1  A    between atoms: C_1  and  C_2
REMARK    2  A    between atoms: C_5  and  C_6
REMARK    3  A    between atoms: C_12  and  C_13
REMARK    4  A    between atoms: C_13  and  N_14
REMARK    5  A    between atoms: N_17  and  C_18
REMARK                            x       y       z     vdW  Elec       q    Type
REMARK                         _______ _______ _______ _____ _____    ______ ____
ROOT
ATOM      1  C   UNL     1       1.620   8.396  20.930  0.00  0.00    +0.000 C 
ENDROOT
BRANCH   1  11
ATOM      2  C   UNL     1       2.439   8.655  17.777  0.00  0.00    +0.000 C 
ATOM      3  C   UNL     1       2.320   7.417  18.588  0.00  0.00    +0.000 A 
ATOM      4  N   UNL     1       2.513   6.233  17.999  0.00  0.00    +0.000 NA
ATOM      5  N   UNL     1       2.334   5.304  18.976  0.00  0.00    +0.000 N 
ATOM      6  C   UNL     1       2.327   3.904  18.849  0.00  0.00    +0.000 A 
ATOM      7  C   UNL     1       2.145   3.146  19.954  0.00  0.00    +0.000 A 
ATOM      8  C   UNL     1       2.018   3.791  21.249  0.00  0.00    +0.000 A 
ATOM      9  C   UNL     1       2.011   5.129  21.371  0.00  0.00    +0.000 A 
ATOM     10  C   UNL     1       2.120   5.940  20.204  0.00  0.00    +0.000 A 
ATOM     11  C   UNL     1       2.010   7.299  19.970  0.00  0.00    +0.000 A 
BRANCH   6  12
ATOM     12  C   UNL     1       2.483   3.297  17.570  0.00  0.00    +0.000 C 
ATOM     13  N   UNL     1       2.603   2.867  16.495  0.00  0.00    +0.000 NA
ENDBRANCH   6  12
ENDBRANCH   1  11
BRANCH   1  14
ATOM     14  N   UNL     1       0.198   8.698  20.798  0.00  0.00    +0.000 NA
ATOM     15  C   UNL     1      -0.571   8.590  22.044  0.00  0.00    +0.000 C 
ATOM     16  C   UNL     1      -0.537   9.830  22.960  0.00  0.00    +0.000 C 
ATOM     17  N   UNL     1      -1.042  11.004  22.239  0.00  0.00    +0.000 N 
ATOM     18  C   UNL     1      -0.465  11.248  20.903  0.00  0.00    +0.000 C 
ATOM     19  C   UNL     1      -0.101   9.961  20.106  0.00  0.00    +0.000 C 
BRANCH  17  20
ATOM     20  C   UNL     1      -1.594  12.077  22.940  0.00  0.00    +0.000 A 
ATOM     21  C   UNL     1      -2.893  12.058  23.480  0.00  0.00    +0.000 A 
ATOM     22  C   UNL     1      -3.463  13.189  24.090  0.00  0.00    +0.000 A 
ATOM     23  C   UNL     1      -2.737  14.370  24.174  0.00  0.00    +0.000 A 
ATOM     24 CL   UNL     1      -3.438  15.770  24.884  0.00  0.00    +0.000 Cl
ATOM     25  C   UNL     1      -1.445  14.422  23.672  0.00  0.00    +0.000 A 
ATOM     26  C   UNL     1      -0.887  13.286  23.070  0.00  0.00    +0.000 A 
ENDBRANCH  17  20
ENDBRANCH   1  14
TORSDOF 4
ENDMDL
MODEL 5
REMARK VINA RESULT:      -7.0      3.142      5.199
REMARK  Name = 
REMARK  5 active torsions:
REMARK  status: ('A' for Active; 'I' for Inactive)
REMARK    1  A    between atoms: C_1  and  C_2
REMARK    2  A    between atoms: C_5  and  C_6
REMARK    3  A    between atoms: C_12  and  C_13
REMARK    4  A    between atoms: C_13  and  N_14
REMARK    5  A    between atoms: N_17  and  C_18
REMARK                            x       y       z     vdW  Elec       q    Type
REMARK                         _______ _______ _______ _____ _____    ______ ____
ROOT
ATOM      1  C   UNL     1       4.957   5.099  18.662  0.00  0.00    +0.000 C 
ENDROOT
BRANCH   1  11
ATOM      2  C   UNL     1       7.707   6.861  18.523  0.00  0.00    +0.000 C 
ATOM      3  C   UNL     1       7.102   6.030  17.451  0.00  0.00    +0.000 A 
ATOM      4  N   UNL     1       7.682   5.998  16.247  0.00  0.00    +0.000 NA
ATOM      5  N   UNL     1       6.910   5.173  15.490  0.00  0.00    +0.000 N 
ATOM      6  C   UNL     1       7.035   4.888  14.119  0.00  0.00    +0.000 A 
ATOM      7  C   UNL     1       6.168   4.021  13.548  0.00  0.00    +0.000 A 
ATOM      8  C   UNL     1       5.168   3.365  14.371  0.00  0.00    +0.000 A 
ATOM      9  C   UNL     1       5.039   3.646  15.679  0.00  0.00    +0.000 A 
ATOM     10  C   UNL     1       5.894   4.619  16.275  0.00  0.00    +0.000 A 
ATOM     11  C   UNL     1       5.933   5.224  17.518  0.00  0.00    +0.000 A 
BRANCH   6  12
ATOM     12  C   UNL     1       8.044   5.524  13.340  0.00  0.00    +0.000 C 
ATOM     13  N   UNL     1       8.823   6.102  12.696  0.00  0.00    +0.000 NA
ENDBRANCH   6  12
ENDBRANCH   1  11
BRANCH   1  14
ATOM     14  N   UNL     1       3.610   5.438  18.215  0.00  0.00    +0.000 NA
ATOM     15  C   UNL     1       2.554   5.196  19.206  0.00  0.00    +0.000 C 
ATOM     16  C   UNL     1       2.340   6.318  20.242  0.00  0.00    +0.000 C 
ATOM     17  N   UNL     1       2.017   7.578  19.562  0.00  0.00    +0.000 N 
ATOM     18  C   UNL     1       2.906   7.969  18.453  0.00  0.00    +0.000 C 
ATOM     19  C   UNL     1       3.477   6.780  17.625  0.00  0.00    +0.000 C 
BRANCH  17  20
ATOM     20  C   UNL     1       1.291   8.569  20.226  0.00  0.00    +0.000 A 
ATOM     21  C   UNL     1       0.951   8.493  21.589  0.00  0.00    +0.000 A 
ATOM     22  C   UNL     1       0.131   9.453  22.206  0.00  0.00    +0.000 A 
ATOM     23  C   UNL     1      -0.368  10.517  21.466  0.00  0.00    +0.000 A 
ATOM     24 CL   UNL     1      -1.404  11.675  22.202  0.00  0.00    +0.000 Cl
ATOM     25  C   UNL     1      -0.039  10.637  20.124  0.00  0.00    +0.000 A 
ATOM     26  C   UNL     1       0.784   9.676  19.521  0.00  0.00    +0.000 A 
ENDBRANCH  17  20
ENDBRANCH   1  14
TORSDOF 4
ENDMDL
MODEL 6
REMARK VINA RESULT:      -6.9      4.069      9.159
REMARK  Name = 
REMARK  5 active torsions:
REMARK  status: ('A' for Active; 'I' for Inactive)
REMARK    1  A    between atoms: C_1  and  C_2
REMARK    2  A    between atoms: C_5  and  C_6
REMARK    3  A    between atoms: C_12  and  C_13
REMARK    4  A    between atoms: C_13  and  N_14
REMARK    5  A    between atoms: N_17  and  C_18
REMARK                            x       y       z     vdW  Elec       q    Type
REMARK                         _______ _______ _______ _____ _____    ______ ____
ROOT
ATOM      1  C   UNL     1       1.038  10.528  20.554  0.00  0.00    +0.000 C 
ENDROOT
BRANCH   1  11
ATOM      2  C   UNL     1       0.381   9.343  23.528  0.00  0.00    +0.000 C 
ATOM      3  C   UNL     1      -0.335  10.420  22.798  0.00  0.00    +0.000 A 
ATOM      4  N   UNL     1      -1.415  10.976  23.355  0.00  0.00    +0.000 NA
ATOM      5  N   UNL     1      -1.848  11.908  22.464  0.00  0.00    +0.000 N 
ATOM      6  C   UNL     1      -3.011  12.696  22.532  0.00  0.00    +0.000 A 
ATOM      7  C   UNL     1      -3.260  13.583  21.542  0.00  0.00    +0.000 A 
ATOM      8  C   UNL     1      -2.297  13.742  20.466  0.00  0.00    +0.000 A 
ATOM      9  C   UNL     1      -1.192  12.981  20.393  0.00  0.00    +0.000 A 
ATOM     10  C   UNL     1      -0.960  11.984  21.386  0.00  0.00    +0.000 A 
ATOM     11  C   UNL     1      -0.028  10.973  21.525  0.00  0.00    +0.000 A 
BRANCH   6  12
ATOM     12  C   UNL     1      -3.924  12.540  23.614  0.00  0.00    +0.000 C 
ATOM     13  N   UNL     1      -4.716  12.378  24.452  0.00  0.00    +0.000 NA
ENDBRANCH   6  12
ENDBRANCH   1  11
BRANCH   1  14
ATOM     14  N   UNL     1       0.579   9.365  19.801  0.00  0.00    +0.000 NA
ATOM     15  C   UNL     1       0.897   9.395  18.368  0.00  0.00    +0.000 C 
ATOM     16  C   UNL     1       2.309   8.909  17.986  0.00  0.00    +0.000 C 
ATOM     17  N   UNL     1       2.509   7.529  18.444  0.00  0.00    +0.000 N 
ATOM     18  C   UNL     1       2.155   7.250  19.849  0.00  0.00    +0.000 C 
ATOM     19  C   UNL     1       0.945   8.067  20.390  0.00  0.00    +0.000 C 
BRANCH  17  20
ATOM     20  C   UNL     1       3.435   6.703  17.806  0.00  0.00    +0.000 A 
ATOM     21  C   UNL     1       4.518   7.196  17.054  0.00  0.00    +0.000 A 
ATOM     22  C   UNL     1       5.374   6.344  16.335  0.00  0.00    +0.000 A 
ATOM     23  C   UNL     1       5.162   4.971  16.356  0.00  0.00    +0.000 A 
ATOM     24 CL   UNL     1       6.180   3.923  15.449  0.00  0.00    +0.000 Cl
ATOM     25  C   UNL     1       4.118   4.446  17.103  0.00  0.00    +0.000 A 
ATOM     26  C   UNL     1       3.275   5.306  17.819  0.00  0.00    +0.000 A 
ENDBRANCH  17  20
ENDBRANCH   1  14
TORSDOF 4
ENDMDL
MODEL 7
REMARK VINA RESULT:      -6.7      4.073      7.622
REMARK  Name = 
REMARK  5 active torsions:
REMARK  status: ('A' for Active; 'I' for Inactive)
REMARK    1  A    between atoms: C_1  and  C_2
REMARK    2  A    between atoms: C_5  and  C_6
REMARK    3  A    between atoms: C_12  and  C_13
REMARK    4  A    between atoms: C_13  and  N_14
REMARK    5  A    between atoms: N_17  and  C_18
REMARK                            x       y       z     vdW  Elec       q    Type
REMARK                         _______ _______ _______ _____ _____    ______ ____
ROOT
ATOM      1  C   UNL     1       2.298   3.241  18.243  0.00  0.00    +0.000 C 
ENDROOT
BRANCH   1  11
ATOM      2  C   UNL     1       1.718   3.041  21.453  0.00  0.00    +0.000 C 
ATOM      3  C   UNL     1       1.818   4.266  20.620  0.00  0.00    +0.000 A 
ATOM      4  N   UNL     1       1.608   5.457  21.189  0.00  0.00    +0.000 NA
ATOM      5  N   UNL     1       1.760   6.371  20.193  0.00  0.00    +0.000 N 
ATOM      6  C   UNL     1       1.543   7.759  20.250  0.00  0.00    +0.000 A 
ATOM      7  C   UNL     1       1.766   8.504  19.144  0.00  0.00    +0.000 A 
ATOM      8  C   UNL     1       2.276   7.865  17.944  0.00  0.00    +0.000 A 
ATOM      9  C   UNL     1       2.472   6.537  17.883  0.00  0.00    +0.000 A 
ATOM     10  C   UNL     1       2.162   5.729  19.016  0.00  0.00    +0.000 A 
ATOM     11  C   UNL     1       2.116   4.365  19.234  0.00  0.00    +0.000 A 
BRANCH   6  12
ATOM     12  C   UNL     1       1.070   8.364  21.449  0.00  0.00    +0.000 C 
ATOM     13  N   UNL     1       0.633   8.894  22.390  0.00  0.00    +0.000 NA
ENDBRANCH   6  12
ENDBRANCH   1  11
BRANCH   1  14
ATOM     14  N   UNL     1       3.719   2.981  18.033  0.00  0.00    +0.000 NA
ATOM     15  C   UNL     1       4.287   3.609  16.833  0.00  0.00    +0.000 C 
ATOM     16  C   UNL     1       4.724   5.079  16.991  0.00  0.00    +0.000 C 
ATOM     17  N   UNL     1       5.725   5.197  18.057  0.00  0.00    +0.000 N 
ATOM     18  C   UNL     1       5.394   4.545  19.339  0.00  0.00    +0.000 C 
ATOM     19  C   UNL     1       4.570   3.230  19.207  0.00  0.00    +0.000 C 
BRANCH  17  20
ATOM     20  C   UNL     1       6.633   6.257  18.055  0.00  0.00    +0.000 A 
ATOM     21  C   UNL     1       7.759   6.308  18.899  0.00  0.00    +0.000 A 
ATOM     22  C   UNL     1       8.599   7.434  18.951  0.00  0.00    +0.000 A 
ATOM     23  C   UNL     1       8.328   8.538  18.153  0.00  0.00    +0.000 A 
ATOM     24 CL   UNL     1       9.327   9.935  18.238  0.00  0.00    +0.000 Cl
ATOM     25  C   UNL     1       7.240   8.517  17.294  0.00  0.00    +0.000 A 
ATOM     26  C   UNL     1       6.412   7.386  17.247  0.00  0.00    +0.000 A 
ENDBRANCH  17  20
ENDBRANCH   1  14
TORSDOF 4
ENDMDL
MODEL 8
REMARK VINA RESULT:      -6.7      2.400      3.807
REMARK  Name = 
REMARK  5 active torsions:
REMARK  status: ('A' for Active; 'I' for Inactive)
REMARK    1  A    between atoms: C_1  and  C_2
REMARK    2  A    between atoms: C_5  and  C_6
REMARK    3  A    between atoms: C_12  and  C_13
REMARK    4  A    between atoms: C_13  and  N_14
REMARK    5  A    between atoms: N_17  and  C_18
REMARK                            x       y       z     vdW  Elec       q    Type
REMARK                         _______ _______ _______ _____ _____    ______ ____
ROOT
ATOM      1  C   UNL     1       0.412   8.573  20.385  0.00  0.00    +0.000 C 
ENDROOT
BRANCH   1  11
ATOM      2  C   UNL     1       2.005   9.858  17.838  0.00  0.00    +0.000 C 
ATOM      3  C   UNL     1       2.193   8.517  18.446  0.00  0.00    +0.000 A 
ATOM      4  N   UNL     1       3.073   7.672  17.900  0.00  0.00    +0.000 NA
ATOM      5  N   UNL     1       3.019   6.545  18.659  0.00  0.00    +0.000 N 
ATOM      6  C   UNL     1       3.677   5.322  18.442  0.00  0.00    +0.000 A 
ATOM      7  C   UNL     1       3.503   4.316  19.328  0.00  0.00    +0.000 A 
ATOM      8  C   UNL     1       2.689   4.539  20.510  0.00  0.00    +0.000 A 
ATOM      9  C   UNL     1       2.049   5.703  20.714  0.00  0.00    +0.000 A 
ATOM     10  C   UNL     1       2.158   6.743  19.744  0.00  0.00    +0.000 A 
ATOM     11  C   UNL     1       1.538   7.968  19.582  0.00  0.00    +0.000 A 
BRANCH   6  12
ATOM     12  C   UNL     1       4.493   5.139  17.288  0.00  0.00    +0.000 C 
ATOM     13  N   UNL     1       5.136   5.055  16.321  0.00  0.00    +0.000 NA
ENDBRANCH   6  12
ENDBRANCH   1  11
BRANCH   1  14
ATOM     14  N   UNL     1       0.942   9.528  21.353  0.00  0.00    +0.000 NA
ATOM     15  C   UNL     1       0.873  10.933  20.931  0.00  0.00    +0.000 C 
ATOM     16  C   UNL     1      -0.474  11.641  21.180  0.00  0.00    +0.000 C 
ATOM     17  N   UNL     1      -0.809  11.601  22.608  0.00  0.00    +0.000 N 
ATOM     18  C   UNL     1      -0.709  10.284  23.266  0.00  0.00    +0.000 C 
ATOM     19  C   UNL     1       0.426   9.368  22.722  0.00  0.00    +0.000 C 
BRANCH  17  20
ATOM     20  C   UNL     1      -1.648  12.569  23.162  0.00  0.00    +0.000 A 
ATOM     21  C   UNL     1      -3.017  12.353  23.406  0.00  0.00    +0.000 A 
ATOM     22  C   UNL     1      -3.862  13.378  23.865  0.00  0.00    +0.000 A 
ATOM     23  C   UNL     1      -3.349  14.649  24.093  0.00  0.00    +0.000 A 
ATOM     24 CL   UNL     1      -4.381  15.919  24.618  0.00  0.00    +0.000 Cl
ATOM     25  C   UNL     1      -2.000  14.895  23.884  0.00  0.00    +0.000 A 
ATOM     26  C   UNL     1      -1.167  13.863  23.430  0.00  0.00    +0.000 A 
ENDBRANCH  17  20
ENDBRANCH   1  14
TORSDOF 4
ENDMDL
MODEL 9
REMARK VINA RESULT:      -6.7      4.083      9.338
REMARK  Name = 
REMARK  5 active torsions:
REMARK  status: ('A' for Active; 'I' for Inactive)
REMARK    1  A    between atoms: C_1  and  C_2
REMARK    2  A    between atoms: C_5  and  C_6
REMARK    3  A    between atoms: C_12  and  C_13
REMARK    4  A    between atoms: C_13  and  N_14
REMARK    5  A    between atoms: N_17  and  C_18
REMARK                            x       y       z     vdW  Elec       q    Type
REMARK                         _______ _______ _______ _____ _____    ______ ____
ROOT
ATOM      1  C   UNL     1       1.179  10.852  20.255  0.00  0.00    +0.000 C 
ENDROOT
BRANCH   1  11
ATOM      2  C   UNL     1       0.463  13.368  18.296  0.00  0.00    +0.000 C 
ATOM      3  C   UNL     1      -0.198  12.989  19.571  0.00  0.00    +0.000 A 
ATOM      4  N   UNL     1      -1.180  13.760  20.048  0.00  0.00    +0.000 NA
ATOM      5  N   UNL     1      -1.576  13.172  21.209  0.00  0.00    +0.000 N 
ATOM      6  C   UNL     1      -2.512  13.647  22.145  0.00  0.00    +0.000 A 
ATOM      7  C   UNL     1      -2.781  12.901  23.240  0.00  0.00    +0.000 A 
ATOM      8  C   UNL     1      -2.144  11.605  23.395  0.00  0.00    +0.000 A 
ATOM      9  C   UNL     1      -1.240  11.155  22.508  0.00  0.00    +0.000 A 
ATOM     10  C   UNL     1      -0.886  11.969  21.392  0.00  0.00    +0.000 A 
ATOM     11  C   UNL     1       0.076  11.871  20.404  0.00  0.00    +0.000 A 
BRANCH   6  12
ATOM     12  C   UNL     1      -3.144  14.909  21.953  0.00  0.00    +0.000 C 
ATOM     13  N   UNL     1      -3.717  15.905  21.766  0.00  0.00    +0.000 NA
ENDBRANCH   6  12
ENDBRANCH   1  11
BRANCH   1  14
ATOM     14  N   UNL     1       0.649   9.617  19.685  0.00  0.00    +0.000 NA
ATOM     15  C   UNL     1       0.874   9.460  18.243  0.00  0.00    +0.000 C 
ATOM     16  C   UNL     1       2.249   8.891  17.838  0.00  0.00    +0.000 C 
ATOM     17  N   UNL     1       2.452   7.575  18.454  0.00  0.00    +0.000 N 
ATOM     18  C   UNL     1       2.183   7.482  19.902  0.00  0.00    +0.000 C 
ATOM     19  C   UNL     1       1.027   8.393  20.410  0.00  0.00    +0.000 C 
BRANCH  17  20
ATOM     20  C   UNL     1       3.318   6.650  17.869  0.00  0.00    +0.000 A 
ATOM     21  C   UNL     1       4.478   7.020  17.163  0.00  0.00    +0.000 A 
ATOM     22  C   UNL     1       5.275   6.075  16.495  0.00  0.00    +0.000 A 
ATOM     23  C   UNL     1       4.926   4.731  16.521  0.00  0.00    +0.000 A 
ATOM     24 CL   UNL     1       5.874   3.573  15.675  0.00  0.00    +0.000 Cl
ATOM     25  C   UNL     1       3.802   4.325  17.224  0.00  0.00    +0.000 A 
ATOM     26  C   UNL     1       3.017   5.276  17.890  0.00  0.00    +0.000 A 
ENDBRANCH  17  20
ENDBRANCH   1  14
TORSDOF 4
ENDMDL
