MODEL 1
REMARK VINA RESULT:      -8.6      0.000      0.000
REMARK  Name = 
REMARK  5 active torsions:
REMARK  status: ('A' for Active; 'I' for Inactive)
REMARK    1  A    between atoms: N_3  and  C_4
REMARK    2  A    between atoms: C_17  and  C_18
REMARK    3  A    between atoms: C_18  and  O_19
REMARK    4  A    between atoms: C_20  and  C_21
REMARK    5  A    between atoms: C_24  and  C_25
REMARK                            x       y       z     vdW  Elec       q    Type
REMARK                         _______ _______ _______ _____ _____    ______ ____
ROOT
ATOM      1  O   UNL     1      -2.510  10.685  18.753  0.00  0.00    +0.000 OA
ATOM      2  C   UNL     1      -2.437  11.881  19.037  0.00  0.00    +0.000 C 
ATOM      3  N   UNL     1      -3.521  12.728  19.084  0.00  0.00    +0.000 N 
ATOM      4  N   UNL     1      -1.208  12.486  19.309  0.00  0.00    +0.000 N 
ATOM      5  C   UNL     1      -1.036  13.805  19.920  0.00  0.00    +0.000 C 
ATOM      6  C   UNL     1      -1.607  13.921  21.331  0.00  0.00    +0.000 C 
ATOM      7  C   UNL     1      -0.682  13.437  22.440  0.00  0.00    +0.000 C 
ATOM      8  C   UNL     1      -0.431  11.929  22.491  0.00  0.00    +0.000 C 
ATOM      9  N   UNL     1       0.642  11.523  21.589  0.00  0.00    +0.000 NA
ATOM     10  C   UNL     1       1.317  10.241  22.015  0.00  0.00    +0.000 C 
ATOM     11  C   UNL     1       1.479   9.958  20.460  0.00  0.00    +0.000 C 
ATOM     12  C   UNL     1       0.147  10.785  20.373  0.00  0.00    +0.000 C 
ATOM     13  C   UNL     1      -0.008  11.664  19.139  0.00  0.00    +0.000 C 
ATOM     14  H   UNL     1      -3.322  13.674  18.800  0.00  0.00    +0.000 HD
ENDROOT
BRANCH   3  15
ATOM     15  C   UNL     1      -4.842  12.284  18.864  0.00  0.00    +0.000 A 
ATOM     16  C   UNL     1      -5.429  12.291  17.593  0.00  0.00    +0.000 A 
ATOM     17  C   UNL     1      -6.765  11.918  17.430  0.00  0.00    +0.000 A 
ATOM     18  C   UNL     1      -7.520  11.548  18.540  0.00  0.00    +0.000 A 
ATOM     19  C   UNL     1      -6.919  11.512  19.794  0.00  0.00    +0.000 A 
ATOM     20  F   UNL     1      -7.650  11.177  20.866  0.00  0.00    +0.000 F 
ATOM     21  C   UNL     1      -5.580  11.846  19.963  0.00  0.00    +0.000 A 
ENDBRANCH   3  15
BRANCH  11  22
ATOM     22  C   UNL     1       1.571   8.442  20.009  0.00  0.00    +0.000 A 
ATOM     23  C   UNL     1       1.279   7.358  20.846  0.00  0.00    +0.000 A 
ATOM     24  C   UNL     1       1.595   6.040  20.475  0.00  0.00    +0.000 A 
ATOM     25  C   UNL     1       2.203   5.743  19.241  0.00  0.00    +0.000 A 
ATOM     26  C   UNL     1       2.378   6.810  18.359  0.00  0.00    +0.000 A 
ATOM     27  C   UNL     1       2.041   8.120  18.722  0.00  0.00    +0.000 A 
BRANCH  25  28
ATOM     28  C   UNL     1       2.651   4.375  18.907  0.00  0.00    +0.000 A 
ATOM     29  C   UNL     1       3.718   3.766  19.598  0.00  0.00    +0.000 A 
ATOM     30  C   UNL     1       4.158   2.481  19.276  0.00  0.00    +0.000 A 
ATOM     31  C   UNL     1       3.539   1.758  18.260  0.00  0.00    +0.000 A 
ATOM     32  C   UNL     1       2.482   2.326  17.563  0.00  0.00    +0.000 A 
ATOM     33  C   UNL     1       2.052   3.617  17.880  0.00  0.00    +0.000 A 
ATOM     34  F   UNL     1       1.045   4.125  17.154  0.00  0.00    +0.000 F 
ENDBRANCH  25  28
ENDBRANCH  11  22
BRANCH  10  35
ATOM     35  C   UNL     1       0.479   9.243  22.854  0.00  0.00    +0.000 C 
BRANCH  35  36
ATOM     36  O   UNL     1       0.569   9.516  24.253  0.00  0.00    +0.000 OA
ATOM     37  H   UNL     1       0.135   8.802  24.744  0.00  0.00    +0.000 HD
ENDBRANCH  35  36
ENDBRANCH  10  35
TORSDOF 5
ENDMDL
MODEL 2
REMARK VINA RESULT:      -8.4      0.802      1.113
REMARK  Name = 
REMARK  5 active torsions:
REMARK  status: ('A' for Active; 'I' for Inactive)
REMARK    1  A    between atoms: N_3  and  C_4
REMARK    2  A    between atoms: C_17  and  C_18
REMARK    3  A    between atoms: C_18  and  O_19
REMARK    4  A    between atoms: C_20  and  C_21
REMARK    5  A    between atoms: C_24  and  C_25
REMARK                            x       y       z     vdW  Elec       q    Type
REMARK                         _______ _______ _______ _____ _____    ______ ____
ROOT
ATOM      1  O   UNL     1      -2.528  10.683  18.714  0.00  0.00    +0.000 OA
ATOM      2  C   UNL     1      -2.455  11.879  18.994  0.00  0.00    +0.000 C 
ATOM      3  N   UNL     1      -3.540  12.724  19.047  0.00  0.00    +0.000 N 
ATOM      4  N   UNL     1      -1.225  12.487  19.255  0.00  0.00    +0.000 N 
ATOM      5  C   UNL     1      -1.051  13.809  19.860  0.00  0.00    +0.000 C 
ATOM      6  C   UNL     1      -1.611  13.928  21.275  0.00  0.00    +0.000 C 
ATOM      7  C   UNL     1      -0.676  13.450  22.379  0.00  0.00    +0.000 C 
ATOM      8  C   UNL     1      -0.422  11.942  22.433  0.00  0.00    +0.000 C 
ATOM      9  N   UNL     1       0.644  11.535  21.523  0.00  0.00    +0.000 NA
ATOM     10  C   UNL     1       1.325  10.255  21.949  0.00  0.00    +0.000 C 
ATOM     11  C   UNL     1       1.476   9.967  20.393  0.00  0.00    +0.000 C 
ATOM     12  C   UNL     1       0.141  10.792  20.314  0.00  0.00    +0.000 C 
ATOM     13  C   UNL     1      -0.026  11.667  19.079  0.00  0.00    +0.000 C 
ATOM     14  H   UNL     1      -3.345  13.670  18.758  0.00  0.00    +0.000 HD
ENDROOT
BRANCH   3  15
ATOM     15  C   UNL     1      -4.862  12.277  18.839  0.00  0.00    +0.000 A 
ATOM     16  C   UNL     1      -5.449  12.254  17.568  0.00  0.00    +0.000 A 
ATOM     17  C   UNL     1      -6.786  11.879  17.414  0.00  0.00    +0.000 A 
ATOM     18  C   UNL     1      -7.541  11.539  18.534  0.00  0.00    +0.000 A 
ATOM     19  C   UNL     1      -6.941  11.533  19.788  0.00  0.00    +0.000 A 
ATOM     20  F   UNL     1      -7.672  11.227  20.868  0.00  0.00    +0.000 F 
ATOM     21  C   UNL     1      -5.601  11.869  19.948  0.00  0.00    +0.000 A 
ENDBRANCH   3  15
BRANCH  11  22
ATOM     22  C   UNL     1       1.566   8.451  19.946  0.00  0.00    +0.000 A 
ATOM     23  C   UNL     1       1.311   7.368  20.797  0.00  0.00    +0.000 A 
ATOM     24  C   UNL     1       1.627   6.051  20.422  0.00  0.00    +0.000 A 
ATOM     25  C   UNL     1       2.198   5.753  19.170  0.00  0.00    +0.000 A 
ATOM     26  C   UNL     1       2.335   6.818  18.278  0.00  0.00    +0.000 A 
ATOM     27  C   UNL     1       1.997   8.126  18.646  0.00  0.00    +0.000 A 
BRANCH  25  28
ATOM     28  C   UNL     1       2.647   4.387  18.828  0.00  0.00    +0.000 A 
ATOM     29  C   UNL     1       1.770   3.459  18.231  0.00  0.00    +0.000 A 
ATOM     30  C   UNL     1       2.183   2.161  17.922  0.00  0.00    +0.000 A 
ATOM     31  C   UNL     1       3.485   1.752  18.191  0.00  0.00    +0.000 A 
ATOM     32  C   UNL     1       4.375   2.644  18.774  0.00  0.00    +0.000 A 
ATOM     33  C   UNL     1       3.957   3.938  19.092  0.00  0.00    +0.000 A 
ATOM     34  F   UNL     1       4.851   4.746  19.681  0.00  0.00    +0.000 F 
ENDBRANCH  25  28
ENDBRANCH  11  22
BRANCH  10  35
ATOM     35  C   UNL     1       0.495   9.259  22.797  0.00  0.00    +0.000 C 
BRANCH  35  36
ATOM     36  O   UNL     1       0.465   9.629  24.176  0.00  0.00    +0.000 OA
ATOM     37  H   UNL     1       0.275  10.576  24.246  0.00  0.00    +0.000 HD
ENDBRANCH  35  36
ENDBRANCH  10  35
TORSDOF 5
ENDMDL
MODEL 3
REMARK VINA RESULT:      -8.3      3.656      5.450
REMARK  Name = 
REMARK  5 active torsions:
REMARK  status: ('A' for Active; 'I' for Inactive)
REMARK    1  A    between atoms: N_3  and  C_4
REMARK    2  A    between atoms: C_17  and  C_18
REMARK    3  A    between atoms: C_18  and  O_19
REMARK    4  A    between atoms: C_20  and  C_21
REMARK    5  A    between atoms: C_24  and  C_25
REMARK                            x       y       z     vdW  Elec       q    Type
REMARK                         _______ _______ _______ _____ _____    ______ ____
ROOT
ATOM      1  O   UNL     1       1.173  14.151  19.025  0.00  0.00    +0.000 OA
ATOM      2  C   UNL     1       0.320  14.717  19.709  0.00  0.00    +0.000 C 
ATOM      3  N   UNL     1      -0.073  16.023  19.524  0.00  0.00    +0.000 N 
ATOM      4  N   UNL     1      -0.306  14.062  20.772  0.00  0.00    +0.000 N 
ATOM      5  C   UNL     1      -1.509  14.532  21.460  0.00  0.00    +0.000 C 
ATOM      6  C   UNL     1      -2.742  14.635  20.565  0.00  0.00    +0.000 C 
ATOM      7  C   UNL     1      -3.517  13.335  20.387  0.00  0.00    +0.000 C 
ATOM      8  C   UNL     1      -2.816  12.245  19.573  0.00  0.00    +0.000 C 
ATOM      9  N   UNL     1      -1.910  11.449  20.393  0.00  0.00    +0.000 NA
ATOM     10  C   UNL     1      -1.676  10.063  19.837  0.00  0.00    +0.000 C 
ATOM     11  C   UNL     1      -0.207  10.214  20.423  0.00  0.00    +0.000 C 
ATOM     12  C   UNL     1      -0.456  11.735  20.121  0.00  0.00    +0.000 C 
ATOM     13  C   UNL     1       0.172  12.717  21.100  0.00  0.00    +0.000 C 
ATOM     14  H   UNL     1      -0.320  16.507  20.372  0.00  0.00    +0.000 HD
ENDROOT
BRANCH   3  15
ATOM     15  C   UNL     1       0.432  16.828  18.480  0.00  0.00    +0.000 A 
ATOM     16  C   UNL     1      -0.397  17.638  17.696  0.00  0.00    +0.000 A 
ATOM     17  C   UNL     1       0.131  18.359  16.622  0.00  0.00    +0.000 A 
ATOM     18  C   UNL     1       1.488  18.260  16.324  0.00  0.00    +0.000 A 
ATOM     19  C   UNL     1       2.310  17.479  17.129  0.00  0.00    +0.000 A 
ATOM     20  F   UNL     1       3.611  17.367  16.831  0.00  0.00    +0.000 F 
ATOM     21  C   UNL     1       1.802  16.786  18.223  0.00  0.00    +0.000 A 
ENDBRANCH   3  15
BRANCH  11  22
ATOM     22  C   UNL     1       0.941   9.383  19.713  0.00  0.00    +0.000 A 
ATOM     23  C   UNL     1       1.376   9.612  18.402  0.00  0.00    +0.000 A 
ATOM     24  C   UNL     1       2.227   8.708  17.744  0.00  0.00    +0.000 A 
ATOM     25  C   UNL     1       2.696   7.540  18.373  0.00  0.00    +0.000 A 
ATOM     26  C   UNL     1       2.362   7.379  19.718  0.00  0.00    +0.000 A 
ATOM     27  C   UNL     1       1.533   8.294  20.379  0.00  0.00    +0.000 A 
BRANCH  25  28
ATOM     28  C   UNL     1       3.485   6.528  17.639  0.00  0.00    +0.000 A 
ATOM     29  C   UNL     1       4.593   6.898  16.850  0.00  0.00    +0.000 A 
ATOM     30  C   UNL     1       5.330   5.949  16.139  0.00  0.00    +0.000 A 
ATOM     31  C   UNL     1       4.992   4.601  16.202  0.00  0.00    +0.000 A 
ATOM     32  C   UNL     1       3.910   4.203  16.974  0.00  0.00    +0.000 A 
ATOM     33  C   UNL     1       3.166   5.155  17.674  0.00  0.00    +0.000 A 
ATOM     34  F   UNL     1       2.114   4.716  18.380  0.00  0.00    +0.000 F 
ENDBRANCH  25  28
ENDBRANCH  11  22
BRANCH  10  35
ATOM     35  C   UNL     1      -1.836   9.877  18.307  0.00  0.00    +0.000 C 
BRANCH  35  36
ATOM     36  O   UNL     1      -3.128   9.376  17.963  0.00  0.00    +0.000 OA
ATOM     37  H   UNL     1      -3.581  10.025  17.404  0.00  0.00    +0.000 HD
ENDBRANCH  35  36
ENDBRANCH  10  35
TORSDOF 5
ENDMDL
MODEL 4
REMARK VINA RESULT:      -8.3      1.565      1.933
REMARK  Name = 
REMARK  5 active torsions:
REMARK  status: ('A' for Active; 'I' for Inactive)
REMARK    1  A    between atoms: N_3  and  C_4
REMARK    2  A    between atoms: C_17  and  C_18
REMARK    3  A    between atoms: C_18  and  O_19
REMARK    4  A    between atoms: C_20  and  C_21
REMARK    5  A    between atoms: C_24  and  C_25
REMARK                            x       y       z     vdW  Elec       q    Type
REMARK                         _______ _______ _______ _____ _____    ______ ____
ROOT
ATOM      1  O   UNL     1      -2.794  11.389  18.934  0.00  0.00    +0.000 OA
ATOM      2  C   UNL     1      -2.840  12.505  19.452  0.00  0.00    +0.000 C 
ATOM      3  N   UNL     1      -3.993  13.243  19.589  0.00  0.00    +0.000 N 
ATOM      4  N   UNL     1      -1.683  13.131  19.922  0.00  0.00    +0.000 N 
ATOM      5  C   UNL     1      -1.657  14.310  20.790  0.00  0.00    +0.000 C 
ATOM      6  C   UNL     1      -2.310  14.097  22.153  0.00  0.00    +0.000 C 
ATOM      7  C   UNL     1      -1.407  13.469  23.208  0.00  0.00    +0.000 C 
ATOM      8  C   UNL     1      -1.031  12.004  22.979  0.00  0.00    +0.000 C 
ATOM      9  N   UNL     1       0.119  11.868  22.090  0.00  0.00    +0.000 NA
ATOM     10  C   UNL     1       0.878  10.579  22.302  0.00  0.00    +0.000 C 
ATOM     11  C   UNL     1       1.146  10.627  20.737  0.00  0.00    +0.000 C 
ATOM     12  C   UNL     1      -0.245  11.355  20.722  0.00  0.00    +0.000 C 
ATOM     13  C   UNL     1      -0.410  12.450  19.677  0.00  0.00    +0.000 C 
ATOM     14  H   UNL     1      -3.861  14.239  19.511  0.00  0.00    +0.000 HD
ENDROOT
BRANCH   3  15
ATOM     15  C   UNL     1      -5.258  12.756  19.196  0.00  0.00    +0.000 A 
ATOM     16  C   UNL     1      -5.991  11.862  19.985  0.00  0.00    +0.000 A 
ATOM     17  C   UNL     1      -7.203  11.343  19.524  0.00  0.00    +0.000 A 
ATOM     18  C   UNL     1      -7.677  11.708  18.267  0.00  0.00    +0.000 A 
ATOM     19  C   UNL     1      -6.959  12.622  17.503  0.00  0.00    +0.000 A 
ATOM     20  F   UNL     1      -7.403  12.957  16.285  0.00  0.00    +0.000 F 
ATOM     21  C   UNL     1      -5.770  13.174  17.968  0.00  0.00    +0.000 A 
ENDBRANCH   3  15
BRANCH  11  22
ATOM     22  C   UNL     1       1.391   9.244  20.004  0.00  0.00    +0.000 A 
ATOM     23  C   UNL     1       1.539   8.022  20.671  0.00  0.00    +0.000 A 
ATOM     24  C   UNL     1       1.982   6.869  19.999  0.00  0.00    +0.000 A 
ATOM     25  C   UNL     1       2.281   6.882  18.624  0.00  0.00    +0.000 A 
ATOM     26  C   UNL     1       2.013   8.068  17.939  0.00  0.00    +0.000 A 
ATOM     27  C   UNL     1       1.550   9.209  18.606  0.00  0.00    +0.000 A 
BRANCH  25  28
ATOM     28  C   UNL     1       2.867   5.706  17.947  0.00  0.00    +0.000 A 
ATOM     29  C   UNL     1       2.144   4.503  17.817  0.00  0.00    +0.000 A 
ATOM     30  C   UNL     1       2.698   3.383  17.196  0.00  0.00    +0.000 A 
ATOM     31  C   UNL     1       3.987   3.430  16.676  0.00  0.00    +0.000 A 
ATOM     32  C   UNL     1       4.725   4.602  16.782  0.00  0.00    +0.000 A 
ATOM     33  C   UNL     1       4.172   5.717  17.415  0.00  0.00    +0.000 A 
ATOM     34  F   UNL     1       4.942   6.811  17.515  0.00  0.00    +0.000 F 
ENDBRANCH  25  28
ENDBRANCH  11  22
BRANCH  10  35
ATOM     35  C   UNL     1       0.086   9.374  22.869  0.00  0.00    +0.000 C 
BRANCH  35  36
ATOM     36  O   UNL     1       0.183   9.293  24.291  0.00  0.00    +0.000 OA
ATOM     37  H   UNL     1       0.377   8.378  24.544  0.00  0.00    +0.000 HD
ENDBRANCH  35  36
ENDBRANCH  10  35
TORSDOF 5
ENDMDL
MODEL 5
REMARK VINA RESULT:      -8.1      4.013      6.058
REMARK  Name = 
REMARK  5 active torsions:
REMARK  status: ('A' for Active; 'I' for Inactive)
REMARK    1  A    between atoms: N_3  and  C_4
REMARK    2  A    between atoms: C_17  and  C_18
REMARK    3  A    between atoms: C_18  and  O_19
REMARK    4  A    between atoms: C_20  and  C_21
REMARK    5  A    between atoms: C_24  and  C_25
REMARK                            x       y       z     vdW  Elec       q    Type
REMARK                         _______ _______ _______ _____ _____    ______ ____
ROOT
ATOM      1  O   UNL     1       0.463  15.249  19.957  0.00  0.00    +0.000 OA
ATOM      2  C   UNL     1       0.139  16.212  20.652  0.00  0.00    +0.000 C 
ATOM      3  N   UNL     1       0.039  17.501  20.182  0.00  0.00    +0.000 N 
ATOM      4  N   UNL     1      -0.128  16.062  22.015  0.00  0.00    +0.000 N 
ATOM      5  C   UNL     1      -0.779  17.065  22.860  0.00  0.00    +0.000 C 
ATOM      6  C   UNL     1      -2.206  17.407  22.437  0.00  0.00    +0.000 C 
ATOM      7  C   UNL     1      -3.278  16.462  22.965  0.00  0.00    +0.000 C 
ATOM      8  C   UNL     1      -3.271  15.049  22.379  0.00  0.00    +0.000 C 
ATOM      9  N   UNL     1      -2.332  14.174  23.073  0.00  0.00    +0.000 NA
ATOM     10  C   UNL     1      -2.699  12.713  22.966  0.00  0.00    +0.000 C 
ATOM     11  C   UNL     1      -1.132  12.450  22.954  0.00  0.00    +0.000 C 
ATOM     12  C   UNL     1      -1.102  13.860  22.262  0.00  0.00    +0.000 C 
ATOM     13  C   UNL     1       0.097  14.738  22.596  0.00  0.00    +0.000 C 
ATOM     14  H   UNL     1       0.295  18.209  20.852  0.00  0.00    +0.000 HD
ENDROOT
BRANCH   3  15
ATOM     15  C   UNL     1       0.246  17.834  18.826  0.00  0.00    +0.000 A 
ATOM     16  C   UNL     1      -0.766  18.388  18.032  0.00  0.00    +0.000 A 
ATOM     17  C   UNL     1      -0.545  18.629  16.674  0.00  0.00    +0.000 A 
ATOM     18  C   UNL     1       0.685  18.306  16.105  0.00  0.00    +0.000 A 
ATOM     19  C   UNL     1       1.694  17.787  16.909  0.00  0.00    +0.000 A 
ATOM     20  F   UNL     1       2.870  17.455  16.358  0.00  0.00    +0.000 F 
ATOM     21  C   UNL     1       1.498  17.577  18.269  0.00  0.00    +0.000 A 
ENDBRANCH   3  15
BRANCH  11  22
ATOM     22  C   UNL     1      -0.626  11.136  22.228  0.00  0.00    +0.000 A 
ATOM     23  C   UNL     1      -0.160  10.001  22.903  0.00  0.00    +0.000 A 
ATOM     24  C   UNL     1       0.489   8.958  22.220  0.00  0.00    +0.000 A 
ATOM     25  C   UNL     1       0.687   8.994  20.827  0.00  0.00    +0.000 A 
ATOM     26  C   UNL     1       0.112  10.066  20.143  0.00  0.00    +0.000 A 
ATOM     27  C   UNL     1      -0.555  11.093  20.823  0.00  0.00    +0.000 A 
BRANCH  25  28
ATOM     28  C   UNL     1       1.480   7.960  20.130  0.00  0.00    +0.000 A 
ATOM     29  C   UNL     1       1.617   6.662  20.662  0.00  0.00    +0.000 A 
ATOM     30  C   UNL     1       2.380   5.687  20.019  0.00  0.00    +0.000 A 
ATOM     31  C   UNL     1       3.022   5.972  18.818  0.00  0.00    +0.000 A 
ATOM     32  C   UNL     1       2.904   7.239  18.263  0.00  0.00    +0.000 A 
ATOM     33  C   UNL     1       2.150   8.217  18.916  0.00  0.00    +0.000 A 
ATOM     34  F   UNL     1       2.095   9.431  18.349  0.00  0.00    +0.000 F 
ENDBRANCH  25  28
ENDBRANCH  11  22
BRANCH  10  35
ATOM     35  C   UNL     1      -3.520  12.277  21.727  0.00  0.00    +0.000 C 
BRANCH  35  36
ATOM     36  O   UNL     1      -4.926  12.329  21.973  0.00  0.00    +0.000 OA
ATOM     37  H   UNL     1      -5.374  11.699  21.390  0.00  0.00    +0.000 HD
ENDBRANCH  35  36
ENDBRANCH  10  35
TORSDOF 5
ENDMDL
MODEL 6
REMARK VINA RESULT:      -8.1      7.160      8.732
REMARK  Name = 
REMARK  5 active torsions:
REMARK  status: ('A' for Active; 'I' for Inactive)
REMARK    1  A    between atoms: N_3  and  C_4
REMARK    2  A    between atoms: C_17  and  C_18
REMARK    3  A    between atoms: C_18  and  O_19
REMARK    4  A    between atoms: C_20  and  C_21
REMARK    5  A    between atoms: C_24  and  C_25
REMARK                            x       y       z     vdW  Elec       q    Type
REMARK                         _______ _______ _______ _____ _____    ______ ____
ROOT
ATOM      1  O   UNL     1       2.456  13.619  18.518  0.00  0.00    +0.000 OA
ATOM      2  C   UNL     1       1.523  14.421  18.564  0.00  0.00    +0.000 C 
ATOM      3  N   UNL     1       0.228  14.078  18.878  0.00  0.00    +0.000 N 
ATOM      4  N   UNL     1       1.715  15.771  18.261  0.00  0.00    +0.000 N 
ATOM      5  C   UNL     1       0.760  16.842  18.549  0.00  0.00    +0.000 C 
ATOM      6  C   UNL     1       0.465  17.035  20.035  0.00  0.00    +0.000 C 
ATOM      7  C   UNL     1       1.464  17.910  20.781  0.00  0.00    +0.000 C 
ATOM      8  C   UNL     1       2.861  17.316  20.970  0.00  0.00    +0.000 C 
ATOM      9  N   UNL     1       3.714  17.547  19.809  0.00  0.00    +0.000 NA
ATOM     10  C   UNL     1       5.187  17.540  20.148  0.00  0.00    +0.000 C 
ATOM     11  C   UNL     1       5.386  16.895  18.709  0.00  0.00    +0.000 C 
ATOM     12  C   UNL     1       3.960  16.303  18.996  0.00  0.00    +0.000 C 
ATOM     13  C   UNL     1       3.043  16.165  17.788  0.00  0.00    +0.000 C 
ATOM     14  H   UNL     1      -0.474  14.617  18.396  0.00  0.00    +0.000 HD
ENDROOT
BRANCH   3  15
ATOM     15  C   UNL     1      -0.144  12.765  19.239  0.00  0.00    +0.000 A 
ATOM     16  C   UNL     1       0.208  12.203  20.471  0.00  0.00    +0.000 A 
ATOM     17  C   UNL     1      -0.112  10.873  20.758  0.00  0.00    +0.000 A 
ATOM     18  C   UNL     1      -0.774  10.101  19.807  0.00  0.00    +0.000 A 
ATOM     19  C   UNL     1      -1.149  10.678  18.598  0.00  0.00    +0.000 A 
ATOM     20  F   UNL     1      -1.767   9.930  17.674  0.00  0.00    +0.000 F 
ATOM     21  C   UNL     1      -0.869  12.011  18.317  0.00  0.00    +0.000 A 
ENDBRANCH   3  15
BRANCH  11  22
ATOM     22  C   UNL     1       6.661  15.980  18.499  0.00  0.00    +0.000 A 
ATOM     23  C   UNL     1       6.605  14.646  18.077  0.00  0.00    +0.000 A 
ATOM     24  C   UNL     1       7.736  13.812  18.128  0.00  0.00    +0.000 A 
ATOM     25  C   UNL     1       8.981  14.281  18.589  0.00  0.00    +0.000 A 
ATOM     26  C   UNL     1       9.063  15.640  18.889  0.00  0.00    +0.000 A 
ATOM     27  C   UNL     1       7.941  16.474  18.816  0.00  0.00    +0.000 A 
BRANCH  25  28
ATOM     28  C   UNL     1      10.134  13.372  18.762  0.00  0.00    +0.000 A 
ATOM     29  C   UNL     1      10.894  12.939  17.657  0.00  0.00    +0.000 A 
ATOM     30  C   UNL     1      11.973  12.066  17.812  0.00  0.00    +0.000 A 
ATOM     31  C   UNL     1      12.333  11.607  19.075  0.00  0.00    +0.000 A 
ATOM     32  C   UNL     1      11.608  12.019  20.185  0.00  0.00    +0.000 A 
ATOM     33  C   UNL     1      10.522  12.883  20.026  0.00  0.00    +0.000 A 
ATOM     34  F   UNL     1       9.841  13.224  21.130  0.00  0.00    +0.000 F 
ENDBRANCH  25  28
ENDBRANCH  11  22
BRANCH  10  35
ATOM     35  C   UNL     1       5.626  16.714  21.383  0.00  0.00    +0.000 C 
BRANCH  35  36
ATOM     36  O   UNL     1       6.195  17.538  22.401  0.00  0.00    +0.000 OA
ATOM     37  H   UNL     1       7.118  17.725  22.178  0.00  0.00    +0.000 HD
ENDBRANCH  35  36
ENDBRANCH  10  35
TORSDOF 5
ENDMDL
MODEL 7
REMARK VINA RESULT:      -8.0      0.973      1.241
REMARK  Name = 
REMARK  5 active torsions:
REMARK  status: ('A' for Active; 'I' for Inactive)
REMARK    1  A    between atoms: N_3  and  C_4
REMARK    2  A    between atoms: C_17  and  C_18
REMARK    3  A    between atoms: C_18  and  O_19
REMARK    4  A    between atoms: C_20  and  C_21
REMARK    5  A    between atoms: C_24  and  C_25
REMARK                            x       y       z     vdW  Elec       q    Type
REMARK                         _______ _______ _______ _____ _____    ______ ____
ROOT
ATOM      1  O   UNL     1      -2.668  10.994  18.904  0.00  0.00    +0.000 OA
ATOM      2  C   UNL     1      -2.649  12.162  19.293  0.00  0.00    +0.000 C 
ATOM      3  N   UNL     1      -3.761  12.970  19.355  0.00  0.00    +0.000 N 
ATOM      4  N   UNL     1      -1.456  12.775  19.682  0.00  0.00    +0.000 N 
ATOM      5  C   UNL     1      -1.359  14.041  20.412  0.00  0.00    +0.000 C 
ATOM      6  C   UNL     1      -2.005  14.017  21.795  0.00  0.00    +0.000 C 
ATOM      7  C   UNL     1      -1.122  13.465  22.907  0.00  0.00    +0.000 C 
ATOM      8  C   UNL     1      -0.824  11.966  22.842  0.00  0.00    +0.000 C 
ATOM      9  N   UNL     1       0.306  11.671  21.967  0.00  0.00    +0.000 NA
ATOM     10  C   UNL     1       1.001  10.376  22.318  0.00  0.00    +0.000 C 
ATOM     11  C   UNL     1       1.251  10.234  20.755  0.00  0.00    +0.000 C 
ATOM     12  C   UNL     1      -0.102  11.028  20.667  0.00  0.00    +0.000 C 
ATOM     13  C   UNL     1      -0.223  12.006  19.507  0.00  0.00    +0.000 C 
ATOM     14  H   UNL     1      -3.579  13.943  19.164  0.00  0.00    +0.000 HD
ENDROOT
BRANCH   3  15
ATOM     15  C   UNL     1      -5.054  12.510  19.027  0.00  0.00    +0.000 A 
ATOM     16  C   UNL     1      -5.726  11.559  19.805  0.00  0.00    +0.000 A 
ATOM     17  C   UNL     1      -6.971  11.070  19.403  0.00  0.00    +0.000 A 
ATOM     18  C   UNL     1      -7.542  11.524  18.217  0.00  0.00    +0.000 A 
ATOM     19  C   UNL     1      -6.883  12.493  17.468  0.00  0.00    +0.000 A 
ATOM     20  F   UNL     1      -7.420  12.914  16.315  0.00  0.00    +0.000 F 
ATOM     21  C   UNL     1      -5.659  13.013  17.877  0.00  0.00    +0.000 A 
ENDBRANCH   3  15
BRANCH  11  22
ATOM     22  C   UNL     1       1.416   8.767  20.181  0.00  0.00    +0.000 A 
ATOM     23  C   UNL     1       1.212   7.605  20.935  0.00  0.00    +0.000 A 
ATOM     24  C   UNL     1       1.592   6.341  20.451  0.00  0.00    +0.000 A 
ATOM     25  C   UNL     1       2.178   6.179  19.181  0.00  0.00    +0.000 A 
ATOM     26  C   UNL     1       2.264   7.321  18.385  0.00  0.00    +0.000 A 
ATOM     27  C   UNL     1       1.863   8.576  18.860  0.00  0.00    +0.000 A 
BRANCH  25  28
ATOM     28  C   UNL     1       2.693   4.871  18.727  0.00  0.00    +0.000 A 
ATOM     29  C   UNL     1       3.902   4.347  19.229  0.00  0.00    +0.000 A 
ATOM     30  C   UNL     1       4.403   3.120  18.790  0.00  0.00    +0.000 A 
ATOM     31  C   UNL     1       3.708   2.372  17.845  0.00  0.00    +0.000 A 
ATOM     32  C   UNL     1       2.511   2.856  17.334  0.00  0.00    +0.000 A 
ATOM     33  C   UNL     1       2.019   4.089  17.766  0.00  0.00    +0.000 A 
ATOM     34  F   UNL     1       0.873   4.520  17.217  0.00  0.00    +0.000 F 
ENDBRANCH  25  28
ENDBRANCH  11  22
BRANCH  10  35
ATOM     35  C   UNL     1       0.155   9.285  23.021  0.00  0.00    +0.000 C 
BRANCH  35  36
ATOM     36  O   UNL     1       0.385   9.258  24.430  0.00  0.00    +0.000 OA
ATOM     37  H   UNL     1       1.335   9.167  24.595  0.00  0.00    +0.000 HD
ENDBRANCH  35  36
ENDBRANCH  10  35
TORSDOF 5
ENDMDL
MODEL 8
REMARK VINA RESULT:      -8.0      7.095      8.618
REMARK  Name = 
REMARK  5 active torsions:
REMARK  status: ('A' for Active; 'I' for Inactive)
REMARK    1  A    between atoms: N_3  and  C_4
REMARK    2  A    between atoms: C_17  and  C_18
REMARK    3  A    between atoms: C_18  and  O_19
REMARK    4  A    between atoms: C_20  and  C_21
REMARK    5  A    between atoms: C_24  and  C_25
REMARK                            x       y       z     vdW  Elec       q    Type
REMARK                         _______ _______ _______ _____ _____    ______ ____
ROOT
ATOM      1  O   UNL     1       2.061  13.885  18.402  0.00  0.00    +0.000 OA
ATOM      2  C   UNL     1       1.156  14.696  18.602  0.00  0.00    +0.000 C 
ATOM      3  N   UNL     1      -0.131  14.344  18.940  0.00  0.00    +0.000 N 
ATOM      4  N   UNL     1       1.373  16.069  18.467  0.00  0.00    +0.000 N 
ATOM      5  C   UNL     1       0.466  17.115  18.942  0.00  0.00    +0.000 C 
ATOM      6  C   UNL     1       0.253  17.118  20.454  0.00  0.00    +0.000 C 
ATOM      7  C   UNL     1       1.315  17.865  21.252  0.00  0.00    +0.000 C 
ATOM      8  C   UNL     1       2.701  17.220  21.286  0.00  0.00    +0.000 C 
ATOM      9  N   UNL     1       3.500  17.581  20.119  0.00  0.00    +0.000 NA
ATOM     10  C   UNL     1       4.987  17.496  20.374  0.00  0.00    +0.000 C 
ATOM     11  C   UNL     1       5.093  17.041  18.855  0.00  0.00    +0.000 C 
ATOM     12  C   UNL     1       3.666  16.448  19.140  0.00  0.00    +0.000 C 
ATOM     13  C   UNL     1       2.686  16.491  17.976  0.00  0.00    +0.000 C 
ATOM     14  H   UNL     1      -0.840  14.958  18.571  0.00  0.00    +0.000 HD
ENDROOT
BRANCH   3  15
ATOM     15  C   UNL     1      -0.524  13.004  19.147  0.00  0.00    +0.000 A 
ATOM     16  C   UNL     1      -0.326  12.351  20.369  0.00  0.00    +0.000 A 
ATOM     17  C   UNL     1      -0.656  11.001  20.509  0.00  0.00    +0.000 A 
ATOM     18  C   UNL     1      -1.174  10.300  19.423  0.00  0.00    +0.000 A 
ATOM     19  C   UNL     1      -1.398  10.966  18.223  0.00  0.00    +0.000 A 
ATOM     20  F   UNL     1      -1.875  10.287  17.171  0.00  0.00    +0.000 F 
ATOM     21  C   UNL     1      -1.107  12.318  18.083  0.00  0.00    +0.000 A 
ENDBRANCH   3  15
BRANCH  11  22
ATOM     22  C   UNL     1       6.328  16.131  18.459  0.00  0.00    +0.000 A 
ATOM     23  C   UNL     1       6.210  14.856  17.893  0.00  0.00    +0.000 A 
ATOM     24  C   UNL     1       7.320  14.001  17.774  0.00  0.00    +0.000 A 
ATOM     25  C   UNL     1       8.604  14.390  18.202  0.00  0.00    +0.000 A 
ATOM     26  C   UNL     1       8.740  15.704  18.649  0.00  0.00    +0.000 A 
ATOM     27  C   UNL     1       7.638  16.562  18.744  0.00  0.00    +0.000 A 
BRANCH  25  28
ATOM     28  C   UNL     1       9.741  13.446  18.195  0.00  0.00    +0.000 A 
ATOM     29  C   UNL     1       9.728  12.282  18.989  0.00  0.00    +0.000 A 
ATOM     30  C   UNL     1      10.807  11.396  19.001  0.00  0.00    +0.000 A 
ATOM     31  C   UNL     1      11.928  11.638  18.214  0.00  0.00    +0.000 A 
ATOM     32  C   UNL     1      11.971  12.774  17.416  0.00  0.00    +0.000 A 
ATOM     33  C   UNL     1      10.895  13.665  17.415  0.00  0.00    +0.000 A 
ATOM     34  F   UNL     1      11.004  14.759  16.648  0.00  0.00    +0.000 F 
ENDBRANCH  25  28
ENDBRANCH  11  22
BRANCH  10  35
ATOM     35  C   UNL     1       5.464  16.506  21.466  0.00  0.00    +0.000 C 
BRANCH  35  36
ATOM     36  O   UNL     1       6.105  17.176  22.551  0.00  0.00    +0.000 OA
ATOM     37  H   UNL     1       7.038  17.316  22.331  0.00  0.00    +0.000 HD
ENDBRANCH  35  36
ENDBRANCH  10  35
TORSDOF 5
ENDMDL
MODEL 9
REMARK VINA RESULT:      -7.9      7.358      8.853
REMARK  Name = 
REMARK  5 active torsions:
REMARK  status: ('A' for Active; 'I' for Inactive)
REMARK    1  A    between atoms: N_3  and  C_4
REMARK    2  A    between atoms: C_17  and  C_18
REMARK    3  A    between atoms: C_18  and  O_19
REMARK    4  A    between atoms: C_20  and  C_21
REMARK    5  A    between atoms: C_24  and  C_25
REMARK                            x       y       z     vdW  Elec       q    Type
REMARK                         _______ _______ _______ _____ _____    ______ ____
ROOT
ATOM      1  O   UNL     1       2.634  13.921  18.670  0.00  0.00    +0.000 OA
ATOM      2  C   UNL     1       1.724  14.750  18.700  0.00  0.00    +0.000 C 
ATOM      3  N   UNL     1       0.421  14.451  19.024  0.00  0.00    +0.000 N 
ATOM      4  N   UNL     1       1.954  16.086  18.366  0.00  0.00    +0.000 N 
ATOM      5  C   UNL     1       1.030  17.191  18.631  0.00  0.00    +0.000 C 
ATOM      6  C   UNL     1       0.744  17.425  20.113  0.00  0.00    +0.000 C 
ATOM      7  C   UNL     1       1.769  18.288  20.837  0.00  0.00    +0.000 C 
ATOM      8  C   UNL     1       3.149  17.660  21.037  0.00  0.00    +0.000 C 
ATOM      9  N   UNL     1       4.006  17.839  19.870  0.00  0.00    +0.000 NA
ATOM     10  C   UNL     1       5.478  17.799  20.207  0.00  0.00    +0.000 C 
ATOM     11  C   UNL     1       5.656  17.116  18.783  0.00  0.00    +0.000 C 
ATOM     12  C   UNL     1       4.214  16.571  19.085  0.00  0.00    +0.000 C 
ATOM     13  C   UNL     1       3.291  16.432  17.882  0.00  0.00    +0.000 C 
ATOM     14  H   UNL     1      -0.267  14.999  18.531  0.00  0.00    +0.000 HD
ENDROOT
BRANCH   3  15
ATOM     15  C   UNL     1       0.012  13.158  19.414  0.00  0.00    +0.000 A 
ATOM     16  C   UNL     1      -0.533  12.243  18.505  0.00  0.00    +0.000 A 
ATOM     17  C   UNL     1      -0.998  11.001  18.946  0.00  0.00    +0.000 A 
ATOM     18  C   UNL     1      -0.929  10.679  20.299  0.00  0.00    +0.000 A 
ATOM     19  C   UNL     1      -0.356  11.580  21.189  0.00  0.00    +0.000 A 
ATOM     20  F   UNL     1      -0.309  11.280  22.494  0.00  0.00    +0.000 F 
ATOM     21  C   UNL     1       0.144  12.804  20.756  0.00  0.00    +0.000 A 
ENDBRANCH   3  15
BRANCH  11  22
ATOM     22  C   UNL     1       6.904  16.161  18.591  0.00  0.00    +0.000 A 
ATOM     23  C   UNL     1       6.829  14.880  18.030  0.00  0.00    +0.000 A 
ATOM     24  C   UNL     1       7.913  13.988  18.093  0.00  0.00    +0.000 A 
ATOM     25  C   UNL     1       9.130  14.342  18.706  0.00  0.00    +0.000 A 
ATOM     26  C   UNL     1       9.243  15.658  19.153  0.00  0.00    +0.000 A 
ATOM     27  C   UNL     1       8.169  16.553  19.068  0.00  0.00    +0.000 A 
BRANCH  25  28
ATOM     28  C   UNL     1      10.221  13.361  18.885  0.00  0.00    +0.000 A 
ATOM     29  C   UNL     1      10.611  12.928  20.169  0.00  0.00    +0.000 A 
ATOM     30  C   UNL     1      11.654  12.017  20.345  0.00  0.00    +0.000 A 
ATOM     31  C   UNL     1      12.333  11.501  19.246  0.00  0.00    +0.000 A 
ATOM     32  C   UNL     1      11.971  11.903  17.968  0.00  0.00    +0.000 A 
ATOM     33  C   UNL     1      10.936  12.824  17.795  0.00  0.00    +0.000 A 
ATOM     34  F   UNL     1      10.649  13.198  16.539  0.00  0.00    +0.000 F 
ENDBRANCH  25  28
ENDBRANCH  11  22
BRANCH  10  35
ATOM     35  C   UNL     1       5.896  16.988  21.460  0.00  0.00    +0.000 C 
BRANCH  35  36
ATOM     36  O   UNL     1       6.604  17.793  22.403  0.00  0.00    +0.000 OA
ATOM     37  H   UNL     1       5.981  18.131  23.063  0.00  0.00    +0.000 HD
ENDBRANCH  35  36
ENDBRANCH  10  35
TORSDOF 5
ENDMDL
