MODEL 1
REMARK VINA RESULT:      -5.9      0.000      0.000
REMARK  Name = 
REMARK  2 active torsions:
REMARK  status: ('A' for Active; 'I' for Inactive)
REMARK    1  A    between atoms: C_1  and  C_2
REMARK    2  A    between atoms: N_12  and  C_13
REMARK                            x       y       z     vdW  Elec       q    Type
REMARK                         _______ _______ _______ _____ _____    ______ ____
ROOT
ATOM      1  C   UNL     1       7.410   7.035  17.437  0.00  0.00    +0.000 C 
ATOM      2  C   UNL     1       6.411   6.062  17.987  0.00  0.00    +0.000 A 
ATOM      3  N   UNL     1       6.829   5.037  18.772  0.00  0.00    +0.000 NA
ATOM      4  N   UNL     1       5.967   4.160  19.282  0.00  0.00    +0.000 NA
ATOM      5  C   UNL     1       4.632   4.252  19.038  0.00  0.00    +0.000 A 
ATOM      6  N   UNL     1       4.161   5.247  18.215  0.00  0.00    +0.000 N 
ATOM      7  C   UNL     1       5.047   6.170  17.697  0.00  0.00    +0.000 A 
ATOM      8  O   UNL     1       4.648   7.075  16.979  0.00  0.00    +0.000 OA
ATOM      9  C   UNL     1       2.723   5.351  17.877  0.00  0.00    +0.000 C 
ATOM     10  C   UNL     1       1.925   4.092  18.258  0.00  0.00    +0.000 C 
ATOM     11  C   UNL     1       2.311   3.672  19.659  0.00  0.00    +0.000 C 
ATOM     12  N   UNL     1       3.724   3.338  19.653  0.00  0.00    +0.000 N 
ATOM     13  C   UNL     1       4.203   2.102  20.247  0.00  0.00    +0.000 C 
ENDROOT
TORSDOF 0
ENDMDL
MODEL 2
REMARK VINA RESULT:      -5.7      2.044      4.236
REMARK  Name = 
REMARK  2 active torsions:
REMARK  status: ('A' for Active; 'I' for Inactive)
REMARK    1  A    between atoms: C_1  and  C_2
REMARK    2  A    between atoms: N_12  and  C_13
REMARK                            x       y       z     vdW  Elec       q    Type
REMARK                         _______ _______ _______ _____ _____    ______ ____
ROOT
ATOM      1  C   UNL     1       1.972   2.178  19.413  0.00  0.00    +0.000 C 
ATOM      2  C   UNL     1       3.201   2.890  18.934  0.00  0.00    +0.000 A 
ATOM      3  N   UNL     1       4.203   3.168  19.807  0.00  0.00    +0.000 NA
ATOM      4  N   UNL     1       5.311   3.793  19.412  0.00  0.00    +0.000 NA
ATOM      5  C   UNL     1       5.485   4.181  18.120  0.00  0.00    +0.000 A 
ATOM      6  N   UNL     1       4.484   3.960  17.205  0.00  0.00    +0.000 N 
ATOM      7  C   UNL     1       3.341   3.297  17.603  0.00  0.00    +0.000 A 
ATOM      8  O   UNL     1       2.445   3.073  16.802  0.00  0.00    +0.000 OA
ATOM      9  C   UNL     1       4.609   4.416  15.802  0.00  0.00    +0.000 C 
ATOM     10  C   UNL     1       5.772   5.401  15.592  0.00  0.00    +0.000 C 
ATOM     11  C   UNL     1       7.002   4.864  16.291  0.00  0.00    +0.000 C 
ATOM     12  N   UNL     1       6.711   4.789  17.712  0.00  0.00    +0.000 N 
ATOM     13  C   UNL     1       7.637   5.325  18.694  0.00  0.00    +0.000 C 
ENDROOT
TORSDOF 0
ENDMDL
MODEL 3
REMARK VINA RESULT:      -5.7      1.922      4.027
REMARK  Name = 
REMARK  2 active torsions:
REMARK  status: ('A' for Active; 'I' for Inactive)
REMARK    1  A    between atoms: C_1  and  C_2
REMARK    2  A    between atoms: N_12  and  C_13
REMARK                            x       y       z     vdW  Elec       q    Type
REMARK                         _______ _______ _______ _____ _____    ______ ____
ROOT
ATOM      1  C   UNL     1       2.047   2.642  21.464  0.00  0.00    +0.000 C 
ATOM      2  C   UNL     1       2.948   3.295  20.459  0.00  0.00    +0.000 A 
ATOM      3  N   UNL     1       4.179   2.776  20.218  0.00  0.00    +0.000 NA
ATOM      4  N   UNL     1       5.001   3.328  19.327  0.00  0.00    +0.000 NA
ATOM      5  C   UNL     1       4.643   4.435  18.622  0.00  0.00    +0.000 A 
ATOM      6  N   UNL     1       3.424   5.025  18.858  0.00  0.00    +0.000 N 
ATOM      7  C   UNL     1       2.560   4.448  19.767  0.00  0.00    +0.000 A 
ATOM      8  O   UNL     1       1.464   4.944  19.979  0.00  0.00    +0.000 OA
ATOM      9  C   UNL     1       3.018   6.262  18.155  0.00  0.00    +0.000 C 
ATOM     10  C   UNL     1       4.187   6.951  17.428  0.00  0.00    +0.000 C 
ATOM     11  C   UNL     1       4.972   5.907  16.664  0.00  0.00    +0.000 C 
ATOM     12  N   UNL     1       5.517   4.965  17.625  0.00  0.00    +0.000 N 
ATOM     13  C   UNL     1       6.916   4.577  17.582  0.00  0.00    +0.000 C 
ENDROOT
TORSDOF 0
ENDMDL
MODEL 4
REMARK VINA RESULT:      -5.6      1.802      2.355
REMARK  Name = 
REMARK  2 active torsions:
REMARK  status: ('A' for Active; 'I' for Inactive)
REMARK    1  A    between atoms: C_1  and  C_2
REMARK    2  A    between atoms: N_12  and  C_13
REMARK                            x       y       z     vdW  Elec       q    Type
REMARK                         _______ _______ _______ _____ _____    ______ ____
ROOT
ATOM      1  C   UNL     1       7.634   4.528  17.359  0.00  0.00    +0.000 C 
ATOM      2  C   UNL     1       6.322   4.936  17.958  0.00  0.00    +0.000 A 
ATOM      3  N   UNL     1       5.778   4.199  18.959  0.00  0.00    +0.000 NA
ATOM      4  N   UNL     1       4.618   4.539  19.518  0.00  0.00    +0.000 NA
ATOM      5  C   UNL     1       3.928   5.637  19.108  0.00  0.00    +0.000 A 
ATOM      6  N   UNL     1       4.414   6.396  18.070  0.00  0.00    +0.000 N 
ATOM      7  C   UNL     1       5.625   6.059  17.499  0.00  0.00    +0.000 A 
ATOM      8  O   UNL     1       6.086   6.730  16.587  0.00  0.00    +0.000 OA
ATOM      9  C   UNL     1       3.668   7.566  17.556  0.00  0.00    +0.000 C 
ATOM     10  C   UNL     1       2.217   7.624  18.065  0.00  0.00    +0.000 C 
ATOM     11  C   UNL     1       2.209   7.357  19.554  0.00  0.00    +0.000 C 
ATOM     12  N   UNL     1       2.721   6.015  19.771  0.00  0.00    +0.000 N 
ATOM     13  C   UNL     1       2.021   5.077  20.630  0.00  0.00    +0.000 C 
ENDROOT
TORSDOF 0
ENDMDL
MODEL 5
REMARK VINA RESULT:      -5.6      2.357      4.707
REMARK  Name = 
REMARK  2 active torsions:
REMARK  status: ('A' for Active; 'I' for Inactive)
REMARK    1  A    between atoms: C_1  and  C_2
REMARK    2  A    between atoms: N_12  and  C_13
REMARK                            x       y       z     vdW  Elec       q    Type
REMARK                         _______ _______ _______ _____ _____    ______ ____
ROOT
ATOM      1  C   UNL     1       1.871   2.668  21.678  0.00  0.00    +0.000 C 
ATOM      2  C   UNL     1       2.311   3.719  20.704  0.00  0.00    +0.000 A 
ATOM      3  N   UNL     1       1.764   4.960  20.758  0.00  0.00    +0.000 NA
ATOM      4  N   UNL     1       2.137   5.919  19.912  0.00  0.00    +0.000 NA
ATOM      5  C   UNL     1       3.081   5.695  18.958  0.00  0.00    +0.000 A 
ATOM      6  N   UNL     1       3.637   4.444  18.834  0.00  0.00    +0.000 N 
ATOM      7  C   UNL     1       3.267   3.451  19.719  0.00  0.00    +0.000 A 
ATOM      8  O   UNL     1       3.763   2.336  19.640  0.00  0.00    +0.000 OA
ATOM      9  C   UNL     1       4.625   4.142  17.775  0.00  0.00    +0.000 C 
ATOM     10  C   UNL     1       4.695   5.231  16.690  0.00  0.00    +0.000 C 
ATOM     11  C   UNL     1       4.743   6.587  17.360  0.00  0.00    +0.000 C 
ATOM     12  N   UNL     1       3.510   6.759  18.109  0.00  0.00    +0.000 N 
ATOM     13  C   UNL     1       2.729   7.977  17.992  0.00  0.00    +0.000 C 
ENDROOT
TORSDOF 0
ENDMDL
MODEL 6
REMARK VINA RESULT:      -5.6      1.987      4.142
REMARK  Name = 
REMARK  2 active torsions:
REMARK  status: ('A' for Active; 'I' for Inactive)
REMARK    1  A    between atoms: C_1  and  C_2
REMARK    2  A    between atoms: N_12  and  C_13
REMARK                            x       y       z     vdW  Elec       q    Type
REMARK                         _______ _______ _______ _____ _____    ______ ____
ROOT
ATOM      1  C   UNL     1       1.344   4.018  19.608  0.00  0.00    +0.000 C 
ATOM      2  C   UNL     1       2.736   4.324  19.144  0.00  0.00    +0.000 A 
ATOM      3  N   UNL     1       3.605   4.947  19.979  0.00  0.00    +0.000 NA
ATOM      4  N   UNL     1       4.851   5.226  19.600  0.00  0.00    +0.000 NA
ATOM      5  C   UNL     1       5.304   4.901  18.360  0.00  0.00    +0.000 A 
ATOM      6  N   UNL     1       4.453   4.305  17.460  0.00  0.00    +0.000 N 
ATOM      7  C   UNL     1       3.166   3.997  17.853  0.00  0.00    +0.000 A 
ATOM      8  O   UNL     1       2.397   3.450  17.077  0.00  0.00    +0.000 OA
ATOM      9  C   UNL     1       4.888   3.985  16.082  0.00  0.00    +0.000 C 
ATOM     10  C   UNL     1       6.215   4.664  15.699  0.00  0.00    +0.000 C 
ATOM     11  C   UNL     1       7.202   4.485  16.831  0.00  0.00    +0.000 C 
ATOM     12  N   UNL     1       6.664   5.152  18.004  0.00  0.00    +0.000 N 
ATOM     13  C   UNL     1       7.483   6.057  18.790  0.00  0.00    +0.000 C 
ENDROOT
TORSDOF 0
ENDMDL
MODEL 7
REMARK VINA RESULT:      -5.6      1.655      1.701
REMARK  Name = 
REMARK  2 active torsions:
REMARK  status: ('A' for Active; 'I' for Inactive)
REMARK    1  A    between atoms: C_1  and  C_2
REMARK    2  A    between atoms: N_12  and  C_13
REMARK                            x       y       z     vdW  Elec       q    Type
REMARK                         _______ _______ _______ _____ _____    ______ ____
ROOT
ATOM      1  C   UNL     1       7.170   4.768  16.987  0.00  0.00    +0.000 C 
ATOM      2  C   UNL     1       5.954   4.386  17.777  0.00  0.00    +0.000 A 
ATOM      3  N   UNL     1       6.065   4.134  19.105  0.00  0.00    +0.000 NA
ATOM      4  N   UNL     1       5.003   3.799  19.837  0.00  0.00    +0.000 NA
ATOM      5  C   UNL     1       3.765   3.693  19.284  0.00  0.00    +0.000 A 
ATOM      6  N   UNL     1       3.605   3.897  17.934  0.00  0.00    +0.000 N 
ATOM      7  C   UNL     1       4.698   4.262  17.174  0.00  0.00    +0.000 A 
ATOM      8  O   UNL     1       4.576   4.467  15.975  0.00  0.00    +0.000 OA
ATOM      9  C   UNL     1       2.286   3.737  17.282  0.00  0.00    +0.000 C 
ATOM     10  C   UNL     1       1.255   3.030  18.178  0.00  0.00    +0.000 C 
ATOM     11  C   UNL     1       1.309   3.638  19.562  0.00  0.00    +0.000 C 
ATOM     12  N   UNL     1       2.635   3.398  20.105  0.00  0.00    +0.000 N 
ATOM     13  C   UNL     1       2.809   2.863  21.444  0.00  0.00    +0.000 C 
ENDROOT
TORSDOF 0
ENDMDL
MODEL 8
REMARK VINA RESULT:      -5.6      1.026      1.026
REMARK  Name = 
REMARK  2 active torsions:
REMARK  status: ('A' for Active; 'I' for Inactive)
REMARK    1  A    between atoms: C_1  and  C_2
REMARK    2  A    between atoms: N_12  and  C_13
REMARK                            x       y       z     vdW  Elec       q    Type
REMARK                         _______ _______ _______ _____ _____    ______ ____
ROOT
ATOM      1  C   UNL     1       7.843   7.298  17.857  0.00  0.00    +0.000 C 
ATOM      2  C   UNL     1       6.857   6.219  18.192  0.00  0.00    +0.000 A 
ATOM      3  N   UNL     1       7.005   5.500  19.333  0.00  0.00    +0.000 NA
ATOM      4  N   UNL     1       6.143   4.539  19.663  0.00  0.00    +0.000 NA
ATOM      5  C   UNL     1       5.080   4.238  18.870  0.00  0.00    +0.000 A 
ATOM      6  N   UNL     1       4.906   4.908  17.683  0.00  0.00    +0.000 N 
ATOM      7  C   UNL     1       5.786   5.917  17.344  0.00  0.00    +0.000 A 
ATOM      8  O   UNL     1       5.641   6.540  16.302  0.00  0.00    +0.000 OA
ATOM      9  C   UNL     1       3.795   4.574  16.764  0.00  0.00    +0.000 C 
ATOM     10  C   UNL     1       3.105   3.245  17.116  0.00  0.00    +0.000 C 
ATOM     11  C   UNL     1       2.849   3.204  18.606  0.00  0.00    +0.000 C 
ATOM     12  N   UNL     1       4.134   3.250  19.282  0.00  0.00    +0.000 N 
ATOM     13  C   UNL     1       4.456   2.311  20.342  0.00  0.00    +0.000 C 
ENDROOT
TORSDOF 0
ENDMDL
MODEL 9
REMARK VINA RESULT:      -5.6      2.583      3.074
REMARK  Name = 
REMARK  2 active torsions:
REMARK  status: ('A' for Active; 'I' for Inactive)
REMARK    1  A    between atoms: C_1  and  C_2
REMARK    2  A    between atoms: N_12  and  C_13
REMARK                            x       y       z     vdW  Elec       q    Type
REMARK                         _______ _______ _______ _____ _____    ______ ____
ROOT
ATOM      1  C   UNL     1       2.872   8.111  17.803  0.00  0.00    +0.000 C 
ATOM      2  C   UNL     1       2.951   6.691  18.273  0.00  0.00    +0.000 A 
ATOM      3  N   UNL     1       3.474   5.738  17.460  0.00  0.00    +0.000 NA
ATOM      4  N   UNL     1       3.565   4.468  17.851  0.00  0.00    +0.000 NA
ATOM      5  C   UNL     1       3.137   4.071  19.080  0.00  0.00    +0.000 A 
ATOM      6  N   UNL     1       2.562   4.988  19.927  0.00  0.00    +0.000 N 
ATOM      7  C   UNL     1       2.481   6.310  19.535  0.00  0.00    +0.000 A 
ATOM      8  O   UNL     1       1.991   7.146  20.279  0.00  0.00    +0.000 OA
ATOM      9  C   UNL     1       2.032   4.589  21.250  0.00  0.00    +0.000 C 
ATOM     10  C   UNL     1       1.904   3.064  21.410  0.00  0.00    +0.000 C 
ATOM     11  C   UNL     1       3.174   2.410  20.911  0.00  0.00    +0.000 C 
ATOM     12  N   UNL     1       3.309   2.717  19.497  0.00  0.00    +0.000 N 
ATOM     13  C   UNL     1       3.602   1.673  18.531  0.00  0.00    +0.000 C 
ENDROOT
TORSDOF 0
ENDMDL
