MODEL 1
REMARK VINA RESULT:      -8.6      0.000      0.000
REMARK  Name = 
REMARK  5 active torsions:
REMARK  status: ('A' for Active; 'I' for Inactive)
REMARK    1  A    between atoms: C_2  and  C_26
REMARK    2  A    between atoms: N_3  and  C_4
REMARK    3  A    between atoms: C_7  and  C_8
REMARK    4  A    between atoms: C_8  and  N_9
REMARK    5  A    between atoms: C_12  and  C_13
REMARK                            x       y       z     vdW  Elec       q    Type
REMARK                         _______ _______ _______ _____ _____    ______ ____
ROOT
ATOM      1  C   UNL     1       2.980   5.890  19.242  0.00  0.00    +0.000 C 
ATOM      2  C   UNL     1       2.148   6.507  20.395  0.00  0.00    +0.000 C 
ATOM      3  C   UNL     1       1.662   7.987  20.285  0.00  0.00    +0.000 C 
ATOM      4  C   UNL     1       1.854   8.751  18.956  0.00  0.00    +0.000 C 
ATOM      5  C   UNL     1       2.959   8.089  18.131  0.00  0.00    +0.000 C 
ATOM      6  C   UNL     1       2.641   6.605  17.943  0.00  0.00    +0.000 C 
ENDROOT
BRANCH   1   9
ATOM      7  O   UNL     1       4.745   3.794  18.676  0.00  0.00    +0.000 OA
ATOM      8  C   UNL     1       5.230   4.888  18.990  0.00  0.00    +0.000 C 
ATOM      9  N   UNL     1       4.436   5.942  19.407  0.00  0.00    +0.000 N 
ATOM     10  H   UNL     1       4.841   6.694  19.948  0.00  0.00    +0.000 HD
BRANCH   8  11
ATOM     11  C   UNL     1       6.781   5.086  18.848  0.00  0.00    +0.000 C 
ATOM     12  C   UNL     1       7.515   4.317  17.738  0.00  0.00    +0.000 C 
ATOM     13  C   UNL     1       6.927   4.742  16.415  0.00  0.00    +0.000 A 
ATOM     14  C   UNL     1       6.708   3.822  15.394  0.00  0.00    +0.000 A 
ATOM     15  C   UNL     1       5.803   4.145  14.389  0.00  0.00    +0.000 A 
ATOM     16  C   UNL     1       5.147   5.378  14.403  0.00  0.00    +0.000 A 
ATOM     17  C   UNL     1       5.472   6.342  15.358  0.00  0.00    +0.000 A 
ATOM     18  C   UNL     1       6.400   6.045  16.353  0.00  0.00    +0.000 A 
ATOM     19  C   UNL     1       6.834   7.066  17.380  0.00  0.00    +0.000 C 
ATOM     20  N   UNL     1       7.036   6.550  18.742  0.00  0.00    +0.000 NA
ATOM     21  H   UNL     1       6.363   7.007  19.366  0.00  0.00    +0.000 HD
ENDBRANCH   8  11
ENDBRANCH   1   9
BRANCH   4  22
ATOM     22  C   UNL     1       0.613   8.904  18.031  0.00  0.00    +0.000 C 
BRANCH  22  23
ATOM     23  N   UNL     1      -0.121  10.186  17.962  0.00  0.00    +0.000 NA
ATOM     24  C   UNL     1      -1.526  10.022  18.366  0.00  0.00    +0.000 C 
ATOM     25  C   UNL     1      -2.283  11.349  18.523  0.00  0.00    +0.000 C 
ATOM     26  C   UNL     1      -1.565  12.403  19.380  0.00  0.00    +0.000 C 
ATOM     27  C   UNL     1      -0.102  12.498  18.941  0.00  0.00    +0.000 C 
ATOM     28  C   UNL     1       0.568  11.130  18.876  0.00  0.00    +0.000 C 
BRANCH  26  29
ATOM     29  C   UNL     1      -1.722  12.261  20.885  0.00  0.00    +0.000 A 
ATOM     30  C   UNL     1      -0.790  11.837  21.816  0.00  0.00    +0.000 A 
ATOM     31  N   UNL     1      -1.366  11.846  23.059  0.00  0.00    +0.000 N 
ATOM     32  C   UNL     1      -2.666  12.282  22.977  0.00  0.00    +0.000 A 
ATOM     33  C   UNL     1      -3.619  12.461  23.992  0.00  0.00    +0.000 A 
ATOM     34  C   UNL     1      -4.887  12.919  23.615  0.00  0.00    +0.000 A 
ATOM     35  C   UNL     1      -5.180  13.196  22.284  0.00  0.00    +0.000 A 
ATOM     36  C   UNL     1      -4.212  13.013  21.287  0.00  0.00    +0.000 A 
ATOM     37  C   UNL     1      -2.923  12.548  21.633  0.00  0.00    +0.000 A 
ATOM     38  H   UNL     1      -0.910  11.571  23.917  0.00  0.00    +0.000 HD
ENDBRANCH  26  29
ENDBRANCH  22  23
ENDBRANCH   4  22
TORSDOF 5
ENDMDL
MODEL 2
REMARK VINA RESULT:      -8.3      3.039     10.253
REMARK  Name = 
REMARK  5 active torsions:
REMARK  status: ('A' for Active; 'I' for Inactive)
REMARK    1  A    between atoms: C_2  and  C_26
REMARK    2  A    between atoms: N_3  and  C_4
REMARK    3  A    between atoms: C_7  and  C_8
REMARK    4  A    between atoms: C_8  and  N_9
REMARK    5  A    between atoms: C_12  and  C_13
REMARK                            x       y       z     vdW  Elec       q    Type
REMARK                         _______ _______ _______ _____ _____    ______ ____
ROOT
ATOM      1  C   UNL     1       0.419  11.137  22.073  0.00  0.00    +0.000 C 
ATOM      2  C   UNL     1      -0.232  10.036  22.949  0.00  0.00    +0.000 C 
ATOM      3  C   UNL     1      -0.475   8.618  22.345  0.00  0.00    +0.000 C 
ATOM      4  C   UNL     1       0.104   8.276  20.954  0.00  0.00    +0.000 C 
ATOM      5  C   UNL     1       0.382   9.564  20.177  0.00  0.00    +0.000 C 
ATOM      6  C   UNL     1       1.282  10.481  21.007  0.00  0.00    +0.000 C 
ENDROOT
BRANCH   1   9
ATOM      7  O   UNL     1       0.518  13.931  22.181  0.00  0.00    +0.000 OA
ATOM      8  C   UNL     1      -0.306  13.412  21.418  0.00  0.00    +0.000 C 
ATOM      9  N   UNL     1      -0.511  12.044  21.392  0.00  0.00    +0.000 N 
ATOM     10  H   UNL     1      -1.373  11.670  21.020  0.00  0.00    +0.000 HD
BRANCH   8  11
ATOM     11  C   UNL     1      -1.086  14.338  20.418  0.00  0.00    +0.000 C 
ATOM     12  C   UNL     1      -0.360  15.566  19.846  0.00  0.00    +0.000 C 
ATOM     13  C   UNL     1       0.850  15.077  19.090  0.00  0.00    +0.000 A 
ATOM     14  C   UNL     1       2.062  15.757  19.150  0.00  0.00    +0.000 A 
ATOM     15  C   UNL     1       3.226  15.076  18.809  0.00  0.00    +0.000 A 
ATOM     16  C   UNL     1       3.165  13.743  18.397  0.00  0.00    +0.000 A 
ATOM     17  C   UNL     1       1.933  13.113  18.215  0.00  0.00    +0.000 A 
ATOM     18  C   UNL     1       0.757  13.793  18.523  0.00  0.00    +0.000 A 
ATOM     19  C   UNL     1      -0.608  13.184  18.293  0.00  0.00    +0.000 C 
ATOM     20  N   UNL     1      -1.613  13.472  19.327  0.00  0.00    +0.000 NA
ATOM     21  H   UNL     1      -1.890  12.589  19.767  0.00  0.00    +0.000 HD
ENDBRANCH   8  11
ENDBRANCH   1   9
BRANCH   4  22
ATOM     22  C   UNL     1       1.401   7.418  20.907  0.00  0.00    +0.000 C 
BRANCH  22  23
ATOM     23  N   UNL     1       1.433   6.144  20.156  0.00  0.00    +0.000 NA
ATOM     24  C   UNL     1       1.791   6.362  18.747  0.00  0.00    +0.000 C 
ATOM     25  C   UNL     1       2.053   5.065  17.967  0.00  0.00    +0.000 C 
ATOM     26  C   UNL     1       3.016   4.085  18.654  0.00  0.00    +0.000 C 
ATOM     27  C   UNL     1       2.618   3.932  20.123  0.00  0.00    +0.000 C 
ATOM     28  C   UNL     1       2.443   5.279  20.814  0.00  0.00    +0.000 C 
BRANCH  26  29
ATOM     29  C   UNL     1       4.499   4.365  18.469  0.00  0.00    +0.000 A 
ATOM     30  C   UNL     1       5.448   4.663  19.430  0.00  0.00    +0.000 A 
ATOM     31  N   UNL     1       6.657   4.860  18.815  0.00  0.00    +0.000 N 
ATOM     32  C   UNL     1       6.534   4.685  17.459  0.00  0.00    +0.000 A 
ATOM     33  C   UNL     1       7.507   4.773  16.450  0.00  0.00    +0.000 A 
ATOM     34  C   UNL     1       7.094   4.548  15.132  0.00  0.00    +0.000 A 
ATOM     35  C   UNL     1       5.769   4.238  14.841  0.00  0.00    +0.000 A 
ATOM     36  C   UNL     1       4.815   4.152  15.865  0.00  0.00    +0.000 A 
ATOM     37  C   UNL     1       5.199   4.377  17.206  0.00  0.00    +0.000 A 
ATOM     38  H   UNL     1       7.519   5.101  19.284  0.00  0.00    +0.000 HD
ENDBRANCH  26  29
ENDBRANCH  22  23
ENDBRANCH   4  22
TORSDOF 5
ENDMDL
MODEL 3
REMARK VINA RESULT:      -7.9      2.091      3.802
REMARK  Name = 
REMARK  5 active torsions:
REMARK  status: ('A' for Active; 'I' for Inactive)
REMARK    1  A    between atoms: C_2  and  C_26
REMARK    2  A    between atoms: N_3  and  C_4
REMARK    3  A    between atoms: C_7  and  C_8
REMARK    4  A    between atoms: C_8  and  N_9
REMARK    5  A    between atoms: C_12  and  C_13
REMARK                            x       y       z     vdW  Elec       q    Type
REMARK                         _______ _______ _______ _____ _____    ______ ____
ROOT
ATOM      1  C   UNL     1       2.108   7.858  19.943  0.00  0.00    +0.000 C 
ATOM      2  C   UNL     1       1.669   9.003  18.995  0.00  0.00    +0.000 C 
ATOM      3  C   UNL     1       0.388   9.829  19.330  0.00  0.00    +0.000 C 
ATOM      4  C   UNL     1      -0.317   9.619  20.688  0.00  0.00    +0.000 C 
ATOM      5  C   UNL     1       0.070   8.258  21.269  0.00  0.00    +0.000 C 
ATOM      6  C   UNL     1       1.594   8.146  21.345  0.00  0.00    +0.000 C 
ENDROOT
BRANCH   1   9
ATOM      7  O   UNL     1       3.049   6.379  17.763  0.00  0.00    +0.000 OA
ATOM      8  C   UNL     1       2.265   5.823  18.542  0.00  0.00    +0.000 C 
ATOM      9  N   UNL     1       1.653   6.514  19.573  0.00  0.00    +0.000 N 
ATOM     10  H   UNL     1       0.805   6.153  19.987  0.00  0.00    +0.000 HD
BRANCH   8  11
ATOM     11  C   UNL     1       2.016   4.281  18.378  0.00  0.00    +0.000 C 
ATOM     12  C   UNL     1       2.713   3.550  17.221  0.00  0.00    +0.000 C 
ATOM     13  C   UNL     1       4.202   3.706  17.405  0.00  0.00    +0.000 A 
ATOM     14  C   UNL     1       5.045   3.928  16.321  0.00  0.00    +0.000 A 
ATOM     15  C   UNL     1       6.301   4.477  16.554  0.00  0.00    +0.000 A 
ATOM     16  C   UNL     1       6.706   4.777  17.857  0.00  0.00    +0.000 A 
ATOM     17  C   UNL     1       5.906   4.428  18.945  0.00  0.00    +0.000 A 
ATOM     18  C   UNL     1       4.657   3.849  18.729  0.00  0.00    +0.000 A 
ATOM     19  C   UNL     1       3.771   3.398  19.867  0.00  0.00    +0.000 C 
ATOM     20  N   UNL     1       2.332   3.638  19.684  0.00  0.00    +0.000 NA
ATOM     21  H   UNL     1       2.016   4.288  20.411  0.00  0.00    +0.000 HD
ENDBRANCH   8  11
ENDBRANCH   1   9
BRANCH   4  22
ATOM     22  C   UNL     1      -0.070  10.683  21.796  0.00  0.00    +0.000 C 
BRANCH  22  23
ATOM     23  N   UNL     1      -0.618  12.050  21.663  0.00  0.00    +0.000 NA
ATOM     24  C   UNL     1      -1.529  12.151  20.512  0.00  0.00    +0.000 C 
ATOM     25  C   UNL     1      -2.296  13.481  20.447  0.00  0.00    +0.000 C 
ATOM     26  C   UNL     1      -2.985  13.891  21.757  0.00  0.00    +0.000 C 
ATOM     27  C   UNL     1      -2.003  13.724  22.918  0.00  0.00    +0.000 C 
ATOM     28  C   UNL     1      -1.345  12.350  22.921  0.00  0.00    +0.000 C 
BRANCH  26  29
ATOM     29  C   UNL     1      -4.337  13.252  22.030  0.00  0.00    +0.000 A 
ATOM     30  C   UNL     1      -4.965  13.042  23.244  0.00  0.00    +0.000 A 
ATOM     31  N   UNL     1      -6.164  12.416  23.025  0.00  0.00    +0.000 N 
ATOM     32  C   UNL     1      -6.354  12.214  21.679  0.00  0.00    +0.000 A 
ATOM     33  C   UNL     1      -7.436  11.627  21.003  0.00  0.00    +0.000 A 
ATOM     34  C   UNL     1      -7.359  11.546  19.608  0.00  0.00    +0.000 A 
ATOM     35  C   UNL     1      -6.255  12.042  18.923  0.00  0.00    +0.000 A 
ATOM     36  C   UNL     1      -5.187  12.627  19.619  0.00  0.00    +0.000 A 
ATOM     37  C   UNL     1      -5.231  12.721  21.028  0.00  0.00    +0.000 A 
ATOM     38  H   UNL     1      -6.819  12.137  23.742  0.00  0.00    +0.000 HD
ENDBRANCH  26  29
ENDBRANCH  22  23
ENDBRANCH   4  22
TORSDOF 5
ENDMDL
MODEL 4
REMARK VINA RESULT:      -7.8      3.607     11.709
REMARK  Name = 
REMARK  5 active torsions:
REMARK  status: ('A' for Active; 'I' for Inactive)
REMARK    1  A    between atoms: C_2  and  C_26
REMARK    2  A    between atoms: N_3  and  C_4
REMARK    3  A    between atoms: C_7  and  C_8
REMARK    4  A    between atoms: C_8  and  N_9
REMARK    5  A    between atoms: C_12  and  C_13
REMARK                            x       y       z     vdW  Elec       q    Type
REMARK                         _______ _______ _______ _____ _____    ______ ____
ROOT
ATOM      1  C   UNL     1      -2.973  13.626  22.863  0.00  0.00    +0.000 C 
ATOM      2  C   UNL     1      -1.736  12.801  23.302  0.00  0.00    +0.000 C 
ATOM      3  C   UNL     1      -1.062  11.827  22.284  0.00  0.00    +0.000 C 
ATOM      4  C   UNL     1      -1.518  11.839  20.808  0.00  0.00    +0.000 C 
ATOM      5  C   UNL     1      -2.917  12.447  20.701  0.00  0.00    +0.000 C 
ATOM      6  C   UNL     1      -2.930  13.828  21.357  0.00  0.00    +0.000 C 
ENDROOT
BRANCH   1   9
ATOM      7  O   UNL     1      -5.114  15.012  24.013  0.00  0.00    +0.000 OA
ATOM      8  C   UNL     1      -5.309  13.844  23.655  0.00  0.00    +0.000 C 
ATOM      9  N   UNL     1      -4.278  13.044  23.194  0.00  0.00    +0.000 N 
ATOM     10  H   UNL     1      -4.375  12.039  23.209  0.00  0.00    +0.000 HD
BRANCH   8  11
ATOM     11  C   UNL     1      -6.778  13.292  23.673  0.00  0.00    +0.000 C 
ATOM     12  C   UNL     1      -7.916  14.232  23.246  0.00  0.00    +0.000 C 
ATOM     13  C   UNL     1      -7.656  14.653  21.821  0.00  0.00    +0.000 A 
ATOM     14  C   UNL     1      -7.897  15.957  21.397  0.00  0.00    +0.000 A 
ATOM     15  C   UNL     1      -7.267  16.409  20.243  0.00  0.00    +0.000 A 
ATOM     16  C   UNL     1      -6.429  15.558  19.520  0.00  0.00    +0.000 A 
ATOM     17  C   UNL     1      -6.300  14.216  19.881  0.00  0.00    +0.000 A 
ATOM     18  C   UNL     1      -6.949  13.740  21.017  0.00  0.00    +0.000 A 
ATOM     19  C   UNL     1      -6.894  12.285  21.426  0.00  0.00    +0.000 C 
ATOM     20  N   UNL     1      -6.793  12.037  22.872  0.00  0.00    +0.000 NA
ATOM     21  H   UNL     1      -5.903  11.563  23.059  0.00  0.00    +0.000 HD
ENDBRANCH   8  11
ENDBRANCH   1   9
BRANCH   4  22
ATOM     22  C   UNL     1      -0.611  12.581  19.784  0.00  0.00    +0.000 C 
BRANCH  22  23
ATOM     23  N   UNL     1       0.103  11.829  18.728  0.00  0.00    +0.000 NA
ATOM     24  C   UNL     1       1.527  11.667  19.056  0.00  0.00    +0.000 C 
ATOM     25  C   UNL     1       2.274  10.715  18.110  0.00  0.00    +0.000 C 
ATOM     26  C   UNL     1       1.585   9.361  17.883  0.00  0.00    +0.000 C 
ATOM     27  C   UNL     1       0.101   9.593  17.589  0.00  0.00    +0.000 C 
ATOM     28  C   UNL     1      -0.554  10.503  18.621  0.00  0.00    +0.000 C 
BRANCH  26  29
ATOM     29  C   UNL     1       1.817   8.305  18.952  0.00  0.00    +0.000 A 
ATOM     30  C   UNL     1       1.467   8.338  20.290  0.00  0.00    +0.000 A 
ATOM     31  N   UNL     1       1.888   7.179  20.889  0.00  0.00    +0.000 N 
ATOM     32  C   UNL     1       2.502   6.365  19.969  0.00  0.00    +0.000 A 
ATOM     33  C   UNL     1       3.067   5.090  20.133  0.00  0.00    +0.000 A 
ATOM     34  C   UNL     1       3.639   4.486  19.007  0.00  0.00    +0.000 A 
ATOM     35  C   UNL     1       3.634   5.127  17.773  0.00  0.00    +0.000 A 
ATOM     36  C   UNL     1       3.061   6.399  17.631  0.00  0.00    +0.000 A 
ATOM     37  C   UNL     1       2.479   7.038  18.749  0.00  0.00    +0.000 A 
ATOM     38  H   UNL     1       1.769   6.949  21.865  0.00  0.00    +0.000 HD
ENDBRANCH  26  29
ENDBRANCH  22  23
ENDBRANCH   4  22
TORSDOF 5
ENDMDL
MODEL 5
REMARK VINA RESULT:      -7.8      2.596      4.554
REMARK  Name = 
REMARK  5 active torsions:
REMARK  status: ('A' for Active; 'I' for Inactive)
REMARK    1  A    between atoms: C_2  and  C_26
REMARK    2  A    between atoms: N_3  and  C_4
REMARK    3  A    between atoms: C_7  and  C_8
REMARK    4  A    between atoms: C_8  and  N_9
REMARK    5  A    between atoms: C_12  and  C_13
REMARK                            x       y       z     vdW  Elec       q    Type
REMARK                         _______ _______ _______ _____ _____    ______ ____
ROOT
ATOM      1  C   UNL     1       1.883   7.856  20.351  0.00  0.00    +0.000 C 
ATOM      2  C   UNL     1       1.644   9.011  19.346  0.00  0.00    +0.000 C 
ATOM      3  C   UNL     1       0.390   9.926  19.512  0.00  0.00    +0.000 C 
ATOM      4  C   UNL     1      -0.489   9.786  20.775  0.00  0.00    +0.000 C 
ATOM      5  C   UNL     1      -0.271   8.413  21.410  0.00  0.00    +0.000 C 
ATOM      6  C   UNL     1       1.221   8.200  21.676  0.00  0.00    +0.000 C 
ENDROOT
BRANCH   1   9
ATOM      7  O   UNL     1       2.638   5.414  21.490  0.00  0.00    +0.000 OA
ATOM      8  C   UNL     1       1.736   5.401  20.643  0.00  0.00    +0.000 C 
ATOM      9  N   UNL     1       1.386   6.539  19.938  0.00  0.00    +0.000 N 
ATOM     10  H   UNL     1       0.895   6.455  19.058  0.00  0.00    +0.000 HD
BRANCH   8  11
ATOM     11  C   UNL     1       0.941   4.066  20.419  0.00  0.00    +0.000 C 
ATOM     12  C   UNL     1       0.835   3.513  18.989  0.00  0.00    +0.000 C 
ATOM     13  C   UNL     1       2.234   3.242  18.494  0.00  0.00    +0.000 A 
ATOM     14  C   UNL     1       2.603   3.524  17.182  0.00  0.00    +0.000 A 
ATOM     15  C   UNL     1       3.954   3.665  16.886  0.00  0.00    +0.000 A 
ATOM     16  C   UNL     1       4.914   3.505  17.887  0.00  0.00    +0.000 A 
ATOM     17  C   UNL     1       4.541   3.094  19.168  0.00  0.00    +0.000 A 
ATOM     18  C   UNL     1       3.192   2.918  19.472  0.00  0.00    +0.000 A 
ATOM     19  C   UNL     1       2.730   2.420  20.822  0.00  0.00    +0.000 C 
ATOM     20  N   UNL     1       1.508   3.048  21.345  0.00  0.00    +0.000 NA
ATOM     21  H   UNL     1       1.742   3.543  22.212  0.00  0.00    +0.000 HD
ENDBRANCH   8  11
ENDBRANCH   1   9
BRANCH   4  22
ATOM     22  C   UNL     1      -0.308  10.850  21.896  0.00  0.00    +0.000 C 
BRANCH  22  23
ATOM     23  N   UNL     1      -0.957  12.175  21.789  0.00  0.00    +0.000 NA
ATOM     24  C   UNL     1      -1.646  12.331  20.499  0.00  0.00    +0.000 C 
ATOM     25  C   UNL     1      -2.517  13.593  20.412  0.00  0.00    +0.000 C 
ATOM     26  C   UNL     1      -3.474  13.797  21.596  0.00  0.00    +0.000 C 
ATOM     27  C   UNL     1      -2.711  13.581  22.905  0.00  0.00    +0.000 C 
ATOM     28  C   UNL     1      -1.930  12.272  22.905  0.00  0.00    +0.000 C 
BRANCH  26  29
ATOM     29  C   UNL     1      -4.782  13.023  21.540  0.00  0.00    +0.000 A 
ATOM     30  C   UNL     1      -5.698  12.799  22.553  0.00  0.00    +0.000 A 
ATOM     31  N   UNL     1      -6.724  12.034  22.064  0.00  0.00    +0.000 N 
ATOM     32  C   UNL     1      -6.516  11.754  20.735  0.00  0.00    +0.000 A 
ATOM     33  C   UNL     1      -7.309  11.022  19.837  0.00  0.00    +0.000 A 
ATOM     34  C   UNL     1      -6.844  10.889  18.524  0.00  0.00    +0.000 A 
ATOM     35  C   UNL     1      -5.646  11.474  18.128  0.00  0.00    +0.000 A 
ATOM     36  C   UNL     1      -4.872  12.204  19.041  0.00  0.00    +0.000 A 
ATOM     37  C   UNL     1      -5.311  12.354  20.376  0.00  0.00    +0.000 A 
ATOM     38  H   UNL     1      -7.522  11.716  22.596  0.00  0.00    +0.000 HD
ENDBRANCH  26  29
ENDBRANCH  22  23
ENDBRANCH   4  22
TORSDOF 5
ENDMDL
MODEL 6
REMARK VINA RESULT:      -7.8      2.441     10.507
REMARK  Name = 
REMARK  5 active torsions:
REMARK  status: ('A' for Active; 'I' for Inactive)
REMARK    1  A    between atoms: C_2  and  C_26
REMARK    2  A    between atoms: N_3  and  C_4
REMARK    3  A    between atoms: C_7  and  C_8
REMARK    4  A    between atoms: C_8  and  N_9
REMARK    5  A    between atoms: C_12  and  C_13
REMARK                            x       y       z     vdW  Elec       q    Type
REMARK                         _______ _______ _______ _____ _____    ______ ____
ROOT
ATOM      1  C   UNL     1       0.209  10.041  18.457  0.00  0.00    +0.000 C 
ATOM      2  C   UNL     1       1.167   9.102  17.681  0.00  0.00    +0.000 C 
ATOM      3  C   UNL     1       2.143   8.176  18.473  0.00  0.00    +0.000 C 
ATOM      4  C   UNL     1       2.011   8.072  20.009  0.00  0.00    +0.000 C 
ATOM      5  C   UNL     1       1.272   9.297  20.551  0.00  0.00    +0.000 C 
ATOM      6  C   UNL     1      -0.068   9.450  19.830  0.00  0.00    +0.000 C 
ENDROOT
BRANCH   1   9
ATOM      7  O   UNL     1      -1.319  12.353  18.069  0.00  0.00    +0.000 OA
ATOM      8  C   UNL     1      -0.186  12.484  18.546  0.00  0.00    +0.000 C 
ATOM      9  N   UNL     1       0.686  11.414  18.655  0.00  0.00    +0.000 N 
ATOM     10  H   UNL     1       1.679  11.580  18.740  0.00  0.00    +0.000 HD
BRANCH   8  11
ATOM     11  C   UNL     1       0.237  13.894  19.092  0.00  0.00    +0.000 C 
ATOM     12  C   UNL     1      -0.808  14.722  19.857  0.00  0.00    +0.000 C 
ATOM     13  C   UNL     1      -1.232  13.927  21.067  0.00  0.00    +0.000 A 
ATOM     14  C   UNL     1      -2.560  13.897  21.482  0.00  0.00    +0.000 A 
ATOM     15  C   UNL     1      -2.978  12.856  22.303  0.00  0.00    +0.000 A 
ATOM     16  C   UNL     1      -2.071  11.876  22.713  0.00  0.00    +0.000 A 
ATOM     17  C   UNL     1      -0.716  11.988  22.398  0.00  0.00    +0.000 A 
ATOM     18  C   UNL     1      -0.277  13.044  21.602  0.00  0.00    +0.000 A 
ATOM     19  C   UNL     1       1.185  13.251  21.275  0.00  0.00    +0.000 C 
ATOM     20  N   UNL     1       1.469  13.707  19.906  0.00  0.00    +0.000 NA
ATOM     21  H   UNL     1       2.023  12.986  19.432  0.00  0.00    +0.000 HD
ENDBRANCH   8  11
ENDBRANCH   1   9
BRANCH   4  22
ATOM     22  C   UNL     1       1.303   6.811  20.584  0.00  0.00    +0.000 C 
BRANCH  22  23
ATOM     23  N   UNL     1       1.519   5.482  19.973  0.00  0.00    +0.000 NA
ATOM     24  C   UNL     1       1.775   5.591  18.529  0.00  0.00    +0.000 C 
ATOM     25  C   UNL     1       2.220   4.272  17.879  0.00  0.00    +0.000 C 
ATOM     26  C   UNL     1       3.363   3.549  18.606  0.00  0.00    +0.000 C 
ATOM     27  C   UNL     1       3.059   3.504  20.105  0.00  0.00    +0.000 C 
ATOM     28  C   UNL     1       2.688   4.875  20.657  0.00  0.00    +0.000 C 
BRANCH  26  29
ATOM     29  C   UNL     1       4.768   4.044  18.303  0.00  0.00    +0.000 A 
ATOM     30  C   UNL     1       5.761   4.423  19.188  0.00  0.00    +0.000 A 
ATOM     31  N   UNL     1       6.864   4.821  18.478  0.00  0.00    +0.000 N 
ATOM     32  C   UNL     1       6.628   4.700  17.130  0.00  0.00    +0.000 A 
ATOM     33  C   UNL     1       7.473   4.977  16.043  0.00  0.00    +0.000 A 
ATOM     34  C   UNL     1       6.962   4.765  14.757  0.00  0.00    +0.000 A 
ATOM     35  C   UNL     1       5.669   4.288  14.572  0.00  0.00    +0.000 A 
ATOM     36  C   UNL     1       4.844   4.015  15.673  0.00  0.00    +0.000 A 
ATOM     37  C   UNL     1       5.328   4.221  16.984  0.00  0.00    +0.000 A 
ATOM     38  H   UNL     1       7.728   5.156  18.879  0.00  0.00    +0.000 HD
ENDBRANCH  26  29
ENDBRANCH  22  23
ENDBRANCH   4  22
TORSDOF 5
ENDMDL
MODEL 7
REMARK VINA RESULT:      -7.8      1.224      1.367
REMARK  Name = 
REMARK  5 active torsions:
REMARK  status: ('A' for Active; 'I' for Inactive)
REMARK    1  A    between atoms: C_2  and  C_26
REMARK    2  A    between atoms: N_3  and  C_4
REMARK    3  A    between atoms: C_7  and  C_8
REMARK    4  A    between atoms: C_8  and  N_9
REMARK    5  A    between atoms: C_12  and  C_13
REMARK                            x       y       z     vdW  Elec       q    Type
REMARK                         _______ _______ _______ _____ _____    ______ ____
ROOT
ATOM      1  C   UNL     1       3.034   5.848  19.172  0.00  0.00    +0.000 C 
ATOM      2  C   UNL     1       2.210   6.427  20.350  0.00  0.00    +0.000 C 
ATOM      3  C   UNL     1       1.715   7.906  20.288  0.00  0.00    +0.000 C 
ATOM      4  C   UNL     1       1.891   8.711  18.981  0.00  0.00    +0.000 C 
ATOM      5  C   UNL     1       2.991   8.079  18.126  0.00  0.00    +0.000 C 
ATOM      6  C   UNL     1       2.679   6.599  17.898  0.00  0.00    +0.000 C 
ENDROOT
BRANCH   1   9
ATOM      7  O   UNL     1       4.793   3.733  18.661  0.00  0.00    +0.000 OA
ATOM      8  C   UNL     1       5.282   4.836  18.937  0.00  0.00    +0.000 C 
ATOM      9  N   UNL     1       4.492   5.904  19.326  0.00  0.00    +0.000 N 
ATOM     10  H   UNL     1       4.901   6.672  19.839  0.00  0.00    +0.000 HD
BRANCH   8  11
ATOM     11  C   UNL     1       6.832   5.027  18.778  0.00  0.00    +0.000 C 
ATOM     12  C   UNL     1       7.545   4.280  17.640  0.00  0.00    +0.000 C 
ATOM     13  C   UNL     1       6.941   4.740  16.336  0.00  0.00    +0.000 A 
ATOM     14  C   UNL     1       6.703   3.846  15.296  0.00  0.00    +0.000 A 
ATOM     15  C   UNL     1       5.786   4.198  14.312  0.00  0.00    +0.000 A 
ATOM     16  C   UNL     1       5.139   5.435  14.364  0.00  0.00    +0.000 A 
ATOM     17  C   UNL     1       5.483   6.374  15.337  0.00  0.00    +0.000 A 
ATOM     18  C   UNL     1       6.423   6.047  16.312  0.00  0.00    +0.000 A 
ATOM     19  C   UNL     1       6.878   7.041  17.357  0.00  0.00    +0.000 C 
ATOM     20  N   UNL     1       7.095   6.491  18.703  0.00  0.00    +0.000 NA
ATOM     21  H   UNL     1       6.433   6.938  19.347  0.00  0.00    +0.000 HD
ENDBRANCH   8  11
ENDBRANCH   1   9
BRANCH   4  22
ATOM     22  C   UNL     1       0.640   8.883  18.072  0.00  0.00    +0.000 C 
BRANCH  22  23
ATOM     23  N   UNL     1      -0.027  10.198  17.951  0.00  0.00    +0.000 NA
ATOM     24  C   UNL     1      -1.388  10.163  18.508  0.00  0.00    +0.000 C 
ATOM     25  C   UNL     1      -2.050  11.545  18.608  0.00  0.00    +0.000 C 
ATOM     26  C   UNL     1      -1.189  12.625  19.280  0.00  0.00    +0.000 C 
ATOM     27  C   UNL     1       0.222  12.584  18.690  0.00  0.00    +0.000 C 
ATOM     28  C   UNL     1       0.806  11.177  18.694  0.00  0.00    +0.000 C 
BRANCH  26  29
ATOM     29  C   UNL     1      -1.194  12.634  20.800  0.00  0.00    +0.000 A 
ATOM     30  C   UNL     1      -1.031  11.572  21.671  0.00  0.00    +0.000 A 
ATOM     31  N   UNL     1      -1.125  12.033  22.959  0.00  0.00    +0.000 N 
ATOM     32  C   UNL     1      -1.335  13.391  22.962  0.00  0.00    +0.000 A 
ATOM     33  C   UNL     1      -1.477  14.274  24.044  0.00  0.00    +0.000 A 
ATOM     34  C   UNL     1      -1.690  15.626  23.750  0.00  0.00    +0.000 A 
ATOM     35  C   UNL     1      -1.747  16.071  22.434  0.00  0.00    +0.000 A 
ATOM     36  C   UNL     1      -1.599  15.171  21.369  0.00  0.00    +0.000 A 
ATOM     37  C   UNL     1      -1.386  13.799  21.631  0.00  0.00    +0.000 A 
ATOM     38  H   UNL     1      -1.053  11.464  23.790  0.00  0.00    +0.000 HD
ENDBRANCH  26  29
ENDBRANCH  22  23
ENDBRANCH   4  22
TORSDOF 5
ENDMDL
MODEL 8
REMARK VINA RESULT:      -7.8      2.515      4.426
REMARK  Name = 
REMARK  5 active torsions:
REMARK  status: ('A' for Active; 'I' for Inactive)
REMARK    1  A    between atoms: C_2  and  C_26
REMARK    2  A    between atoms: N_3  and  C_4
REMARK    3  A    between atoms: C_7  and  C_8
REMARK    4  A    between atoms: C_8  and  N_9
REMARK    5  A    between atoms: C_12  and  C_13
REMARK                            x       y       z     vdW  Elec       q    Type
REMARK                         _______ _______ _______ _____ _____    ______ ____
ROOT
ATOM      1  C   UNL     1       3.830   6.832  18.273  0.00  0.00    +0.000 C 
ATOM      2  C   UNL     1       3.677   8.154  17.479  0.00  0.00    +0.000 C 
ATOM      3  C   UNL     1       2.369   8.993  17.628  0.00  0.00    +0.000 C 
ATOM      4  C   UNL     1       1.331   8.594  18.700  0.00  0.00    +0.000 C 
ATOM      5  C   UNL     1       1.526   7.129  19.093  0.00  0.00    +0.000 C 
ATOM      6  C   UNL     1       2.975   6.901  19.528  0.00  0.00    +0.000 C 
ENDROOT
BRANCH   1   9
ATOM      7  O   UNL     1       5.179   4.386  18.446  0.00  0.00    +0.000 OA
ATOM      8  C   UNL     1       4.126   4.420  17.797  0.00  0.00    +0.000 C 
ATOM      9  N   UNL     1       3.460   5.609  17.553  0.00  0.00    +0.000 N 
ATOM     10  H   UNL     1       2.807   5.672  16.785  0.00  0.00    +0.000 HD
BRANCH   8  11
ATOM     11  C   UNL     1       3.513   3.064  17.296  0.00  0.00    +0.000 C 
ATOM     12  C   UNL     1       3.487   1.874  18.268  0.00  0.00    +0.000 C 
ATOM     13  C   UNL     1       2.665   2.275  19.468  0.00  0.00    +0.000 A 
ATOM     14  C   UNL     1       3.040   1.907  20.756  0.00  0.00    +0.000 A 
ATOM     15  C   UNL     1       2.528   2.625  21.831  0.00  0.00    +0.000 A 
ATOM     16  C   UNL     1       1.639   3.679  21.612  0.00  0.00    +0.000 A 
ATOM     17  C   UNL     1       1.169   3.954  20.327  0.00  0.00    +0.000 A 
ATOM     18  C   UNL     1       1.650   3.223  19.243  0.00  0.00    +0.000 A 
ATOM     19  C   UNL     1       1.137   3.436  17.837  0.00  0.00    +0.000 C 
ATOM     20  N   UNL     1       2.149   3.358  16.774  0.00  0.00    +0.000 NA
ATOM     21  H   UNL     1       2.207   4.271  16.312  0.00  0.00    +0.000 HD
ENDBRANCH   8  11
ENDBRANCH   1   9
BRANCH   4  22
ATOM     22  C   UNL     1       1.302   9.426  20.015  0.00  0.00    +0.000 C 
BRANCH  22  23
ATOM     23  N   UNL     1       0.661  10.758  20.049  0.00  0.00    +0.000 NA
ATOM     24  C   UNL     1       0.472  11.297  18.693  0.00  0.00    +0.000 C 
ATOM     25  C   UNL     1      -0.381  12.574  18.648  0.00  0.00    +0.000 C 
ATOM     26  C   UNL     1      -1.708  12.489  19.417  0.00  0.00    +0.000 C 
ATOM     27  C   UNL     1      -1.453  11.885  20.799  0.00  0.00    +0.000 C 
ATOM     28  C   UNL     1      -0.651  10.591  20.722  0.00  0.00    +0.000 C 
BRANCH  26  29
ATOM     29  C   UNL     1      -2.863  11.824  18.685  0.00  0.00    +0.000 A 
ATOM     30  C   UNL     1      -2.828  11.036  17.549  0.00  0.00    +0.000 A 
ATOM     31  N   UNL     1      -4.106  10.663  17.225  0.00  0.00    +0.000 N 
ATOM     32  C   UNL     1      -4.996  11.179  18.135  0.00  0.00    +0.000 A 
ATOM     33  C   UNL     1      -6.392  11.043  18.203  0.00  0.00    +0.000 A 
ATOM     34  C   UNL     1      -7.054  11.692  19.251  0.00  0.00    +0.000 A 
ATOM     35  C   UNL     1      -6.348  12.432  20.193  0.00  0.00    +0.000 A 
ATOM     36  C   UNL     1      -4.954  12.552  20.108  0.00  0.00    +0.000 A 
ATOM     37  C   UNL     1      -4.254  11.912  19.060  0.00  0.00    +0.000 A 
ATOM     38  H   UNL     1      -4.366  10.093  16.432  0.00  0.00    +0.000 HD
ENDBRANCH  26  29
ENDBRANCH  22  23
ENDBRANCH   4  22
TORSDOF 5
ENDMDL
MODEL 9
REMARK VINA RESULT:      -7.7      1.971      3.819
REMARK  Name = 
REMARK  5 active torsions:
REMARK  status: ('A' for Active; 'I' for Inactive)
REMARK    1  A    between atoms: C_2  and  C_26
REMARK    2  A    between atoms: N_3  and  C_4
REMARK    3  A    between atoms: C_7  and  C_8
REMARK    4  A    between atoms: C_8  and  N_9
REMARK    5  A    between atoms: C_12  and  C_13
REMARK                            x       y       z     vdW  Elec       q    Type
REMARK                         _______ _______ _______ _____ _____    ______ ____
ROOT
ATOM      1  C   UNL     1       2.112   8.142  19.588  0.00  0.00    +0.000 C 
ATOM      2  C   UNL     1       1.161   9.269  19.112  0.00  0.00    +0.000 C 
ATOM      3  C   UNL     1      -0.038   9.694  20.016  0.00  0.00    +0.000 C 
ATOM      4  C   UNL     1      -0.151   9.120  21.446  0.00  0.00    +0.000 C 
ATOM      5  C   UNL     1       0.660   7.828  21.552  0.00  0.00    +0.000 C 
ATOM      6  C   UNL     1       2.100   8.085  21.107  0.00  0.00    +0.000 C 
ENDROOT
BRANCH   1   9
ATOM      7  O   UNL     1       3.423   6.857  17.475  0.00  0.00    +0.000 OA
ATOM      8  C   UNL     1       2.588   6.207  18.116  0.00  0.00    +0.000 C 
ATOM      9  N   UNL     1       1.803   6.796  19.093  0.00  0.00    +0.000 N 
ATOM     10  H   UNL     1       0.938   6.358  19.375  0.00  0.00    +0.000 HD
BRANCH   8  11
ATOM     11  C   UNL     1       2.472   4.665  17.844  0.00  0.00    +0.000 C 
ATOM     12  C   UNL     1       3.465   4.022  16.864  0.00  0.00    +0.000 C 
ATOM     13  C   UNL     1       4.856   4.237  17.408  0.00  0.00    +0.000 A 
ATOM     14  C   UNL     1       5.920   4.548  16.567  0.00  0.00    +0.000 A 
ATOM     15  C   UNL     1       7.051   5.142  17.115  0.00  0.00    +0.000 A 
ATOM     16  C   UNL     1       7.115   5.398  18.487  0.00  0.00    +0.000 A 
ATOM     17  C   UNL     1       6.099   4.962  19.337  0.00  0.00    +0.000 A 
ATOM     18  C   UNL     1       4.973   4.337  18.806  0.00  0.00    +0.000 A 
ATOM     19  C   UNL     1       3.866   3.793  19.680  0.00  0.00    +0.000 C 
ATOM     20  N   UNL     1       2.502   3.976  19.164  0.00  0.00    +0.000 NA
ATOM     21  H   UNL     1       1.985   4.576  19.816  0.00  0.00    +0.000 HD
ENDBRANCH   8  11
ENDBRANCH   1   9
BRANCH   4  22
ATOM     22  C   UNL     1       0.286  10.039  22.624  0.00  0.00    +0.000 C 
BRANCH  22  23
ATOM     23  N   UNL     1      -0.420  11.312  22.887  0.00  0.00    +0.000 NA
ATOM     24  C   UNL     1      -0.274  12.248  21.763  0.00  0.00    +0.000 C 
ATOM     25  C   UNL     1      -1.159  13.499  21.881  0.00  0.00    +0.000 C 
ATOM     26  C   UNL     1      -2.635  13.215  22.196  0.00  0.00    +0.000 C 
ATOM     27  C   UNL     1      -2.721  12.205  23.343  0.00  0.00    +0.000 C 
ATOM     28  C   UNL     1      -1.851  10.979  23.095  0.00  0.00    +0.000 C 
BRANCH  26  29
ATOM     29  C   UNL     1      -3.512  12.840  21.012  0.00  0.00    +0.000 A 
ATOM     30  C   UNL     1      -3.135  12.568  19.710  0.00  0.00    +0.000 A 
ATOM     31  N   UNL     1      -4.256  12.295  18.969  0.00  0.00    +0.000 N 
ATOM     32  C   UNL     1      -5.376  12.367  19.761  0.00  0.00    +0.000 A 
ATOM     33  C   UNL     1      -6.724  12.152  19.431  0.00  0.00    +0.000 A 
ATOM     34  C   UNL     1      -7.671  12.303  20.450  0.00  0.00    +0.000 A 
ATOM     35  C   UNL     1      -7.283  12.642  21.742  0.00  0.00    +0.000 A 
ATOM     36  C   UNL     1      -5.930  12.850  22.049  0.00  0.00    +0.000 A 
ATOM     37  C   UNL     1      -4.949  12.709  21.042  0.00  0.00    +0.000 A 
ATOM     38  H   UNL     1      -4.266  12.073  17.984  0.00  0.00    +0.000 HD
ENDBRANCH  26  29
ENDBRANCH  22  23
ENDBRANCH   4  22
TORSDOF 5
ENDMDL
