MODEL 1
REMARK VINA RESULT:      -8.0      0.000      0.000
REMARK  Name = 
REMARK  4 active torsions:
REMARK  status: ('A' for Active; 'I' for Inactive)
REMARK    1  A    between atoms: C_2  and  C_3
REMARK    2  A    between atoms: C_6  and  S_7
REMARK    3  A    between atoms: S_7  and  N_10
REMARK    4  A    between atoms: C_22  and  C_23
REMARK                            x       y       z     vdW  Elec       q    Type
REMARK                         _______ _______ _______ _____ _____    ______ ____
ROOT
ATOM      1  C   UNL     1       2.541   6.219  18.898  0.00  0.00    +0.000 A 
ATOM      2  C   UNL     1       2.494   7.592  18.641  0.00  0.00    +0.000 A 
ATOM      3  C   UNL     1       1.808   8.446  19.504  0.00  0.00    +0.000 A 
ATOM      4  C   UNL     1       1.286   7.950  20.701  0.00  0.00    +0.000 A 
ATOM      5  C   UNL     1       1.502   6.614  21.061  0.00  0.00    +0.000 A 
ATOM      6  C   UNL     1       2.108   5.743  20.146  0.00  0.00    +0.000 A 
ENDROOT
BRANCH   1   8
ATOM      7  O   UNL     1       2.168   4.584  17.290  0.00  0.00    +0.000 OA
ATOM      8  C   UNL     1       3.020   5.237  17.884  0.00  0.00    +0.000 C 
ATOM      9  N   UNL     1       4.389   5.143  17.584  0.00  0.00    +0.000 N 
ATOM     10  C   UNL     1       5.480   5.962  18.125  0.00  0.00    +0.000 C 
ATOM     11  C   UNL     1       6.125   6.806  17.041  0.00  0.00    +0.000 C 
ATOM     12  C   UNL     1       6.587   5.940  15.881  0.00  0.00    +0.000 C 
ATOM     13  C   UNL     1       5.450   5.047  15.356  0.00  0.00    +0.000 C 
ATOM     14  C   UNL     1       4.807   4.248  16.497  0.00  0.00    +0.000 C 
BRANCH  13  15
ATOM     15  C   UNL     1       5.937   4.126  14.246  0.00  0.00    +0.000 C 
ATOM     16  F   UNL     1       7.023   4.626  13.615  0.00  0.00    +0.000 F 
ATOM     17  F   UNL     1       6.271   2.900  14.699  0.00  0.00    +0.000 F 
ATOM     18  F   UNL     1       4.975   3.966  13.308  0.00  0.00    +0.000 F 
ENDBRANCH  13  15
ENDBRANCH   1   8
BRANCH   4  19
ATOM     19  S   UNL     1       0.455   9.079  21.814  0.00  0.00    +0.000 S 
ATOM     20  O   UNL     1      -0.782   8.447  22.215  0.00  0.00    +0.000 OA
ATOM     21  O   UNL     1       1.438   9.498  22.797  0.00  0.00    +0.000 OA
BRANCH  19  22
ATOM     22  N   UNL     1       0.087  10.439  20.835  0.00  0.00    +0.000 NA
ATOM     23  C   UNL     1      -0.934  10.204  19.779  0.00  0.00    +0.000 C 
ATOM     24  C   UNL     1      -1.119  11.422  18.879  0.00  0.00    +0.000 C 
ATOM     25  C   UNL     1      -1.382  12.676  19.700  0.00  0.00    +0.000 C 
ATOM     26  C   UNL     1      -0.211  12.905  20.641  0.00  0.00    +0.000 C 
ATOM     27  C   UNL     1      -0.020  11.719  21.575  0.00  0.00    +0.000 C 
ENDBRANCH  19  22
ENDBRANCH   4  19
TORSDOF 4
ENDMDL
MODEL 2
REMARK VINA RESULT:      -7.9      5.351      9.359
REMARK  Name = 
REMARK  4 active torsions:
REMARK  status: ('A' for Active; 'I' for Inactive)
REMARK    1  A    between atoms: C_2  and  C_3
REMARK    2  A    between atoms: C_6  and  S_7
REMARK    3  A    between atoms: S_7  and  N_10
REMARK    4  A    between atoms: C_22  and  C_23
REMARK                            x       y       z     vdW  Elec       q    Type
REMARK                         _______ _______ _______ _____ _____    ______ ____
ROOT
ATOM      1  C   UNL     1       1.539   8.740  19.423  0.00  0.00    +0.000 A 
ATOM      2  C   UNL     1       1.561   7.744  20.403  0.00  0.00    +0.000 A 
ATOM      3  C   UNL     1       2.052   6.474  20.105  0.00  0.00    +0.000 A 
ATOM      4  C   UNL     1       2.652   6.236  18.866  0.00  0.00    +0.000 A 
ATOM      5  C   UNL     1       2.813   7.283  17.951  0.00  0.00    +0.000 A 
ATOM      6  C   UNL     1       2.233   8.530  18.221  0.00  0.00    +0.000 A 
ENDROOT
BRANCH   1   8
ATOM      7  O   UNL     1       0.308  10.528  18.597  0.00  0.00    +0.000 OA
ATOM      8  C   UNL     1       0.789  10.015  19.603  0.00  0.00    +0.000 C 
ATOM      9  N   UNL     1       0.586  10.541  20.890  0.00  0.00    +0.000 N 
ATOM     10  C   UNL     1       0.990   9.948  22.169  0.00  0.00    +0.000 C 
ATOM     11  C   UNL     1      -0.217   9.573  23.009  0.00  0.00    +0.000 C 
ATOM     12  C   UNL     1      -1.137  10.768  23.202  0.00  0.00    +0.000 C 
ATOM     13  C   UNL     1      -1.512  11.413  21.857  0.00  0.00    +0.000 C 
ATOM     14  C   UNL     1      -0.259  11.733  21.032  0.00  0.00    +0.000 C 
BRANCH  13  15
ATOM     15  C   UNL     1      -2.369  12.655  22.059  0.00  0.00    +0.000 C 
ATOM     16  F   UNL     1      -1.949  13.688  21.293  0.00  0.00    +0.000 F 
ATOM     17  F   UNL     1      -3.667  12.444  21.761  0.00  0.00    +0.000 F 
ATOM     18  F   UNL     1      -2.307  13.069  23.346  0.00  0.00    +0.000 F 
ENDBRANCH  13  15
ENDBRANCH   1   8
BRANCH   4  19
ATOM     19  S   UNL     1       3.320   4.609  18.529  0.00  0.00    +0.000 S 
ATOM     20  O   UNL     1       3.374   3.903  19.789  0.00  0.00    +0.000 OA
ATOM     21  O   UNL     1       2.578   4.076  17.400  0.00  0.00    +0.000 OA
BRANCH  19  22
ATOM     22  N   UNL     1       4.923   4.915  18.000  0.00  0.00    +0.000 NA
ATOM     23  C   UNL     1       5.910   5.176  19.081  0.00  0.00    +0.000 C 
ATOM     24  C   UNL     1       7.280   5.555  18.527  0.00  0.00    +0.000 C 
ATOM     25  C   UNL     1       7.763   4.532  17.509  0.00  0.00    +0.000 C 
ATOM     26  C   UNL     1       6.754   4.451  16.374  0.00  0.00    +0.000 C 
ATOM     27  C   UNL     1       5.381   4.044  16.891  0.00  0.00    +0.000 C 
ENDBRANCH  19  22
ENDBRANCH   4  19
TORSDOF 4
ENDMDL
MODEL 3
REMARK VINA RESULT:      -7.9      0.457      1.255
REMARK  Name = 
REMARK  4 active torsions:
REMARK  status: ('A' for Active; 'I' for Inactive)
REMARK    1  A    between atoms: C_2  and  C_3
REMARK    2  A    between atoms: C_6  and  S_7
REMARK    3  A    between atoms: S_7  and  N_10
REMARK    4  A    between atoms: C_22  and  C_23
REMARK                            x       y       z     vdW  Elec       q    Type
REMARK                         _______ _______ _______ _____ _____    ______ ____
ROOT
ATOM      1  C   UNL     1       2.485   6.261  18.966  0.00  0.00    +0.000 A 
ATOM      2  C   UNL     1       2.467   7.638  18.733  0.00  0.00    +0.000 A 
ATOM      3  C   UNL     1       1.788   8.490  19.602  0.00  0.00    +0.000 A 
ATOM      4  C   UNL     1       1.242   7.984  20.784  0.00  0.00    +0.000 A 
ATOM      5  C   UNL     1       1.428   6.638  21.123  0.00  0.00    +0.000 A 
ATOM      6  C   UNL     1       2.028   5.772  20.200  0.00  0.00    +0.000 A 
ENDROOT
BRANCH   1   8
ATOM      7  O   UNL     1       2.100   4.671  17.316  0.00  0.00    +0.000 OA
ATOM      8  C   UNL     1       2.958   5.287  17.941  0.00  0.00    +0.000 C 
ATOM      9  N   UNL     1       4.330   5.160  17.666  0.00  0.00    +0.000 N 
ATOM     10  C   UNL     1       5.431   5.937  18.246  0.00  0.00    +0.000 C 
ATOM     11  C   UNL     1       6.122   6.785  17.194  0.00  0.00    +0.000 C 
ATOM     12  C   UNL     1       6.583   5.931  16.025  0.00  0.00    +0.000 C 
ATOM     13  C   UNL     1       5.432   5.082  15.458  0.00  0.00    +0.000 C 
ATOM     14  C   UNL     1       4.744   4.277  16.568  0.00  0.00    +0.000 C 
BRANCH  13  15
ATOM     15  C   UNL     1       5.916   4.170  14.339  0.00  0.00    +0.000 C 
ATOM     16  F   UNL     1       4.977   4.009  13.378  0.00  0.00    +0.000 F 
ATOM     17  F   UNL     1       7.027   4.637  13.733  0.00  0.00    +0.000 F 
ATOM     18  F   UNL     1       6.200   2.938  14.821  0.00  0.00    +0.000 F 
ENDBRANCH  13  15
ENDBRANCH   1   8
BRANCH   4  19
ATOM     19  S   UNL     1       0.420   9.110  21.907  0.00  0.00    +0.000 S 
ATOM     20  O   UNL     1      -0.776   8.446  22.374  0.00  0.00    +0.000 OA
ATOM     21  O   UNL     1       1.428   9.584  22.838  0.00  0.00    +0.000 OA
BRANCH  19  22
ATOM     22  N   UNL     1      -0.037  10.433  20.915  0.00  0.00    +0.000 NA
ATOM     23  C   UNL     1       0.982  11.508  20.781  0.00  0.00    +0.000 C 
ATOM     24  C   UNL     1       0.459  12.699  19.984  0.00  0.00    +0.000 C 
ATOM     25  C   UNL     1      -0.122  12.254  18.650  0.00  0.00    +0.000 C 
ATOM     26  C   UNL     1      -1.253  11.271  18.908  0.00  0.00    +0.000 C 
ATOM     27  C   UNL     1      -0.754  10.054  19.675  0.00  0.00    +0.000 C 
ENDBRANCH  19  22
ENDBRANCH   4  19
TORSDOF 4
ENDMDL
MODEL 4
REMARK VINA RESULT:      -7.8      5.219      9.088
REMARK  Name = 
REMARK  4 active torsions:
REMARK  status: ('A' for Active; 'I' for Inactive)
REMARK    1  A    between atoms: C_2  and  C_3
REMARK    2  A    between atoms: C_6  and  S_7
REMARK    3  A    between atoms: S_7  and  N_10
REMARK    4  A    between atoms: C_22  and  C_23
REMARK                            x       y       z     vdW  Elec       q    Type
REMARK                         _______ _______ _______ _____ _____    ______ ____
ROOT
ATOM      1  C   UNL     1       1.729   8.194  19.431  0.00  0.00    +0.000 A 
ATOM      2  C   UNL     1       1.727   7.240  20.450  0.00  0.00    +0.000 A 
ATOM      3  C   UNL     1       2.132   5.931  20.190  0.00  0.00    +0.000 A 
ATOM      4  C   UNL     1       2.673   5.608  18.944  0.00  0.00    +0.000 A 
ATOM      5  C   UNL     1       2.863   6.606  17.981  0.00  0.00    +0.000 A 
ATOM      6  C   UNL     1       2.366   7.895  18.217  0.00  0.00    +0.000 A 
ENDROOT
BRANCH   1   8
ATOM      7  O   UNL     1       0.623  10.044  18.561  0.00  0.00    +0.000 OA
ATOM      8  C   UNL     1       1.060   9.519  19.580  0.00  0.00    +0.000 C 
ATOM      9  N   UNL     1       0.881  10.079  20.856  0.00  0.00    +0.000 N 
ATOM     10  C   UNL     1       1.235   9.485  22.150  0.00  0.00    +0.000 C 
ATOM     11  C   UNL     1      -0.001   9.204  22.984  0.00  0.00    +0.000 C 
ATOM     12  C   UNL     1      -0.844  10.458  23.147  0.00  0.00    +0.000 C 
ATOM     13  C   UNL     1      -1.165  11.102  21.787  0.00  0.00    +0.000 C 
ATOM     14  C   UNL     1       0.114  11.326  20.969  0.00  0.00    +0.000 C 
BRANCH  13  15
ATOM     15  C   UNL     1      -1.941  12.401  21.959  0.00  0.00    +0.000 C 
ATOM     16  F   UNL     1      -1.177  13.378  22.500  0.00  0.00    +0.000 F 
ATOM     17  F   UNL     1      -2.424  12.874  20.792  0.00  0.00    +0.000 F 
ATOM     18  F   UNL     1      -2.991  12.217  22.792  0.00  0.00    +0.000 F 
ENDBRANCH  13  15
ENDBRANCH   1   8
BRANCH   4  19
ATOM     19  S   UNL     1       3.232   3.932  18.654  0.00  0.00    +0.000 S 
ATOM     20  O   UNL     1       3.303   3.279  19.942  0.00  0.00    +0.000 OA
ATOM     21  O   UNL     1       2.412   3.395  17.583  0.00  0.00    +0.000 OA
BRANCH  19  22
ATOM     22  N   UNL     1       4.825   4.121  18.044  0.00  0.00    +0.000 NA
ATOM     23  C   UNL     1       4.931   4.218  16.564  0.00  0.00    +0.000 C 
ATOM     24  C   UNL     1       6.382   4.265  16.095  0.00  0.00    +0.000 C 
ATOM     25  C   UNL     1       7.160   5.349  16.824  0.00  0.00    +0.000 C 
ATOM     26  C   UNL     1       7.112   5.072  18.318  0.00  0.00    +0.000 C 
ATOM     27  C   UNL     1       5.676   5.051  18.823  0.00  0.00    +0.000 C 
ENDBRANCH  19  22
ENDBRANCH   4  19
TORSDOF 4
ENDMDL
MODEL 5
REMARK VINA RESULT:      -7.7      4.932      8.736
REMARK  Name = 
REMARK  4 active torsions:
REMARK  status: ('A' for Active; 'I' for Inactive)
REMARK    1  A    between atoms: C_2  and  C_3
REMARK    2  A    between atoms: C_6  and  S_7
REMARK    3  A    between atoms: S_7  and  N_10
REMARK    4  A    between atoms: C_22  and  C_23
REMARK                            x       y       z     vdW  Elec       q    Type
REMARK                         _______ _______ _______ _____ _____    ______ ____
ROOT
ATOM      1  C   UNL     1       1.817   7.331  20.183  0.00  0.00    +0.000 A 
ATOM      2  C   UNL     1       2.541   7.448  18.994  0.00  0.00    +0.000 A 
ATOM      3  C   UNL     1       3.304   6.379  18.527  0.00  0.00    +0.000 A 
ATOM      4  C   UNL     1       3.234   5.143  19.173  0.00  0.00    +0.000 A 
ATOM      5  C   UNL     1       2.356   4.961  20.249  0.00  0.00    +0.000 A 
ATOM      6  C   UNL     1       1.667   6.065  20.769  0.00  0.00    +0.000 A 
ENDROOT
BRANCH   1   8
ATOM      7  O   UNL     1       1.209   8.511  22.090  0.00  0.00    +0.000 OA
ATOM      8  C   UNL     1       1.210   8.511  20.863  0.00  0.00    +0.000 C 
ATOM      9  N   UNL     1       0.742   9.599  20.107  0.00  0.00    +0.000 N 
ATOM     10  C   UNL     1       0.816   9.773  18.652  0.00  0.00    +0.000 C 
ATOM     11  C   UNL     1       1.713  10.939  18.282  0.00  0.00    +0.000 C 
ATOM     12  C   UNL     1       1.269  12.211  18.983  0.00  0.00    +0.000 C 
ATOM     13  C   UNL     1       1.143  12.004  20.502  0.00  0.00    +0.000 C 
ATOM     14  C   UNL     1       0.261  10.789  20.820  0.00  0.00    +0.000 C 
BRANCH  13  15
ATOM     15  C   UNL     1       0.622  13.257  21.191  0.00  0.00    +0.000 C 
ATOM     16  F   UNL     1      -0.078  12.963  22.311  0.00  0.00    +0.000 F 
ATOM     17  F   UNL     1       1.612  14.100  21.552  0.00  0.00    +0.000 F 
ATOM     18  F   UNL     1      -0.214  13.935  20.372  0.00  0.00    +0.000 F 
ENDBRANCH  13  15
ENDBRANCH   1   8
BRANCH   4  19
ATOM     19  S   UNL     1       4.184   3.772  18.521  0.00  0.00    +0.000 S 
ATOM     20  O   UNL     1       5.065   3.326  19.577  0.00  0.00    +0.000 OA
ATOM     21  O   UNL     1       3.238   2.864  17.898  0.00  0.00    +0.000 OA
BRANCH  19  22
ATOM     22  N   UNL     1       5.130   4.473  17.274  0.00  0.00    +0.000 NA
ATOM     23  C   UNL     1       6.565   4.680  17.605  0.00  0.00    +0.000 C 
ATOM     24  C   UNL     1       7.311   5.413  16.493  0.00  0.00    +0.000 C 
ATOM     25  C   UNL     1       7.097   4.734  15.148  0.00  0.00    +0.000 C 
ATOM     26  C   UNL     1       5.608   4.708  14.840  0.00  0.00    +0.000 C 
ATOM     27  C   UNL     1       4.840   3.955  15.916  0.00  0.00    +0.000 C 
ENDBRANCH  19  22
ENDBRANCH   4  19
TORSDOF 4
ENDMDL
MODEL 6
REMARK VINA RESULT:      -7.7      2.930      3.715
REMARK  Name = 
REMARK  4 active torsions:
REMARK  status: ('A' for Active; 'I' for Inactive)
REMARK    1  A    between atoms: C_2  and  C_3
REMARK    2  A    between atoms: C_6  and  S_7
REMARK    3  A    between atoms: S_7  and  N_10
REMARK    4  A    between atoms: C_22  and  C_23
REMARK                            x       y       z     vdW  Elec       q    Type
REMARK                         _______ _______ _______ _____ _____    ______ ____
ROOT
ATOM      1  C   UNL     1       1.840   7.439  19.991  0.00  0.00    +0.000 A 
ATOM      2  C   UNL     1       2.109   8.067  18.773  0.00  0.00    +0.000 A 
ATOM      3  C   UNL     1       1.592   9.333  18.505  0.00  0.00    +0.000 A 
ATOM      4  C   UNL     1       0.920  10.035  19.510  0.00  0.00    +0.000 A 
ATOM      5  C   UNL     1       0.819   9.493  20.797  0.00  0.00    +0.000 A 
ATOM      6  C   UNL     1       1.258   8.183  21.029  0.00  0.00    +0.000 A 
ENDROOT
BRANCH   1   8
ATOM      7  O   UNL     1       1.333   5.362  20.902  0.00  0.00    +0.000 OA
ATOM      8  C   UNL     1       2.135   5.996  20.223  0.00  0.00    +0.000 C 
ATOM      9  N   UNL     1       3.248   5.395  19.611  0.00  0.00    +0.000 N 
ATOM     10  C   UNL     1       4.193   6.013  18.675  0.00  0.00    +0.000 C 
ATOM     11  C   UNL     1       4.107   5.373  17.302  0.00  0.00    +0.000 C 
ATOM     12  C   UNL     1       4.298   3.868  17.391  0.00  0.00    +0.000 C 
ATOM     13  C   UNL     1       3.337   3.237  18.414  0.00  0.00    +0.000 C 
ATOM     14  C   UNL     1       3.435   3.947  19.770  0.00  0.00    +0.000 C 
BRANCH  13  15
ATOM     15  C   UNL     1       3.585   1.742  18.557  0.00  0.00    +0.000 C 
ATOM     16  F   UNL     1       4.038   1.193  17.407  0.00  0.00    +0.000 F 
ATOM     17  F   UNL     1       4.489   1.455  19.516  0.00  0.00    +0.000 F 
ATOM     18  F   UNL     1       2.436   1.100  18.873  0.00  0.00    +0.000 F 
ENDBRANCH  13  15
ENDBRANCH   1   8
BRANCH   4  19
ATOM     19  S   UNL     1       0.311  11.680  19.154  0.00  0.00    +0.000 S 
ATOM     20  O   UNL     1       0.034  12.314  20.424  0.00  0.00    +0.000 OA
ATOM     21  O   UNL     1       1.234  12.274  18.204  0.00  0.00    +0.000 OA
BRANCH  19  22
ATOM     22  N   UNL     1      -1.174  11.411  18.338  0.00  0.00    +0.000 NA
ATOM     23  C   UNL     1      -1.266  10.128  17.593  0.00  0.00    +0.000 C 
ATOM     24  C   UNL     1      -2.565  10.016  16.800  0.00  0.00    +0.000 C 
ATOM     25  C   UNL     1      -3.773  10.284  17.685  0.00  0.00    +0.000 C 
ATOM     26  C   UNL     1      -3.651  11.678  18.279  0.00  0.00    +0.000 C 
ATOM     27  C   UNL     1      -2.378  11.811  19.104  0.00  0.00    +0.000 C 
ENDBRANCH  19  22
ENDBRANCH   4  19
TORSDOF 4
ENDMDL
MODEL 7
REMARK VINA RESULT:      -7.7      5.240      9.176
REMARK  Name = 
REMARK  4 active torsions:
REMARK  status: ('A' for Active; 'I' for Inactive)
REMARK    1  A    between atoms: C_2  and  C_3
REMARK    2  A    between atoms: C_6  and  S_7
REMARK    3  A    between atoms: S_7  and  N_10
REMARK    4  A    between atoms: C_22  and  C_23
REMARK                            x       y       z     vdW  Elec       q    Type
REMARK                         _______ _______ _______ _____ _____    ______ ____
ROOT
ATOM      1  C   UNL     1       1.853   8.308  19.094  0.00  0.00    +0.000 A 
ATOM      2  C   UNL     1       2.659   8.132  17.967  0.00  0.00    +0.000 A 
ATOM      3  C   UNL     1       3.566   7.076  17.909  0.00  0.00    +0.000 A 
ATOM      4  C   UNL     1       3.572   6.110  18.919  0.00  0.00    +0.000 A 
ATOM      5  C   UNL     1       2.630   6.170  19.953  0.00  0.00    +0.000 A 
ATOM      6  C   UNL     1       1.787   7.285  20.053  0.00  0.00    +0.000 A 
ENDROOT
BRANCH   1   8
ATOM      7  O   UNL     1       0.486  10.037  18.358  0.00  0.00    +0.000 OA
ATOM      8  C   UNL     1       1.070   9.556  19.324  0.00  0.00    +0.000 C 
ATOM      9  N   UNL     1       0.957  10.091  20.618  0.00  0.00    +0.000 N 
ATOM     10  C   UNL     1       1.492   9.532  21.865  0.00  0.00    +0.000 C 
ATOM     11  C   UNL     1       0.377   9.122  22.809  0.00  0.00    +0.000 C 
ATOM     12  C   UNL     1      -0.570  10.282  23.068  0.00  0.00    +0.000 C 
ATOM     13  C   UNL     1      -1.084  10.895  21.753  0.00  0.00    +0.000 C 
ATOM     14  C   UNL     1       0.081  11.252  20.821  0.00  0.00    +0.000 C 
BRANCH  13  15
ATOM     15  C   UNL     1      -1.969  12.105  22.015  0.00  0.00    +0.000 C 
ATOM     16  F   UNL     1      -1.244  13.202  22.333  0.00  0.00    +0.000 F 
ATOM     17  F   UNL     1      -2.733  12.429  20.951  0.00  0.00    +0.000 F 
ATOM     18  F   UNL     1      -2.799  11.868  23.057  0.00  0.00    +0.000 F 
ENDBRANCH  13  15
ENDBRANCH   1   8
BRANCH   4  19
ATOM     19  S   UNL     1       4.712   4.736  18.793  0.00  0.00    +0.000 S 
ATOM     20  O   UNL     1       5.763   4.967  19.759  0.00  0.00    +0.000 OA
ATOM     21  O   UNL     1       3.914   3.524  18.828  0.00  0.00    +0.000 OA
BRANCH  19  22
ATOM     22  N   UNL     1       5.371   4.880  17.216  0.00  0.00    +0.000 NA
ATOM     23  C   UNL     1       6.856   4.864  17.144  0.00  0.00    +0.000 C 
ATOM     24  C   UNL     1       7.365   5.115  15.728  0.00  0.00    +0.000 C 
ATOM     25  C   UNL     1       6.707   4.170  14.733  0.00  0.00    +0.000 C 
ATOM     26  C   UNL     1       5.201   4.373  14.782  0.00  0.00    +0.000 C 
ATOM     27  C   UNL     1       4.658   4.099  16.178  0.00  0.00    +0.000 C 
ENDBRANCH  19  22
ENDBRANCH   4  19
TORSDOF 4
ENDMDL
MODEL 8
REMARK VINA RESULT:      -7.6      5.029      9.003
REMARK  Name = 
REMARK  4 active torsions:
REMARK  status: ('A' for Active; 'I' for Inactive)
REMARK    1  A    between atoms: C_2  and  C_3
REMARK    2  A    between atoms: C_6  and  S_7
REMARK    3  A    between atoms: S_7  and  N_10
REMARK    4  A    between atoms: C_22  and  C_23
REMARK                            x       y       z     vdW  Elec       q    Type
REMARK                         _______ _______ _______ _____ _____    ______ ____
ROOT
ATOM      1  C   UNL     1       1.477   7.847  20.580  0.00  0.00    +0.000 A 
ATOM      2  C   UNL     1       2.085   7.951  19.327  0.00  0.00    +0.000 A 
ATOM      3  C   UNL     1       2.607   6.820  18.702  0.00  0.00    +0.000 A 
ATOM      4  C   UNL     1       2.398   5.558  19.264  0.00  0.00    +0.000 A 
ATOM      5  C   UNL     1       1.616   5.425  20.418  0.00  0.00    +0.000 A 
ATOM      6  C   UNL     1       1.178   6.574  21.090  0.00  0.00    +0.000 A 
ENDROOT
BRANCH   1   8
ATOM      7  O   UNL     1       1.794   9.208  22.436  0.00  0.00    +0.000 OA
ATOM      8  C   UNL     1       1.148   9.044  21.406  0.00  0.00    +0.000 C 
ATOM      9  N   UNL     1       0.192   9.971  20.958  0.00  0.00    +0.000 N 
ATOM     10  C   UNL     1      -0.540   9.954  19.687  0.00  0.00    +0.000 C 
ATOM     11  C   UNL     1      -0.163  11.140  18.818  0.00  0.00    +0.000 C 
ATOM     12  C   UNL     1      -0.360  12.447  19.568  0.00  0.00    +0.000 C 
ATOM     13  C   UNL     1       0.369  12.434  20.923  0.00  0.00    +0.000 C 
ATOM     14  C   UNL     1      -0.016  11.194  21.743  0.00  0.00    +0.000 C 
BRANCH  13  15
ATOM     15  C   UNL     1       0.106  13.713  21.706  0.00  0.00    +0.000 C 
ATOM     16  F   UNL     1       1.253  14.359  22.018  0.00  0.00    +0.000 F 
ATOM     17  F   UNL     1      -0.669  14.585  21.029  0.00  0.00    +0.000 F 
ATOM     18  F   UNL     1      -0.518  13.433  22.874  0.00  0.00    +0.000 F 
ENDBRANCH  13  15
ENDBRANCH   1   8
BRANCH   4  19
ATOM     19  S   UNL     1       3.034   4.117  18.413  0.00  0.00    +0.000 S 
ATOM     20  O   UNL     1       3.309   3.116  19.420  0.00  0.00    +0.000 OA
ATOM     21  O   UNL     1       2.127   3.846  17.312  0.00  0.00    +0.000 OA
BRANCH  19  22
ATOM     22  N   UNL     1       4.522   4.648  17.744  0.00  0.00    +0.000 NA
ATOM     23  C   UNL     1       5.686   4.603  18.667  0.00  0.00    +0.000 C 
ATOM     24  C   UNL     1       6.941   5.199  18.037  0.00  0.00    +0.000 C 
ATOM     25  C   UNL     1       7.227   4.570  16.681  0.00  0.00    +0.000 C 
ATOM     26  C   UNL     1       6.033   4.802  15.769  0.00  0.00    +0.000 C 
ATOM     27  C   UNL     1       4.769   4.190  16.356  0.00  0.00    +0.000 C 
ENDBRANCH  19  22
ENDBRANCH   4  19
TORSDOF 4
ENDMDL
MODEL 9
REMARK VINA RESULT:      -7.6      5.253      9.025
REMARK  Name = 
REMARK  4 active torsions:
REMARK  status: ('A' for Active; 'I' for Inactive)
REMARK    1  A    between atoms: C_2  and  C_3
REMARK    2  A    between atoms: C_6  and  S_7
REMARK    3  A    between atoms: S_7  and  N_10
REMARK    4  A    between atoms: C_22  and  C_23
REMARK                            x       y       z     vdW  Elec       q    Type
REMARK                         _______ _______ _______ _____ _____    ______ ____
ROOT
ATOM      1  C   UNL     1       1.686   8.253  19.363  0.00  0.00    +0.000 A 
ATOM      2  C   UNL     1       2.141   7.858  18.102  0.00  0.00    +0.000 A 
ATOM      3  C   UNL     1       2.743   6.612  17.931  0.00  0.00    +0.000 A 
ATOM      4  C   UNL     1       2.766   5.701  18.990  0.00  0.00    +0.000 A 
ATOM      5  C   UNL     1       2.135   6.015  20.199  0.00  0.00    +0.000 A 
ATOM      6  C   UNL     1       1.617   7.303  20.393  0.00  0.00    +0.000 A 
ENDROOT
BRANCH   1   8
ATOM      7  O   UNL     1       1.120  10.407  18.700  0.00  0.00    +0.000 OA
ATOM      8  C   UNL     1       1.286   9.659  19.658  0.00  0.00    +0.000 C 
ATOM      9  N   UNL     1       1.039  10.060  20.982  0.00  0.00    +0.000 N 
ATOM     10  C   UNL     1       1.070   9.225  22.188  0.00  0.00    +0.000 C 
ATOM     11  C   UNL     1      -0.307   9.113  22.816  0.00  0.00    +0.000 C 
ATOM     12  C   UNL     1      -0.891  10.488  23.093  0.00  0.00    +0.000 C 
ATOM     13  C   UNL     1      -0.871  11.373  21.835  0.00  0.00    +0.000 C 
ATOM     14  C   UNL     1       0.533  11.418  21.217  0.00  0.00    +0.000 C 
BRANCH  13  15
ATOM     15  C   UNL     1      -1.384  12.775  22.135  0.00  0.00    +0.000 C 
ATOM     16  F   UNL     1      -0.879  13.691  21.278  0.00  0.00    +0.000 F 
ATOM     17  F   UNL     1      -2.728  12.862  22.062  0.00  0.00    +0.000 F 
ATOM     18  F   UNL     1      -1.017  13.156  23.380  0.00  0.00    +0.000 F 
ENDBRANCH  13  15
ENDBRANCH   1   8
BRANCH   4  19
ATOM     19  S   UNL     1       3.499   4.090  18.726  0.00  0.00    +0.000 S 
ATOM     20  O   UNL     1       3.360   3.353  19.962  0.00  0.00    +0.000 OA
ATOM     21  O   UNL     1       2.953   3.578  17.482  0.00  0.00    +0.000 OA
BRANCH  19  22
ATOM     22  N   UNL     1       5.162   4.422  18.467  0.00  0.00    +0.000 NA
ATOM     23  C   UNL     1       5.584   4.481  17.042  0.00  0.00    +0.000 C 
ATOM     24  C   UNL     1       7.092   4.662  16.897  0.00  0.00    +0.000 C 
ATOM     25  C   UNL     1       7.584   5.845  17.717  0.00  0.00    +0.000 C 
ATOM     26  C   UNL     1       7.232   5.613  19.178  0.00  0.00    +0.000 C 
ATOM     27  C   UNL     1       5.728   5.461  19.360  0.00  0.00    +0.000 C 
ENDBRANCH  19  22
ENDBRANCH   4  19
TORSDOF 4
ENDMDL
