MODEL 1
REMARK VINA RESULT:      -7.8      0.000      0.000
REMARK  Name = 
REMARK  6 active torsions:
REMARK  status: ('A' for Active; 'I' for Inactive)
REMARK    1  A    between atoms: C_1  and  O_2
REMARK    2  A    between atoms: O_2  and  C_3
REMARK    3  A    between atoms: C_5  and  C_6
REMARK    4  A    between atoms: C_7  and  C_8
REMARK    5  A    between atoms: C_16  and  O_17
REMARK    6  A    between atoms: O_17  and  C_18
REMARK                            x       y       z     vdW  Elec       q    Type
REMARK                         _______ _______ _______ _____ _____    ______ ____
ROOT
ATOM      1  C   UNL     1       6.504   5.093  15.282  0.00  0.00    +0.000 A 
ATOM      2  C   UNL     1       5.392   5.878  15.603  0.00  0.00    +0.000 A 
ATOM      3  C   UNL     1       5.122   6.208  16.934  0.00  0.00    +0.000 A 
ATOM      4  C   UNL     1       5.961   5.731  17.944  0.00  0.00    +0.000 A 
ATOM      5  C   UNL     1       7.111   5.010  17.621  0.00  0.00    +0.000 A 
ATOM      6  C   UNL     1       7.380   4.683  16.291  0.00  0.00    +0.000 A 
ENDROOT
BRANCH   1   8
ATOM      7  C   UNL     1       6.003   3.705  13.444  0.00  0.00    +0.000 C 
ATOM      8  O   UNL     1       6.692   4.846  13.948  0.00  0.00    +0.000 OA
ENDBRANCH   1   8
BRANCH   3   9
ATOM      9  C   UNL     1       4.093   7.192  17.265  0.00  0.00    +0.000 C 
ATOM     10  C   UNL     1       2.969   7.035  17.975  0.00  0.00    +0.000 C 
BRANCH  10  11
ATOM     11  C   UNL     1       2.471   5.835  18.644  0.00  0.00    +0.000 A 
ATOM     12  C   UNL     1       2.323   5.811  20.036  0.00  0.00    +0.000 A 
ATOM     13  C   UNL     1       1.680   4.734  20.654  0.00  0.00    +0.000 A 
ATOM     14  C   UNL     1       1.198   3.687  19.875  0.00  0.00    +0.000 A 
ATOM     15  F   UNL     1       0.545   2.677  20.463  0.00  0.00    +0.000 F 
ATOM     16  C   UNL     1       1.367   3.683  18.496  0.00  0.00    +0.000 A 
ATOM     17  C   UNL     1       2.012   4.759  17.877  0.00  0.00    +0.000 A 
ENDBRANCH  10  11
ENDBRANCH   3   9
BRANCH   5  18
ATOM     18  O   UNL     1       7.916   4.675  18.678  0.00  0.00    +0.000 OA
ATOM     19  C   UNL     1       7.940   5.632  19.735  0.00  0.00    +0.000 C 
ENDBRANCH   5  18
TORSDOF 4
ENDMDL
MODEL 2
REMARK VINA RESULT:      -7.7      0.296      1.148
REMARK  Name = 
REMARK  6 active torsions:
REMARK  status: ('A' for Active; 'I' for Inactive)
REMARK    1  A    between atoms: C_1  and  O_2
REMARK    2  A    between atoms: O_2  and  C_3
REMARK    3  A    between atoms: C_5  and  C_6
REMARK    4  A    between atoms: C_7  and  C_8
REMARK    5  A    between atoms: C_16  and  O_17
REMARK    6  A    between atoms: O_17  and  C_18
REMARK                            x       y       z     vdW  Elec       q    Type
REMARK                         _______ _______ _______ _____ _____    ______ ____
ROOT
ATOM      1  C   UNL     1       6.443   5.031  15.387  0.00  0.00    +0.000 A 
ATOM      2  C   UNL     1       5.333   5.828  15.688  0.00  0.00    +0.000 A 
ATOM      3  C   UNL     1       5.047   6.168  17.013  0.00  0.00    +0.000 A 
ATOM      4  C   UNL     1       5.866   5.689  18.038  0.00  0.00    +0.000 A 
ATOM      5  C   UNL     1       7.015   4.956  17.736  0.00  0.00    +0.000 A 
ATOM      6  C   UNL     1       7.301   4.620  16.411  0.00  0.00    +0.000 A 
ENDROOT
BRANCH   1   8
ATOM      7  C   UNL     1       5.796   3.781  13.498  0.00  0.00    +0.000 C 
ATOM      8  O   UNL     1       6.648   4.776  14.058  0.00  0.00    +0.000 OA
ENDBRANCH   1   8
BRANCH   3   9
ATOM      9  C   UNL     1       4.022   7.163  17.324  0.00  0.00    +0.000 C 
ATOM     10  C   UNL     1       2.865   7.009  17.981  0.00  0.00    +0.000 C 
BRANCH  10  11
ATOM     11  C   UNL     1       2.317   5.803  18.598  0.00  0.00    +0.000 A 
ATOM     12  C   UNL     1       1.893   4.733  17.801  0.00  0.00    +0.000 A 
ATOM     13  C   UNL     1       1.541   3.516  18.394  0.00  0.00    +0.000 A 
ATOM     14  C   UNL     1       1.607   3.384  19.777  0.00  0.00    +0.000 A 
ATOM     15  F   UNL     1       1.310   2.206  20.341  0.00  0.00    +0.000 F 
ATOM     16  C   UNL     1       1.995   4.449  20.580  0.00  0.00    +0.000 A 
ATOM     17  C   UNL     1       2.346   5.667  19.989  0.00  0.00    +0.000 A 
ENDBRANCH  10  11
ENDBRANCH   3   9
BRANCH   5  18
ATOM     18  O   UNL     1       7.801   4.619  18.806  0.00  0.00    +0.000 OA
ATOM     19  C   UNL     1       8.034   5.679  19.731  0.00  0.00    +0.000 C 
ENDBRANCH   5  18
TORSDOF 4
ENDMDL
MODEL 3
REMARK VINA RESULT:      -7.7      0.465      2.925
REMARK  Name = 
REMARK  6 active torsions:
REMARK  status: ('A' for Active; 'I' for Inactive)
REMARK    1  A    between atoms: C_1  and  O_2
REMARK    2  A    between atoms: O_2  and  C_3
REMARK    3  A    between atoms: C_5  and  C_6
REMARK    4  A    between atoms: C_7  and  C_8
REMARK    5  A    between atoms: C_16  and  O_17
REMARK    6  A    between atoms: O_17  and  C_18
REMARK                            x       y       z     vdW  Elec       q    Type
REMARK                         _______ _______ _______ _____ _____    ______ ____
ROOT
ATOM      1  C   UNL     1       7.000   4.975  17.606  0.00  0.00    +0.000 A 
ATOM      2  C   UNL     1       6.122   6.029  17.880  0.00  0.00    +0.000 A 
ATOM      3  C   UNL     1       5.157   6.404  16.943  0.00  0.00    +0.000 A 
ATOM      4  C   UNL     1       5.087   5.733  15.720  0.00  0.00    +0.000 A 
ATOM      5  C   UNL     1       5.911   4.634  15.473  0.00  0.00    +0.000 A 
ATOM      6  C   UNL     1       6.874   4.258  16.412  0.00  0.00    +0.000 A 
ENDROOT
BRANCH   1   8
ATOM      7  C   UNL     1       7.998   5.645  19.632  0.00  0.00    +0.000 C 
ATOM      8  O   UNL     1       7.893   4.671  18.599  0.00  0.00    +0.000 OA
ENDBRANCH   1   8
BRANCH   3   9
ATOM      9  C   UNL     1       4.106   7.358  17.296  0.00  0.00    +0.000 C 
ATOM     10  C   UNL     1       2.984   7.159  18.000  0.00  0.00    +0.000 C 
BRANCH  10  11
ATOM     11  C   UNL     1       2.511   5.932  18.638  0.00  0.00    +0.000 A 
ATOM     12  C   UNL     1       2.405   5.856  20.032  0.00  0.00    +0.000 A 
ATOM     13  C   UNL     1       1.785   4.753  20.627  0.00  0.00    +0.000 A 
ATOM     14  C   UNL     1       1.284   3.733  19.824  0.00  0.00    +0.000 A 
ATOM     15  F   UNL     1       0.653   2.698  20.392  0.00  0.00    +0.000 F 
ATOM     16  C   UNL     1       1.412   3.782  18.442  0.00  0.00    +0.000 A 
ATOM     17  C   UNL     1       2.034   4.884  17.845  0.00  0.00    +0.000 A 
ENDBRANCH  10  11
ENDBRANCH   3   9
BRANCH   5  18
ATOM     18  O   UNL     1       5.695   3.987  14.285  0.00  0.00    +0.000 OA
ATOM     19  C   UNL     1       6.727   4.163  13.316  0.00  0.00    +0.000 C 
ENDBRANCH   5  18
TORSDOF 4
ENDMDL
MODEL 4
REMARK VINA RESULT:      -7.6      0.681      3.147
REMARK  Name = 
REMARK  6 active torsions:
REMARK  status: ('A' for Active; 'I' for Inactive)
REMARK    1  A    between atoms: C_1  and  O_2
REMARK    2  A    between atoms: O_2  and  C_3
REMARK    3  A    between atoms: C_5  and  C_6
REMARK    4  A    between atoms: C_7  and  C_8
REMARK    5  A    between atoms: C_16  and  O_17
REMARK    6  A    between atoms: O_17  and  C_18
REMARK                            x       y       z     vdW  Elec       q    Type
REMARK                         _______ _______ _______ _____ _____    ______ ____
ROOT
ATOM      1  C   UNL     1       6.934   4.998  17.486  0.00  0.00    +0.000 A 
ATOM      2  C   UNL     1       6.042   6.002  17.877  0.00  0.00    +0.000 A 
ATOM      3  C   UNL     1       5.016   6.407  17.019  0.00  0.00    +0.000 A 
ATOM      4  C   UNL     1       4.899   5.816  15.759  0.00  0.00    +0.000 A 
ATOM      5  C   UNL     1       5.741   4.763  15.395  0.00  0.00    +0.000 A 
ATOM      6  C   UNL     1       6.764   4.358  16.255  0.00  0.00    +0.000 A 
ENDROOT
BRANCH   1   8
ATOM      7  C   UNL     1       8.009   5.557  19.506  0.00  0.00    +0.000 C 
ATOM      8  O   UNL     1       7.888   4.658  18.408  0.00  0.00    +0.000 OA
ENDBRANCH   1   8
BRANCH   3   9
ATOM      9  C   UNL     1       3.958   7.299  17.490  0.00  0.00    +0.000 C 
ATOM     10  C   UNL     1       2.847   7.006  18.177  0.00  0.00    +0.000 C 
BRANCH  10  11
ATOM     11  C   UNL     1       2.394   5.708  18.672  0.00  0.00    +0.000 A 
ATOM     12  C   UNL     1       1.860   4.762  17.789  0.00  0.00    +0.000 A 
ATOM     13  C   UNL     1       1.598   3.462  18.232  0.00  0.00    +0.000 A 
ATOM     14  C   UNL     1       1.863   3.122  19.555  0.00  0.00    +0.000 A 
ATOM     15  F   UNL     1       1.651   1.866  19.966  0.00  0.00    +0.000 F 
ATOM     16  C   UNL     1       2.362   4.061  20.448  0.00  0.00    +0.000 A 
ATOM     17  C   UNL     1       2.623   5.362  20.007  0.00  0.00    +0.000 A 
ENDBRANCH  10  11
ENDBRANCH   3   9
BRANCH   5  18
ATOM     18  O   UNL     1       5.480   4.189  14.179  0.00  0.00    +0.000 OA
ATOM     19  C   UNL     1       6.634   3.937  13.380  0.00  0.00    +0.000 C 
ENDBRANCH   5  18
TORSDOF 4
ENDMDL
MODEL 5
REMARK VINA RESULT:      -7.4      3.471      6.249
REMARK  Name = 
REMARK  6 active torsions:
REMARK  status: ('A' for Active; 'I' for Inactive)
REMARK    1  A    between atoms: C_1  and  O_2
REMARK    2  A    between atoms: O_2  and  C_3
REMARK    3  A    between atoms: C_5  and  C_6
REMARK    4  A    between atoms: C_7  and  C_8
REMARK    5  A    between atoms: C_16  and  O_17
REMARK    6  A    between atoms: O_17  and  C_18
REMARK                            x       y       z     vdW  Elec       q    Type
REMARK                         _______ _______ _______ _____ _____    ______ ____
ROOT
ATOM      1  C   UNL     1       2.265   4.795  20.588  0.00  0.00    +0.000 A 
ATOM      2  C   UNL     1       2.656   4.093  19.443  0.00  0.00    +0.000 A 
ATOM      3  C   UNL     1       2.835   4.765  18.231  0.00  0.00    +0.000 A 
ATOM      4  C   UNL     1       2.601   6.140  18.165  0.00  0.00    +0.000 A 
ATOM      5  C   UNL     1       2.283   6.855  19.321  0.00  0.00    +0.000 A 
ATOM      6  C   UNL     1       2.107   6.183  20.532  0.00  0.00    +0.000 A 
ENDROOT
BRANCH   1   8
ATOM      7  C   UNL     1       1.966   2.651  21.518  0.00  0.00    +0.000 C 
ATOM      8  O   UNL     1       2.139   4.049  21.729  0.00  0.00    +0.000 OA
ENDBRANCH   1   8
BRANCH   3   9
ATOM      9  C   UNL     1       3.440   4.087  17.086  0.00  0.00    +0.000 C 
ATOM     10  C   UNL     1       4.675   4.213  16.582  0.00  0.00    +0.000 C 
BRANCH  10  11
ATOM     11  C   UNL     1       5.775   5.050  17.059  0.00  0.00    +0.000 A 
ATOM     12  C   UNL     1       5.900   6.372  16.617  0.00  0.00    +0.000 A 
ATOM     13  C   UNL     1       6.840   7.221  17.208  0.00  0.00    +0.000 A 
ATOM     14  C   UNL     1       7.652   6.739  18.229  0.00  0.00    +0.000 A 
ATOM     15  F   UNL     1       8.523   7.564  18.823  0.00  0.00    +0.000 F 
ATOM     16  C   UNL     1       7.560   5.419  18.654  0.00  0.00    +0.000 A 
ATOM     17  C   UNL     1       6.621   4.568  18.062  0.00  0.00    +0.000 A 
ENDBRANCH  10  11
ENDBRANCH   3   9
BRANCH   5  18
ATOM     18  O   UNL     1       2.172   8.212  19.166  0.00  0.00    +0.000 OA
ATOM     19  C   UNL     1       1.914   8.639  17.830  0.00  0.00    +0.000 C 
ENDBRANCH   5  18
TORSDOF 4
ENDMDL
MODEL 6
REMARK VINA RESULT:      -7.3      3.658      6.241
REMARK  Name = 
REMARK  6 active torsions:
REMARK  status: ('A' for Active; 'I' for Inactive)
REMARK    1  A    between atoms: C_1  and  O_2
REMARK    2  A    between atoms: O_2  and  C_3
REMARK    3  A    between atoms: C_5  and  C_6
REMARK    4  A    between atoms: C_7  and  C_8
REMARK    5  A    between atoms: C_16  and  O_17
REMARK    6  A    between atoms: O_17  and  C_18
REMARK                            x       y       z     vdW  Elec       q    Type
REMARK                         _______ _______ _______ _____ _____    ______ ____
ROOT
ATOM      1  C   UNL     1       2.210   6.923  19.459  0.00  0.00    +0.000 A 
ATOM      2  C   UNL     1       2.981   6.372  18.430  0.00  0.00    +0.000 A 
ATOM      3  C   UNL     1       3.419   5.047  18.510  0.00  0.00    +0.000 A 
ATOM      4  C   UNL     1       3.098   4.283  19.635  0.00  0.00    +0.000 A 
ATOM      5  C   UNL     1       2.267   4.806  20.627  0.00  0.00    +0.000 A 
ATOM      6  C   UNL     1       1.829   6.130  20.544  0.00  0.00    +0.000 A 
ENDROOT
BRANCH   1   8
ATOM      7  C   UNL     1       2.081   8.753  17.979  0.00  0.00    +0.000 C 
ATOM      8  O   UNL     1       1.813   8.221  19.273  0.00  0.00    +0.000 OA
ENDBRANCH   1   8
BRANCH   3   9
ATOM      9  C   UNL     1       4.042   4.397  17.359  0.00  0.00    +0.000 C 
ATOM     10  C   UNL     1       5.262   4.585  16.838  0.00  0.00    +0.000 C 
BRANCH  10  11
ATOM     11  C   UNL     1       6.323   5.479  17.297  0.00  0.00    +0.000 A 
ATOM     12  C   UNL     1       6.470   6.750  16.730  0.00  0.00    +0.000 A 
ATOM     13  C   UNL     1       7.365   7.667  17.291  0.00  0.00    +0.000 A 
ATOM     14  C   UNL     1       8.110   7.301  18.408  0.00  0.00    +0.000 A 
ATOM     15  F   UNL     1       8.935   8.194  18.969  0.00  0.00    +0.000 F 
ATOM     16  C   UNL     1       7.997   6.032  18.959  0.00  0.00    +0.000 A 
ATOM     17  C   UNL     1       7.104   5.113  18.398  0.00  0.00    +0.000 A 
ENDBRANCH  10  11
ENDBRANCH   3   9
BRANCH   5  18
ATOM     18  O   UNL     1       1.934   3.943  21.637  0.00  0.00    +0.000 OA
ATOM     19  C   UNL     1       1.462   2.670  21.199  0.00  0.00    +0.000 C 
ENDBRANCH   5  18
TORSDOF 4
ENDMDL
MODEL 7
REMARK VINA RESULT:      -7.3      3.440      6.226
REMARK  Name = 
REMARK  6 active torsions:
REMARK  status: ('A' for Active; 'I' for Inactive)
REMARK    1  A    between atoms: C_1  and  O_2
REMARK    2  A    between atoms: O_2  and  C_3
REMARK    3  A    between atoms: C_5  and  C_6
REMARK    4  A    between atoms: C_7  and  C_8
REMARK    5  A    between atoms: C_16  and  O_17
REMARK    6  A    between atoms: O_17  and  C_18
REMARK                            x       y       z     vdW  Elec       q    Type
REMARK                         _______ _______ _______ _____ _____    ______ ____
ROOT
ATOM      1  C   UNL     1       1.838   3.664  19.787  0.00  0.00    +0.000 A 
ATOM      2  C   UNL     1       2.539   3.255  18.648  0.00  0.00    +0.000 A 
ATOM      3  C   UNL     1       3.093   4.203  17.783  0.00  0.00    +0.000 A 
ATOM      4  C   UNL     1       2.924   5.563  18.053  0.00  0.00    +0.000 A 
ATOM      5  C   UNL     1       2.290   5.973  19.227  0.00  0.00    +0.000 A 
ATOM      6  C   UNL     1       1.739   5.024  20.091  0.00  0.00    +0.000 A 
ENDROOT
BRANCH   1   8
ATOM      7  C   UNL     1       1.822   2.677  21.927  0.00  0.00    +0.000 C 
ATOM      8  O   UNL     1       1.356   2.658  20.581  0.00  0.00    +0.000 OA
ENDBRANCH   1   8
BRANCH   3   9
ATOM      9  C   UNL     1       3.999   3.795  16.711  0.00  0.00    +0.000 C 
ATOM     10  C   UNL     1       5.242   4.216  16.446  0.00  0.00    +0.000 C 
BRANCH  10  11
ATOM     11  C   UNL     1       6.053   5.187  17.178  0.00  0.00    +0.000 A 
ATOM     12  C   UNL     1       6.821   4.782  18.276  0.00  0.00    +0.000 A 
ATOM     13  C   UNL     1       7.731   5.669  18.859  0.00  0.00    +0.000 A 
ATOM     14  C   UNL     1       7.858   6.955  18.344  0.00  0.00    +0.000 A 
ATOM     15  F   UNL     1       8.759   7.790  18.876  0.00  0.00    +0.000 F 
ATOM     16  C   UNL     1       7.079   7.379  17.276  0.00  0.00    +0.000 A 
ATOM     17  C   UNL     1       6.167   6.493  16.693  0.00  0.00    +0.000 A 
ENDBRANCH  10  11
ENDBRANCH   3   9
BRANCH   5  18
ATOM     18  O   UNL     1       2.264   7.325  19.445  0.00  0.00    +0.000 OA
ATOM     19  C   UNL     1       2.421   8.120  18.271  0.00  0.00    +0.000 C 
ENDBRANCH   5  18
TORSDOF 4
ENDMDL
MODEL 8
REMARK VINA RESULT:      -7.3      1.364      1.405
REMARK  Name = 
REMARK  6 active torsions:
REMARK  status: ('A' for Active; 'I' for Inactive)
REMARK    1  A    between atoms: C_1  and  O_2
REMARK    2  A    between atoms: O_2  and  C_3
REMARK    3  A    between atoms: C_5  and  C_6
REMARK    4  A    between atoms: C_7  and  C_8
REMARK    5  A    between atoms: C_16  and  O_17
REMARK    6  A    between atoms: O_17  and  C_18
REMARK                            x       y       z     vdW  Elec       q    Type
REMARK                         _______ _______ _______ _____ _____    ______ ____
ROOT
ATOM      1  C   UNL     1       6.172   4.582  16.190  0.00  0.00    +0.000 A 
ATOM      2  C   UNL     1       4.880   5.052  16.448  0.00  0.00    +0.000 A 
ATOM      3  C   UNL     1       4.684   6.148  17.292  0.00  0.00    +0.000 A 
ATOM      4  C   UNL     1       5.787   6.760  17.893  0.00  0.00    +0.000 A 
ATOM      5  C   UNL     1       7.081   6.341  17.579  0.00  0.00    +0.000 A 
ATOM      6  C   UNL     1       7.275   5.247  16.734  0.00  0.00    +0.000 A 
ENDROOT
BRANCH   1   8
ATOM      7  C   UNL     1       6.049   3.835  13.959  0.00  0.00    +0.000 C 
ATOM      8  O   UNL     1       6.258   3.519  15.332  0.00  0.00    +0.000 OA
ENDBRANCH   1   8
BRANCH   3   9
ATOM      9  C   UNL     1       3.369   6.775  17.407  0.00  0.00    +0.000 C 
ATOM     10  C   UNL     1       2.305   6.388  18.122  0.00  0.00    +0.000 C 
BRANCH  10  11
ATOM     11  C   UNL     1       2.174   5.238  19.014  0.00  0.00    +0.000 A 
ATOM     12  C   UNL     1       2.552   5.339  20.358  0.00  0.00    +0.000 A 
ATOM     13  C   UNL     1       2.258   4.301  21.248  0.00  0.00    +0.000 A 
ATOM     14  C   UNL     1       1.597   3.168  20.784  0.00  0.00    +0.000 A 
ATOM     15  F   UNL     1       1.279   2.193  21.644  0.00  0.00    +0.000 F 
ATOM     16  C   UNL     1       1.246   3.042  19.446  0.00  0.00    +0.000 A 
ATOM     17  C   UNL     1       1.541   4.079  18.554  0.00  0.00    +0.000 A 
ENDBRANCH  10  11
ENDBRANCH   3   9
BRANCH   5  18
ATOM     18  O   UNL     1       8.093   7.070  18.145  0.00  0.00    +0.000 OA
ATOM     19  C   UNL     1       8.012   8.476  17.919  0.00  0.00    +0.000 C 
ENDBRANCH   5  18
TORSDOF 4
ENDMDL
MODEL 9
REMARK VINA RESULT:      -7.1      1.368      2.866
REMARK  Name = 
REMARK  6 active torsions:
REMARK  status: ('A' for Active; 'I' for Inactive)
REMARK    1  A    between atoms: C_1  and  O_2
REMARK    2  A    between atoms: O_2  and  C_3
REMARK    3  A    between atoms: C_5  and  C_6
REMARK    4  A    between atoms: C_7  and  C_8
REMARK    5  A    between atoms: C_16  and  O_17
REMARK    6  A    between atoms: O_17  and  C_18
REMARK                            x       y       z     vdW  Elec       q    Type
REMARK                         _______ _______ _______ _____ _____    ______ ____
ROOT
ATOM      1  C   UNL     1       7.102   6.605  17.596  0.00  0.00    +0.000 A 
ATOM      2  C   UNL     1       5.876   7.272  17.697  0.00  0.00    +0.000 A 
ATOM      3  C   UNL     1       4.741   6.761  17.064  0.00  0.00    +0.000 A 
ATOM      4  C   UNL     1       4.842   5.589  16.310  0.00  0.00    +0.000 A 
ATOM      5  C   UNL     1       6.044   4.881  16.268  0.00  0.00    +0.000 A 
ATOM      6  C   UNL     1       7.177   5.392  16.904  0.00  0.00    +0.000 A 
ENDROOT
BRANCH   1   8
ATOM      7  C   UNL     1       8.274   8.584  18.105  0.00  0.00    +0.000 C 
ATOM      8  O   UNL     1       8.147   7.175  18.272  0.00  0.00    +0.000 OA
ENDBRANCH   1   8
BRANCH   3   9
ATOM      9  C   UNL     1       3.420   7.328  17.330  0.00  0.00    +0.000 C 
ATOM     10  C   UNL     1       2.389   6.796  17.998  0.00  0.00    +0.000 C 
BRANCH  10  11
ATOM     11  C   UNL     1       2.308   5.503  18.674  0.00  0.00    +0.000 A 
ATOM     12  C   UNL     1       2.666   5.387  20.022  0.00  0.00    +0.000 A 
ATOM     13  C   UNL     1       2.417   4.196  20.712  0.00  0.00    +0.000 A 
ATOM     14  C   UNL     1       1.821   3.130  20.046  0.00  0.00    +0.000 A 
ATOM     15  F   UNL     1       1.545   2.006  20.718  0.00  0.00    +0.000 F 
ATOM     16  C   UNL     1       1.491   3.222  18.700  0.00  0.00    +0.000 A 
ATOM     17  C   UNL     1       1.741   4.412  18.008  0.00  0.00    +0.000 A 
ENDBRANCH  10  11
ENDBRANCH   3   9
BRANCH   5  18
ATOM     18  O   UNL     1       6.010   3.695  15.584  0.00  0.00    +0.000 OA
ATOM     19  C   UNL     1       6.204   3.815  14.176  0.00  0.00    +0.000 C 
ENDBRANCH   5  18
TORSDOF 4
ENDMDL
