MODEL 1
REMARK VINA RESULT:      -6.7      0.000      0.000
REMARK  Name = 
REMARK  7 active torsions:
REMARK  status: ('A' for Active; 'I' for Inactive)
REMARK    1  A    between atoms: C_1  and  O_2
REMARK    2  A    between atoms: O_2  and  C_3
REMARK    3  A    between atoms: C_14  and  O_15
REMARK    4  A    between atoms: O_15  and  C_16
REMARK    5  A    between atoms: C_20  and  O_21
REMARK    6  A    between atoms: C_22  and  C_23
REMARK    7  A    between atoms: C_24  and  C_25
REMARK                            x       y       z     vdW  Elec       q    Type
REMARK                         _______ _______ _______ _____ _____    ______ ____
ROOT
ATOM      1  C   UNL     1      -0.962  11.444  21.361  0.00  0.00    +0.000 A 
ATOM      2  C   UNL     1      -0.881  10.865  20.096  0.00  0.00    +0.000 A 
ATOM      3  C   UNL     1      -1.812  11.116  19.112  0.00  0.00    +0.000 A 
ATOM      4  C   UNL     1      -2.816  12.015  19.278  0.00  0.00    +0.000 A 
ATOM      5  C   UNL     1      -2.831  12.765  20.467  0.00  0.00    +0.000 A 
ATOM      6  C   UNL     1      -1.946  12.458  21.560  0.00  0.00    +0.000 A 
ATOM      7  C   UNL     1      -2.070  13.246  22.836  0.00  0.00    +0.000 A 
ATOM      8  C   UNL     1      -3.352  13.381  23.499  0.00  0.00    +0.000 A 
ATOM      9  C   UNL     1      -3.495  14.310  24.556  0.00  0.00    +0.000 A 
ATOM     10  C   UNL     1      -2.425  15.083  24.919  0.00  0.00    +0.000 A 
ATOM     11  C   UNL     1      -1.188  14.919  24.357  0.00  0.00    +0.000 A 
ATOM     12  C   UNL     1      -0.959  13.990  23.347  0.00  0.00    +0.000 A 
ATOM     13  O   UNL     1      -0.294  15.821  24.862  0.00  0.00    +0.000 OA
ATOM     14  C   UNL     1      -1.183  16.711  25.557  0.00  0.00    +0.000 C 
ATOM     15  O   UNL     1      -2.468  16.112  25.811  0.00  0.00    +0.000 OA
ATOM     16  C   UNL     1      -4.592  12.582  23.085  0.00  0.00    +0.000 C 
ATOM     17  C   UNL     1      -5.654  13.310  22.186  0.00  0.00    +0.000 C 
ATOM     18  C   UNL     1      -6.107  14.677  22.714  0.00  0.00    +0.000 C 
ATOM     19  C   UNL     1      -5.242  13.357  20.687  0.00  0.00    +0.000 C 
ATOM     20  C   UNL     1      -6.227  14.111  19.783  0.00  0.00    +0.000 C 
ATOM     21  C   UNL     1      -3.824  13.905  20.480  0.00  0.00    +0.000 C 
ATOM     22  O   UNL     1      -1.549  10.481  17.937  0.00  0.00    +0.000 OA
ATOM     23  C   UNL     1      -0.170  10.173  18.172  0.00  0.00    +0.000 C 
ATOM     24  O   UNL     1       0.116  10.073  19.584  0.00  0.00    +0.000 OA
ENDROOT
BRANCH   1  26
ATOM     25  C   UNL     1      -0.314   9.956  23.121  0.00  0.00    +0.000 C 
ATOM     26  O   UNL     1      -0.119  11.169  22.404  0.00  0.00    +0.000 OA
ENDBRANCH   1  26
BRANCH  12  27
ATOM     27  O   UNL     1       0.272  13.861  22.747  0.00  0.00    +0.000 OA
ATOM     28  C   UNL     1       0.593  14.885  21.803  0.00  0.00    +0.000 C 
ENDBRANCH  12  27
BRANCH  16  29
ATOM     29  O   UNL     1      -5.211  12.127  24.299  0.00  0.00    +0.000 OA
ATOM     30  H   UNL     1      -4.747  12.522  25.058  0.00  0.00    +0.000 HD
ENDBRANCH  16  29
TORSDOF 3
ENDMDL
MODEL 2
REMARK VINA RESULT:      -6.3      6.145     11.135
REMARK  Name = 
REMARK  7 active torsions:
REMARK  status: ('A' for Active; 'I' for Inactive)
REMARK    1  A    between atoms: C_1  and  O_2
REMARK    2  A    between atoms: O_2  and  C_3
REMARK    3  A    between atoms: C_14  and  O_15
REMARK    4  A    between atoms: O_15  and  C_16
REMARK    5  A    between atoms: C_20  and  O_21
REMARK    6  A    between atoms: C_22  and  C_23
REMARK    7  A    between atoms: C_24  and  C_25
REMARK                            x       y       z     vdW  Elec       q    Type
REMARK                         _______ _______ _______ _____ _____    ______ ____
ROOT
ATOM      1  C   UNL     1       2.075   8.127  18.772  0.00  0.00    +0.000 A 
ATOM      2  C   UNL     1       1.483   8.778  19.852  0.00  0.00    +0.000 A 
ATOM      3  C   UNL     1       1.167   8.124  21.022  0.00  0.00    +0.000 A 
ATOM      4  C   UNL     1       1.498   6.824  21.236  0.00  0.00    +0.000 A 
ATOM      5  C   UNL     1       2.264   6.175  20.252  0.00  0.00    +0.000 A 
ATOM      6  C   UNL     1       2.520   6.786  18.974  0.00  0.00    +0.000 A 
ATOM      7  C   UNL     1       3.277   6.004  17.935  0.00  0.00    +0.000 A 
ATOM      8  C   UNL     1       2.855   4.667  17.565  0.00  0.00    +0.000 A 
ATOM      9  C   UNL     1       3.705   3.865  16.769  0.00  0.00    +0.000 A 
ATOM     10  C   UNL     1       4.923   4.355  16.381  0.00  0.00    +0.000 A 
ATOM     11  C   UNL     1       5.307   5.640  16.658  0.00  0.00    +0.000 A 
ATOM     12  C   UNL     1       4.502   6.505  17.391  0.00  0.00    +0.000 A 
ATOM     13  O   UNL     1       6.569   5.886  16.193  0.00  0.00    +0.000 OA
ATOM     14  C   UNL     1       6.998   4.553  15.876  0.00  0.00    +0.000 C 
ATOM     15  O   UNL     1       5.891   3.638  15.746  0.00  0.00    +0.000 OA
ATOM     16  C   UNL     1       1.530   4.053  18.028  0.00  0.00    +0.000 C 
ATOM     17  C   UNL     1       1.579   3.056  19.239  0.00  0.00    +0.000 C 
ATOM     18  C   UNL     1       2.614   1.933  19.100  0.00  0.00    +0.000 C 
ATOM     19  C   UNL     1       1.668   3.782  20.613  0.00  0.00    +0.000 C 
ATOM     20  C   UNL     1       1.776   2.841  21.821  0.00  0.00    +0.000 C 
ATOM     21  C   UNL     1       2.796   4.820  20.661  0.00  0.00    +0.000 C 
ATOM     22  O   UNL     1       0.620   8.932  21.970  0.00  0.00    +0.000 OA
ATOM     23  C   UNL     1       1.023  10.194  21.423  0.00  0.00    +0.000 C 
ATOM     24  O   UNL     1       1.208  10.116  19.994  0.00  0.00    +0.000 OA
ENDROOT
BRANCH   1  26
ATOM     25  C   UNL     1       2.323  10.120  17.469  0.00  0.00    +0.000 C 
ATOM     26  O   UNL     1       2.334   8.701  17.556  0.00  0.00    +0.000 OA
ENDBRANCH   1  26
BRANCH  12  27
ATOM     27  O   UNL     1       4.911   7.778  17.713  0.00  0.00    +0.000 OA
ATOM     28  C   UNL     1       6.326   7.976  17.709  0.00  0.00    +0.000 C 
ENDBRANCH  12  27
BRANCH  16  29
ATOM     29  O   UNL     1       0.958   3.401  16.882  0.00  0.00    +0.000 OA
ATOM     30  H   UNL     1       0.613   4.077  16.273  0.00  0.00    +0.000 HD
ENDBRANCH  16  29
TORSDOF 3
ENDMDL
MODEL 3
REMARK VINA RESULT:      -6.3      1.422      1.873
REMARK  Name = 
REMARK  7 active torsions:
REMARK  status: ('A' for Active; 'I' for Inactive)
REMARK    1  A    between atoms: C_1  and  O_2
REMARK    2  A    between atoms: O_2  and  C_3
REMARK    3  A    between atoms: C_14  and  O_15
REMARK    4  A    between atoms: O_15  and  C_16
REMARK    5  A    between atoms: C_20  and  O_21
REMARK    6  A    between atoms: C_22  and  C_23
REMARK    7  A    between atoms: C_24  and  C_25
REMARK                            x       y       z     vdW  Elec       q    Type
REMARK                         _______ _______ _______ _____ _____    ______ ____
ROOT
ATOM      1  C   UNL     1      -1.498  11.306  19.652  0.00  0.00    +0.000 A 
ATOM      2  C   UNL     1      -2.055  10.789  18.485  0.00  0.00    +0.000 A 
ATOM      3  C   UNL     1      -3.342  11.084  18.092  0.00  0.00    +0.000 A 
ATOM      4  C   UNL     1      -4.118  11.972  18.765  0.00  0.00    +0.000 A 
ATOM      5  C   UNL     1      -3.536  12.663  19.841  0.00  0.00    +0.000 A 
ATOM      6  C   UNL     1      -2.238  12.308  20.349  0.00  0.00    +0.000 A 
ATOM      7  C   UNL     1      -1.708  13.033  21.556  0.00  0.00    +0.000 A 
ATOM      8  C   UNL     1      -2.501  13.133  22.766  0.00  0.00    +0.000 A 
ATOM      9  C   UNL     1      -2.092  14.009  23.797  0.00  0.00    +0.000 A 
ATOM     10  C   UNL     1      -0.965  14.767  23.626  0.00  0.00    +0.000 A 
ATOM     11  C   UNL     1      -0.163  14.634  22.525  0.00  0.00    +0.000 A 
ATOM     12  C   UNL     1      -0.473  13.754  21.493  0.00  0.00    +0.000 A 
ATOM     13  O   UNL     1       0.883  15.513  22.568  0.00  0.00    +0.000 OA
ATOM     14  C   UNL     1       0.464  16.366  23.646  0.00  0.00    +0.000 C 
ATOM     15  O   UNL     1      -0.547  15.752  24.469  0.00  0.00    +0.000 OA
ATOM     16  C   UNL     1      -3.803  12.351  22.975  0.00  0.00    +0.000 C 
ATOM     17  C   UNL     1      -5.152  13.118  22.740  0.00  0.00    +0.000 C 
ATOM     18  C   UNL     1      -5.263  14.457  23.481  0.00  0.00    +0.000 C 
ATOM     19  C   UNL     1      -5.522  13.238  21.234  0.00  0.00    +0.000 C 
ATOM     20  C   UNL     1      -6.807  14.032  20.958  0.00  0.00    +0.000 C 
ATOM     21  C   UNL     1      -4.374  13.799  20.385  0.00  0.00    +0.000 C 
ATOM     22  O   UNL     1      -3.698  10.507  16.911  0.00  0.00    +0.000 OA
ATOM     23  C   UNL     1      -2.385  10.192  16.431  0.00  0.00    +0.000 C 
ATOM     24  O   UNL     1      -1.450  10.025  17.518  0.00  0.00    +0.000 OA
ENDROOT
BRANCH   1  26
ATOM     25  C   UNL     1      -0.103   9.734  20.799  0.00  0.00    +0.000 C 
ATOM     26  O   UNL     1      -0.259  10.984  20.139  0.00  0.00    +0.000 OA
ENDBRANCH   1  26
BRANCH  12  27
ATOM     27  O   UNL     1       0.306  13.658  20.364  0.00  0.00    +0.000 OA
ATOM     28  C   UNL     1       0.116  14.703  19.408  0.00  0.00    +0.000 C 
ENDBRANCH  12  27
BRANCH  16  29
ATOM     29  O   UNL     1      -3.761  11.836  24.316  0.00  0.00    +0.000 OA
ATOM     30  H   UNL     1      -2.957  12.165  24.755  0.00  0.00    +0.000 HD
ENDBRANCH  16  29
TORSDOF 3
ENDMDL
MODEL 4
REMARK VINA RESULT:      -6.1      2.418      5.967
REMARK  Name = 
REMARK  7 active torsions:
REMARK  status: ('A' for Active; 'I' for Inactive)
REMARK    1  A    between atoms: C_1  and  O_2
REMARK    2  A    between atoms: O_2  and  C_3
REMARK    3  A    between atoms: C_14  and  O_15
REMARK    4  A    between atoms: O_15  and  C_16
REMARK    5  A    between atoms: C_20  and  O_21
REMARK    6  A    between atoms: C_22  and  C_23
REMARK    7  A    between atoms: C_24  and  C_25
REMARK                            x       y       z     vdW  Elec       q    Type
REMARK                         _______ _______ _______ _____ _____    ______ ____
ROOT
ATOM      1  C   UNL     1      -2.712  14.370  22.053  0.00  0.00    +0.000 A 
ATOM      2  C   UNL     1      -3.416  13.661  23.023  0.00  0.00    +0.000 A 
ATOM      3  C   UNL     1      -3.127  12.350  23.330  0.00  0.00    +0.000 A 
ATOM      4  C   UNL     1      -2.077  11.691  22.775  0.00  0.00    +0.000 A 
ATOM      5  C   UNL     1      -1.222  12.421  21.931  0.00  0.00    +0.000 A 
ATOM      6  C   UNL     1      -1.548  13.755  21.501  0.00  0.00    +0.000 A 
ATOM      7  C   UNL     1      -0.630  14.449  20.532  0.00  0.00    +0.000 A 
ATOM      8  C   UNL     1      -0.243  13.806  19.291  0.00  0.00    +0.000 A 
ATOM      9  C   UNL     1       0.795  14.367  18.511  0.00  0.00    +0.000 A 
ATOM     10  C   UNL     1       1.433  15.494  18.953  0.00  0.00    +0.000 A 
ATOM     11  C   UNL     1       1.033  16.157  20.082  0.00  0.00    +0.000 A 
ATOM     12  C   UNL     1      -0.013  15.695  20.872  0.00  0.00    +0.000 A 
ATOM     13  O   UNL     1       1.838  17.234  20.331  0.00  0.00    +0.000 OA
ATOM     14  C   UNL     1       2.913  16.977  19.413  0.00  0.00    +0.000 C 
ATOM     15  O   UNL     1       2.539  16.046  18.379  0.00  0.00    +0.000 OA
ATOM     16  C   UNL     1      -0.885  12.508  18.790  0.00  0.00    +0.000 C 
ATOM     17  C   UNL     1      -0.099  11.172  19.032  0.00  0.00    +0.000 C 
ATOM     18  C   UNL     1       1.365  11.200  18.575  0.00  0.00    +0.000 C 
ATOM     19  C   UNL     1      -0.259  10.634  20.484  0.00  0.00    +0.000 C 
ATOM     20  C   UNL     1       0.541   9.358  20.779  0.00  0.00    +0.000 C 
ATOM     21  C   UNL     1       0.049  11.697  21.546  0.00  0.00    +0.000 C 
ATOM     22  O   UNL     1      -3.905  11.836  24.322  0.00  0.00    +0.000 OA
ATOM     23  C   UNL     1      -4.390  13.071  24.864  0.00  0.00    +0.000 C 
ATOM     24  O   UNL     1      -4.394  14.119  23.871  0.00  0.00    +0.000 OA
ENDROOT
BRANCH   1  26
ATOM     25  C   UNL     1      -4.151  15.836  20.823  0.00  0.00    +0.000 C 
ATOM     26  O   UNL     1      -3.006  15.643  21.644  0.00  0.00    +0.000 OA
ENDBRANCH   1  26
BRANCH  12  27
ATOM     27  O   UNL     1      -0.381  16.333  22.034  0.00  0.00    +0.000 OA
ATOM     28  C   UNL     1       0.526  16.168  23.126  0.00  0.00    +0.000 C 
ENDBRANCH  12  27
BRANCH  16  29
ATOM     29  O   UNL     1      -1.124  12.686  17.384  0.00  0.00    +0.000 OA
ATOM     30  H   UNL     1      -1.944  13.196  17.264  0.00  0.00    +0.000 HD
ENDBRANCH  16  29
TORSDOF 3
ENDMDL
MODEL 5
REMARK VINA RESULT:      -6.1      2.144      5.692
REMARK  Name = 
REMARK  7 active torsions:
REMARK  status: ('A' for Active; 'I' for Inactive)
REMARK    1  A    between atoms: C_1  and  O_2
REMARK    2  A    between atoms: O_2  and  C_3
REMARK    3  A    between atoms: C_14  and  O_15
REMARK    4  A    between atoms: O_15  and  C_16
REMARK    5  A    between atoms: C_20  and  O_21
REMARK    6  A    between atoms: C_22  and  C_23
REMARK    7  A    between atoms: C_24  and  C_25
REMARK                            x       y       z     vdW  Elec       q    Type
REMARK                         _______ _______ _______ _____ _____    ______ ____
ROOT
ATOM      1  C   UNL     1      -3.111  15.016  21.382  0.00  0.00    +0.000 A 
ATOM      2  C   UNL     1      -4.238  15.835  21.374  0.00  0.00    +0.000 A 
ATOM      3  C   UNL     1      -5.404  15.475  20.737  0.00  0.00    +0.000 A 
ATOM      4  C   UNL     1      -5.564  14.258  20.155  0.00  0.00    +0.000 A 
ATOM      5  C   UNL     1      -4.524  13.324  20.299  0.00  0.00    +0.000 A 
ATOM      6  C   UNL     1      -3.252  13.695  20.860  0.00  0.00    +0.000 A 
ATOM      7  C   UNL     1      -2.154  12.669  20.910  0.00  0.00    +0.000 A 
ATOM      8  C   UNL     1      -1.769  11.940  19.717  0.00  0.00    +0.000 A 
ATOM      9  C   UNL     1      -0.907  10.824  19.830  0.00  0.00    +0.000 A 
ATOM     10  C   UNL     1      -0.470  10.436  21.068  0.00  0.00    +0.000 A 
ATOM     11  C   UNL     1      -0.761  11.154  22.196  0.00  0.00    +0.000 A 
ATOM     12  C   UNL     1      -1.560  12.292  22.157  0.00  0.00    +0.000 A 
ATOM     13  O   UNL     1      -0.238  10.555  23.309  0.00  0.00    +0.000 OA
ATOM     14  C   UNL     1       0.138   9.279  22.768  0.00  0.00    +0.000 C 
ATOM     15  O   UNL     1       0.235   9.300  21.330  0.00  0.00    +0.000 OA
ATOM     16  C   UNL     1      -2.284  12.300  18.319  0.00  0.00    +0.000 C 
ATOM     17  C   UNL     1      -3.463  11.440  17.740  0.00  0.00    +0.000 C 
ATOM     18  C   UNL     1      -3.238   9.925  17.803  0.00  0.00    +0.000 C 
ATOM     19  C   UNL     1      -4.849  11.861  18.307  0.00  0.00    +0.000 C 
ATOM     20  C   UNL     1      -6.023  11.007  17.809  0.00  0.00    +0.000 C 
ATOM     21  C   UNL     1      -4.867  11.924  19.840  0.00  0.00    +0.000 C 
ATOM     22  O   UNL     1      -6.402  16.392  20.862  0.00  0.00    +0.000 OA
ATOM     23  C   UNL     1      -5.870  17.125  21.973  0.00  0.00    +0.000 C 
ATOM     24  O   UNL     1      -4.431  17.025  22.032  0.00  0.00    +0.000 OA
ENDROOT
BRANCH   1  26
ATOM     25  C   UNL     1      -1.053  16.222  21.179  0.00  0.00    +0.000 C 
ATOM     26  O   UNL     1      -1.899  15.355  21.923  0.00  0.00    +0.000 OA
ENDBRANCH   1  26
BRANCH  12  27
ATOM     27  O   UNL     1      -1.894  12.983  23.298  0.00  0.00    +0.000 OA
ATOM     28  C   UNL     1      -3.064  12.509  23.970  0.00  0.00    +0.000 C 
ENDBRANCH  12  27
BRANCH  16  29
ATOM     29  O   UNL     1      -1.152  12.233  17.436  0.00  0.00    +0.000 OA
ATOM     30  H   UNL     1      -1.467  12.274  16.516  0.00  0.00    +0.000 HD
ENDBRANCH  16  29
TORSDOF 3
ENDMDL
MODEL 6
REMARK VINA RESULT:      -6.0      2.665      5.084
REMARK  Name = 
REMARK  7 active torsions:
REMARK  status: ('A' for Active; 'I' for Inactive)
REMARK    1  A    between atoms: C_1  and  O_2
REMARK    2  A    between atoms: O_2  and  C_3
REMARK    3  A    between atoms: C_14  and  O_15
REMARK    4  A    between atoms: O_15  and  C_16
REMARK    5  A    between atoms: C_20  and  O_21
REMARK    6  A    between atoms: C_22  and  C_23
REMARK    7  A    between atoms: C_24  and  C_25
REMARK                            x       y       z     vdW  Elec       q    Type
REMARK                         _______ _______ _______ _____ _____    ______ ____
ROOT
ATOM      1  C   UNL     1      -4.460  12.003  18.783  0.00  0.00    +0.000 A 
ATOM      2  C   UNL     1      -3.508  11.285  18.063  0.00  0.00    +0.000 A 
ATOM      3  C   UNL     1      -2.167  11.322  18.377  0.00  0.00    +0.000 A 
ATOM      4  C   UNL     1      -1.698  11.984  19.466  0.00  0.00    +0.000 A 
ATOM      5  C   UNL     1      -2.639  12.567  20.332  0.00  0.00    +0.000 A 
ATOM      6  C   UNL     1      -4.033  12.645  19.984  0.00  0.00    +0.000 A 
ATOM      7  C   UNL     1      -4.975  13.356  20.918  0.00  0.00    +0.000 A 
ATOM      8  C   UNL     1      -4.689  14.703  21.371  0.00  0.00    +0.000 A 
ATOM      9  C   UNL     1      -5.454  15.261  22.421  0.00  0.00    +0.000 A 
ATOM     10  C   UNL     1      -6.436  14.511  23.009  0.00  0.00    +0.000 A 
ATOM     11  C   UNL     1      -6.770  13.266  22.548  0.00  0.00    +0.000 A 
ATOM     12  C   UNL     1      -6.097  12.672  21.486  0.00  0.00    +0.000 A 
ATOM     13  O   UNL     1      -7.757  12.707  23.311  0.00  0.00    +0.000 OA
ATOM     14  C   UNL     1      -7.770  13.612  24.427  0.00  0.00    +0.000 C 
ATOM     15  O   UNL     1      -7.138  14.870  24.120  0.00  0.00    +0.000 OA
ATOM     16  C   UNL     1      -3.559  15.556  20.785  0.00  0.00    +0.000 C 
ATOM     17  C   UNL     1      -2.220  15.640  21.599  0.00  0.00    +0.000 C 
ATOM     18  C   UNL     1      -2.394  16.008  23.078  0.00  0.00    +0.000 C 
ATOM     19  C   UNL     1      -1.315  14.390  21.399  0.00  0.00    +0.000 C 
ATOM     20  C   UNL     1      -0.021  14.406  22.223  0.00  0.00    +0.000 C 
ATOM     21  C   UNL     1      -2.065  13.073  21.637  0.00  0.00    +0.000 C 
ATOM     22  O   UNL     1      -1.397  10.535  17.577  0.00  0.00    +0.000 OA
ATOM     23  C   UNL     1      -2.436   9.709  17.037  0.00  0.00    +0.000 C 
ATOM     24  O   UNL     1      -3.709  10.391  17.041  0.00  0.00    +0.000 OA
ENDROOT
BRANCH   1  26
ATOM     25  C   UNL     1      -6.174  12.868  17.352  0.00  0.00    +0.000 C 
ATOM     26  O   UNL     1      -5.791  12.075  18.469  0.00  0.00    +0.000 OA
ENDBRANCH   1  26
BRANCH  12  27
ATOM     27  O   UNL     1      -6.399  11.401  21.056  0.00  0.00    +0.000 OA
ATOM     28  C   UNL     1      -7.776  11.182  20.741  0.00  0.00    +0.000 C 
ENDBRANCH  12  27
BRANCH  16  29
ATOM     29  O   UNL     1      -4.098  16.875  20.595  0.00  0.00    +0.000 OA
ATOM     30  H   UNL     1      -3.720  17.470  21.267  0.00  0.00    +0.000 HD
ENDBRANCH  16  29
TORSDOF 3
ENDMDL
MODEL 7
REMARK VINA RESULT:      -6.0      1.946      3.246
REMARK  Name = 
REMARK  7 active torsions:
REMARK  status: ('A' for Active; 'I' for Inactive)
REMARK    1  A    between atoms: C_1  and  O_2
REMARK    2  A    between atoms: O_2  and  C_3
REMARK    3  A    between atoms: C_14  and  O_15
REMARK    4  A    between atoms: O_15  and  C_16
REMARK    5  A    between atoms: C_20  and  O_21
REMARK    6  A    between atoms: C_22  and  C_23
REMARK    7  A    between atoms: C_24  and  C_25
REMARK                            x       y       z     vdW  Elec       q    Type
REMARK                         _______ _______ _______ _____ _____    ______ ____
ROOT
ATOM      1  C   UNL     1      -1.550  11.978  18.499  0.00  0.00    +0.000 A 
ATOM      2  C   UNL     1      -2.496  11.478  17.607  0.00  0.00    +0.000 A 
ATOM      3  C   UNL     1      -3.845  11.487  17.884  0.00  0.00    +0.000 A 
ATOM      4  C   UNL     1      -4.350  12.068  19.004  0.00  0.00    +0.000 A 
ATOM      5  C   UNL     1      -3.455  12.753  19.844  0.00  0.00    +0.000 A 
ATOM      6  C   UNL     1      -2.031  12.675  19.648  0.00  0.00    +0.000 A 
ATOM      7  C   UNL     1      -1.125  13.363  20.633  0.00  0.00    +0.000 A 
ATOM      8  C   UNL     1      -1.260  13.120  22.056  0.00  0.00    +0.000 A 
ATOM      9  C   UNL     1      -0.566  13.945  22.971  0.00  0.00    +0.000 A 
ATOM     10  C   UNL     1       0.203  14.975  22.499  0.00  0.00    +0.000 A 
ATOM     11  C   UNL     1       0.401  15.174  21.160  0.00  0.00    +0.000 A 
ATOM     12  C   UNL     1      -0.206  14.372  20.200  0.00  0.00    +0.000 A 
ATOM     13  O   UNL     1       1.181  16.275  20.937  0.00  0.00    +0.000 OA
ATOM     14  C   UNL     1       1.182  16.865  22.246  0.00  0.00    +0.000 C 
ATOM     15  O   UNL     1       0.797  15.927  23.270  0.00  0.00    +0.000 OA
ATOM     16  C   UNL     1      -2.158  12.020  22.631  0.00  0.00    +0.000 C 
ATOM     17  C   UNL     1      -3.566  12.449  23.178  0.00  0.00    +0.000 C 
ATOM     18  C   UNL     1      -3.537  13.622  24.165  0.00  0.00    +0.000 C 
ATOM     19  C   UNL     1      -4.616  12.648  22.047  0.00  0.00    +0.000 C 
ATOM     20  C   UNL     1      -5.991  13.123  22.535  0.00  0.00    +0.000 C 
ATOM     21  C   UNL     1      -4.114  13.572  20.930  0.00  0.00    +0.000 C 
ATOM     22  O   UNL     1      -4.613  10.981  16.881  0.00  0.00    +0.000 OA
ATOM     23  C   UNL     1      -3.649  11.061  15.823  0.00  0.00    +0.000 C 
ATOM     24  O   UNL     1      -2.299  11.007  16.333  0.00  0.00    +0.000 OA
ENDROOT
BRANCH   1  26
ATOM     25  C   UNL     1       0.476  10.713  18.660  0.00  0.00    +0.000 C 
ATOM     26  O   UNL     1      -0.194  11.920  18.319  0.00  0.00    +0.000 OA
ENDBRANCH   1  26
BRANCH  12  27
ATOM     27  O   UNL     1      -0.047  14.605  18.854  0.00  0.00    +0.000 OA
ATOM     28  C   UNL     1      -0.391  15.924  18.425  0.00  0.00    +0.000 C 
ENDBRANCH  12  27
BRANCH  16  29
ATOM     29  O   UNL     1      -1.404  11.380  23.674  0.00  0.00    +0.000 OA
ATOM     30  H   UNL     1      -1.701  11.723  24.535  0.00  0.00    +0.000 HD
ENDBRANCH  16  29
TORSDOF 3
ENDMDL
MODEL 8
REMARK VINA RESULT:      -6.0      2.875      5.790
REMARK  Name = 
REMARK  7 active torsions:
REMARK  status: ('A' for Active; 'I' for Inactive)
REMARK    1  A    between atoms: C_1  and  O_2
REMARK    2  A    between atoms: O_2  and  C_3
REMARK    3  A    between atoms: C_14  and  O_15
REMARK    4  A    between atoms: O_15  and  C_16
REMARK    5  A    between atoms: C_20  and  O_21
REMARK    6  A    between atoms: C_22  and  C_23
REMARK    7  A    between atoms: C_24  and  C_25
REMARK                            x       y       z     vdW  Elec       q    Type
REMARK                         _______ _______ _______ _____ _____    ______ ____
ROOT
ATOM      1  C   UNL     1      -4.928  11.838  17.286  0.00  0.00    +0.000 A 
ATOM      2  C   UNL     1      -4.129  11.302  16.278  0.00  0.00    +0.000 A 
ATOM      3  C   UNL     1      -2.791  11.033  16.465  0.00  0.00    +0.000 A 
ATOM      4  C   UNL     1      -2.185  11.185  17.671  0.00  0.00    +0.000 A 
ATOM      5  C   UNL     1      -2.990  11.543  18.766  0.00  0.00    +0.000 A 
ATOM      6  C   UNL     1      -4.363  11.936  18.593  0.00  0.00    +0.000 A 
ATOM      7  C   UNL     1      -5.145  12.388  19.796  0.00  0.00    +0.000 A 
ATOM      8  C   UNL     1      -4.629  13.427  20.666  0.00  0.00    +0.000 A 
ATOM      9  C   UNL     1      -5.258  13.671  21.909  0.00  0.00    +0.000 A 
ATOM     10  C   UNL     1      -6.329  12.905  22.281  0.00  0.00    +0.000 A 
ATOM     11  C   UNL     1      -6.877  11.971  21.444  0.00  0.00    +0.000 A 
ATOM     12  C   UNL     1      -6.345  11.711  20.185  0.00  0.00    +0.000 A 
ATOM     13  O   UNL     1      -7.917  11.319  22.047  0.00  0.00    +0.000 OA
ATOM     14  C   UNL     1      -7.746  11.753  23.405  0.00  0.00    +0.000 C 
ATOM     15  O   UNL     1      -6.927  12.935  23.504  0.00  0.00    +0.000 OA
ATOM     16  C   UNL     1      -3.394  14.266  20.319  0.00  0.00    +0.000 C 
ATOM     17  C   UNL     1      -2.033  13.861  20.988  0.00  0.00    +0.000 C 
ATOM     18  C   UNL     1      -2.097  13.692  22.511  0.00  0.00    +0.000 C 
ATOM     19  C   UNL     1      -1.352  12.652  20.283  0.00  0.00    +0.000 C 
ATOM     20  C   UNL     1      -0.046  12.188  20.942  0.00  0.00    +0.000 C 
ATOM     21  C   UNL     1      -2.299  11.458  20.108  0.00  0.00    +0.000 C 
ATOM     22  O   UNL     1      -2.186  10.488  15.375  0.00  0.00    +0.000 OA
ATOM     23  C   UNL     1      -3.363  10.067  14.674  0.00  0.00    +0.000 C 
ATOM     24  O   UNL     1      -4.506  10.873  15.030  0.00  0.00    +0.000 OA
ENDROOT
BRANCH   1  26
ATOM     25  C   UNL     1      -6.520  13.555  16.789  0.00  0.00    +0.000 C 
ATOM     26  O   UNL     1      -6.239  12.205  17.136  0.00  0.00    +0.000 OA
ENDBRANCH   1  26
BRANCH  12  27
ATOM     27  O   UNL     1      -6.864  10.737  19.365  0.00  0.00    +0.000 OA
ATOM     28  C   UNL     1      -6.773   9.406  19.878  0.00  0.00    +0.000 C 
ENDBRANCH  12  27
BRANCH  16  29
ATOM     29  O   UNL     1      -3.716  15.626  20.652  0.00  0.00    +0.000 OA
ATOM     30  H   UNL     1      -3.183  15.898  21.420  0.00  0.00    +0.000 HD
ENDBRANCH  16  29
TORSDOF 3
ENDMDL
MODEL 9
REMARK VINA RESULT:      -5.9      2.669      5.060
REMARK  Name = 
REMARK  7 active torsions:
REMARK  status: ('A' for Active; 'I' for Inactive)
REMARK    1  A    between atoms: C_1  and  O_2
REMARK    2  A    between atoms: O_2  and  C_3
REMARK    3  A    between atoms: C_14  and  O_15
REMARK    4  A    between atoms: O_15  and  C_16
REMARK    5  A    between atoms: C_20  and  O_21
REMARK    6  A    between atoms: C_22  and  C_23
REMARK    7  A    between atoms: C_24  and  C_25
REMARK                            x       y       z     vdW  Elec       q    Type
REMARK                         _______ _______ _______ _____ _____    ______ ____
ROOT
ATOM      1  C   UNL     1      -0.040  11.752  19.506  0.00  0.00    +0.000 A 
ATOM      2  C   UNL     1       0.696  10.849  18.742  0.00  0.00    +0.000 A 
ATOM      3  C   UNL     1       1.875  11.201  18.122  0.00  0.00    +0.000 A 
ATOM      4  C   UNL     1       2.445  12.422  18.292  0.00  0.00    +0.000 A 
ATOM      5  C   UNL     1       1.839  13.304  19.203  0.00  0.00    +0.000 A 
ATOM      6  C   UNL     1       0.555  13.019  19.786  0.00  0.00    +0.000 A 
ATOM      7  C   UNL     1      -0.075  14.044  20.689  0.00  0.00    +0.000 A 
ATOM      8  C   UNL     1      -0.227  15.419  20.255  0.00  0.00    +0.000 A 
ATOM      9  C   UNL     1      -0.600  16.408  21.194  0.00  0.00    +0.000 A 
ATOM     10  C   UNL     1      -0.790  16.054  22.503  0.00  0.00    +0.000 A 
ATOM     11  C   UNL     1      -0.725  14.752  22.918  0.00  0.00    +0.000 A 
ATOM     12  C   UNL     1      -0.413  13.717  22.042  0.00  0.00    +0.000 A 
ATOM     13  O   UNL     1      -0.922  14.655  24.267  0.00  0.00    +0.000 OA
ATOM     14  C   UNL     1      -0.824  16.036  24.647  0.00  0.00    +0.000 C 
ATOM     15  O   UNL     1      -1.002  16.926  23.528  0.00  0.00    +0.000 OA
ATOM     16  C   UNL     1       0.037  15.871  18.815  0.00  0.00    +0.000 C 
ATOM     17  C   UNL     1       1.417  16.555  18.513  0.00  0.00    +0.000 C 
ATOM     18  C   UNL     1       1.780  17.706  19.460  0.00  0.00    +0.000 C 
ATOM     19  C   UNL     1       2.575  15.528  18.352  0.00  0.00    +0.000 C 
ATOM     20  C   UNL     1       3.953  16.160  18.112  0.00  0.00    +0.000 C 
ATOM     21  C   UNL     1       2.655  14.538  19.520  0.00  0.00    +0.000 C 
ATOM     22  O   UNL     1       2.462  10.177  17.444  0.00  0.00    +0.000 OA
ATOM     23  C   UNL     1       1.758   9.091  18.060  0.00  0.00    +0.000 C 
ATOM     24  O   UNL     1       0.467   9.510  18.551  0.00  0.00    +0.000 OA
ENDROOT
BRANCH   1  26
ATOM     25  C   UNL     1      -2.426  11.753  19.308  0.00  0.00    +0.000 C 
ATOM     26  O   UNL     1      -1.258  11.489  20.075  0.00  0.00    +0.000 OA
ENDBRANCH   1  26
BRANCH  12  27
ATOM     27  O   UNL     1      -0.298  12.415  22.469  0.00  0.00    +0.000 OA
ATOM     28  C   UNL     1      -1.470  11.876  23.085  0.00  0.00    +0.000 C 
ENDBRANCH  12  27
BRANCH  16  29
ATOM     29  O   UNL     1      -1.036  16.760  18.462  0.00  0.00    +0.000 OA
ATOM     30  H   UNL     1      -1.170  16.726  17.499  0.00  0.00    +0.000 HD
ENDBRANCH  16  29
TORSDOF 3
ENDMDL
