MODEL 1
REMARK VINA RESULT:      -7.9      0.000      0.000
REMARK  Name = 
REMARK  7 active torsions:
REMARK  status: ('A' for Active; 'I' for Inactive)
REMARK    1  A    between atoms: C_1  and  C_2
REMARK    2  A    between atoms: N_8  and  C_9
REMARK    3  A    between atoms: C_9  and  C_10
REMARK    4  A    between atoms: C_10  and  C_11
REMARK    5  A    between atoms: C_11  and  C_12
REMARK    6  A    between atoms: N_14  and  C_15
REMARK    7  A    between atoms: C_15  and  C_16
REMARK                            x       y       z     vdW  Elec       q    Type
REMARK                         _______ _______ _______ _____ _____    ______ ____
ROOT
ATOM      1  C   UNL     1       1.087   5.120  20.504  0.00  0.00    +0.000 C 
ENDROOT
BRANCH   1   2
ATOM      2  C   UNL     1       2.311   6.051  20.485  0.00  0.00    +0.000 C 
BRANCH   2  10
ATOM      3  C   UNL     1      -0.203   9.558  23.425  0.00  0.00    +0.000 C 
ATOM      4  C   UNL     1       0.324   9.583  22.021  0.00  0.00    +0.000 A 
ATOM      5  C   UNL     1       0.093  10.662  21.169  0.00  0.00    +0.000 A 
ATOM      6  C   UNL     1       0.536  10.617  19.846  0.00  0.00    +0.000 A 
ATOM      7  C   UNL     1       1.197   9.489  19.362  0.00  0.00    +0.000 A 
ATOM      8  C   UNL     1       1.439   8.391  20.199  0.00  0.00    +0.000 A 
ATOM      9  C   UNL     1       1.017   8.466  21.534  0.00  0.00    +0.000 A 
ATOM     10  N   UNL     1       2.027   7.218  19.662  0.00  0.00    +0.000 N 
ATOM     11  C   UNL     1       2.428   7.189  18.329  0.00  0.00    +0.000 C 
ATOM     12  O   UNL     1       2.839   6.170  17.765  0.00  0.00    +0.000 OA
ATOM     13  C   UNL     1       2.488   8.558  17.666  0.00  0.00    +0.000 C 
ATOM     14  O   UNL     1       1.530   9.528  18.036  0.00  0.00    +0.000 OA
ENDBRANCH   2  10
ENDBRANCH   1   2
BRANCH   1  15
ATOM     15  C   UNL     1       1.434   3.648  20.317  0.00  0.00    +0.000 C 
BRANCH  15  16
ATOM     16  C   UNL     1       1.878   3.225  18.927  0.00  0.00    +0.000 C 
ATOM     17  O   UNL     1       1.056   3.065  18.028  0.00  0.00    +0.000 OA
ATOM     18  N   UNL     1       3.225   3.059  18.745  0.00  0.00    +0.000 N 
ATOM     19  H   UNL     1       3.863   3.005  19.529  0.00  0.00    +0.000 HD
BRANCH  18  20
ATOM     20  C   UNL     1       3.823   2.859  17.454  0.00  0.00    +0.000 C 
BRANCH  20  21
ATOM     21  C   UNL     1       5.023   3.742  17.322  0.00  0.00    +0.000 A 
ATOM     22  C   UNL     1       5.601   4.339  18.455  0.00  0.00    +0.000 A 
ATOM     23  C   UNL     1       6.744   5.127  18.328  0.00  0.00    +0.000 A 
ATOM     24  C   UNL     1       7.322   5.318  17.075  0.00  0.00    +0.000 A 
ATOM     25  C   UNL     1       6.761   4.704  15.962  0.00  0.00    +0.000 A 
ATOM     26  F   UNL     1       7.331   4.873  14.763  0.00  0.00    +0.000 F 
ATOM     27  C   UNL     1       5.622   3.920  16.070  0.00  0.00    +0.000 A 
ENDBRANCH  20  21
ENDBRANCH  18  20
ENDBRANCH  15  16
ENDBRANCH   1  15
TORSDOF 6
ENDMDL
MODEL 2
REMARK VINA RESULT:      -7.9      2.527      7.324
REMARK  Name = 
REMARK  7 active torsions:
REMARK  status: ('A' for Active; 'I' for Inactive)
REMARK    1  A    between atoms: C_1  and  C_2
REMARK    2  A    between atoms: N_8  and  C_9
REMARK    3  A    between atoms: C_9  and  C_10
REMARK    4  A    between atoms: C_10  and  C_11
REMARK    5  A    between atoms: C_11  and  C_12
REMARK    6  A    between atoms: N_14  and  C_15
REMARK    7  A    between atoms: C_15  and  C_16
REMARK                            x       y       z     vdW  Elec       q    Type
REMARK                         _______ _______ _______ _____ _____    ______ ____
ROOT
ATOM      1  C   UNL     1       3.006   3.723  16.997  0.00  0.00    +0.000 C 
ENDROOT
BRANCH   1   2
ATOM      2  C   UNL     1       4.372   3.033  17.160  0.00  0.00    +0.000 C 
BRANCH   2  10
ATOM      3  C   UNL     1       5.647   2.900  12.098  0.00  0.00    +0.000 C 
ATOM      4  C   UNL     1       6.084   3.762  13.246  0.00  0.00    +0.000 A 
ATOM      5  C   UNL     1       7.100   4.706  13.110  0.00  0.00    +0.000 A 
ATOM      6  C   UNL     1       7.530   5.438  14.219  0.00  0.00    +0.000 A 
ATOM      7  C   UNL     1       6.959   5.218  15.472  0.00  0.00    +0.000 A 
ATOM      8  C   UNL     1       5.938   4.272  15.634  0.00  0.00    +0.000 A 
ATOM      9  C   UNL     1       5.495   3.570  14.504  0.00  0.00    +0.000 A 
ATOM     10  N   UNL     1       5.438   3.997  16.932  0.00  0.00    +0.000 N 
ATOM     11  C   UNL     1       5.910   4.718  18.026  0.00  0.00    +0.000 C 
ATOM     12  O   UNL     1       5.607   4.456  19.194  0.00  0.00    +0.000 OA
ATOM     13  C   UNL     1       6.691   5.971  17.657  0.00  0.00    +0.000 C 
ATOM     14  O   UNL     1       7.500   5.943  16.498  0.00  0.00    +0.000 OA
ENDBRANCH   2  10
ENDBRANCH   1   2
BRANCH   1  15
ATOM     15  C   UNL     1       1.944   3.215  17.965  0.00  0.00    +0.000 C 
BRANCH  15  16
ATOM     16  C   UNL     1       1.656   4.084  19.177  0.00  0.00    +0.000 C 
ATOM     17  O   UNL     1       0.802   3.753  19.997  0.00  0.00    +0.000 OA
ATOM     18  N   UNL     1       2.408   5.221  19.301  0.00  0.00    +0.000 N 
ATOM     19  H   UNL     1       2.961   5.576  18.532  0.00  0.00    +0.000 HD
BRANCH  18  20
ATOM     20  C   UNL     1       2.402   6.040  20.482  0.00  0.00    +0.000 C 
BRANCH  20  21
ATOM     21  C   UNL     1       1.858   7.392  20.144  0.00  0.00    +0.000 A 
ATOM     22  C   UNL     1       1.195   8.161  21.115  0.00  0.00    +0.000 A 
ATOM     23  C   UNL     1       0.728   9.437  20.802  0.00  0.00    +0.000 A 
ATOM     24  C   UNL     1       0.925   9.956  19.525  0.00  0.00    +0.000 A 
ATOM     25  C   UNL     1       1.604   9.202  18.576  0.00  0.00    +0.000 A 
ATOM     26  F   UNL     1       1.809   9.712  17.357  0.00  0.00    +0.000 F 
ATOM     27  C   UNL     1       2.072   7.929  18.870  0.00  0.00    +0.000 A 
ENDBRANCH  20  21
ENDBRANCH  18  20
ENDBRANCH  15  16
ENDBRANCH   1  15
TORSDOF 6
ENDMDL
MODEL 3
REMARK VINA RESULT:      -7.8      1.209      1.514
REMARK  Name = 
REMARK  7 active torsions:
REMARK  status: ('A' for Active; 'I' for Inactive)
REMARK    1  A    between atoms: C_1  and  C_2
REMARK    2  A    between atoms: N_8  and  C_9
REMARK    3  A    between atoms: C_9  and  C_10
REMARK    4  A    between atoms: C_10  and  C_11
REMARK    5  A    between atoms: C_11  and  C_12
REMARK    6  A    between atoms: N_14  and  C_15
REMARK    7  A    between atoms: C_15  and  C_16
REMARK                            x       y       z     vdW  Elec       q    Type
REMARK                         _______ _______ _______ _____ _____    ______ ____
ROOT
ATOM      1  C   UNL     1       1.362   5.144  20.404  0.00  0.00    +0.000 C 
ENDROOT
BRANCH   1   2
ATOM      2  C   UNL     1       2.406   6.264  20.554  0.00  0.00    +0.000 C 
BRANCH   2  10
ATOM      3  C   UNL     1      -0.400   9.624  23.401  0.00  0.00    +0.000 C 
ATOM      4  C   UNL     1       0.139   9.662  22.001  0.00  0.00    +0.000 A 
ATOM      5  C   UNL     1      -0.165  10.704  21.126  0.00  0.00    +0.000 A 
ATOM      6  C   UNL     1       0.295  10.667  19.808  0.00  0.00    +0.000 A 
ATOM      7  C   UNL     1       1.045   9.583  19.353  0.00  0.00    +0.000 A 
ATOM      8  C   UNL     1       1.361   8.524  20.214  0.00  0.00    +0.000 A 
ATOM      9  C   UNL     1       0.920   8.592  21.543  0.00  0.00    +0.000 A 
ATOM     10  N   UNL     1       2.042   7.389  19.706  0.00  0.00    +0.000 N 
ATOM     11  C   UNL     1       2.459   7.365  18.377  0.00  0.00    +0.000 C 
ATOM     12  O   UNL     1       2.952   6.370  17.838  0.00  0.00    +0.000 OA
ATOM     13  C   UNL     1       2.422   8.722  17.688  0.00  0.00    +0.000 C 
ATOM     14  O   UNL     1       1.388   9.622  18.029  0.00  0.00    +0.000 OA
ENDBRANCH   2  10
ENDBRANCH   1   2
BRANCH   1  15
ATOM     15  C   UNL     1       1.862   3.776  20.856  0.00  0.00    +0.000 C 
BRANCH  15  16
ATOM     16  C   UNL     1       3.000   3.169  20.054  0.00  0.00    +0.000 C 
ATOM     17  O   UNL     1       3.816   2.421  20.590  0.00  0.00    +0.000 OA
ATOM     18  N   UNL     1       3.042   3.488  18.723  0.00  0.00    +0.000 N 
ATOM     19  H   UNL     1       2.490   4.246  18.342  0.00  0.00    +0.000 HD
BRANCH  18  20
ATOM     20  C   UNL     1       3.927   2.846  17.790  0.00  0.00    +0.000 C 
BRANCH  20  21
ATOM     21  C   UNL     1       4.963   3.824  17.335  0.00  0.00    +0.000 A 
ATOM     22  C   UNL     1       5.005   4.252  15.998  0.00  0.00    +0.000 A 
ATOM     23  C   UNL     1       5.948   5.196  15.592  0.00  0.00    +0.000 A 
ATOM     24  C   UNL     1       6.847   5.723  16.516  0.00  0.00    +0.000 A 
ATOM     25  C   UNL     1       6.783   5.315  17.843  0.00  0.00    +0.000 A 
ATOM     26  F   UNL     1       7.635   5.840  18.731  0.00  0.00    +0.000 F 
ATOM     27  C   UNL     1       5.854   4.375  18.262  0.00  0.00    +0.000 A 
ENDBRANCH  20  21
ENDBRANCH  18  20
ENDBRANCH  15  16
ENDBRANCH   1  15
TORSDOF 6
ENDMDL
MODEL 4
REMARK VINA RESULT:      -7.7      3.265      5.600
REMARK  Name = 
REMARK  7 active torsions:
REMARK  status: ('A' for Active; 'I' for Inactive)
REMARK    1  A    between atoms: C_1  and  C_2
REMARK    2  A    between atoms: N_8  and  C_9
REMARK    3  A    between atoms: C_9  and  C_10
REMARK    4  A    between atoms: C_10  and  C_11
REMARK    5  A    between atoms: C_11  and  C_12
REMARK    6  A    between atoms: N_14  and  C_15
REMARK    7  A    between atoms: C_15  and  C_16
REMARK                            x       y       z     vdW  Elec       q    Type
REMARK                         _______ _______ _______ _____ _____    ______ ____
ROOT
ATOM      1  C   UNL     1       6.098   4.718  18.280  0.00  0.00    +0.000 C 
ENDROOT
BRANCH   1   2
ATOM      2  C   UNL     1       4.889   3.783  18.108  0.00  0.00    +0.000 C 
BRANCH   2  10
ATOM      3  C   UNL     1       2.562   8.456  17.984  0.00  0.00    +0.000 C 
ATOM      4  C   UNL     1       2.422   7.261  18.880  0.00  0.00    +0.000 A 
ATOM      5  C   UNL     1       1.608   7.284  20.012  0.00  0.00    +0.000 A 
ATOM      6  C   UNL     1       1.561   6.178  20.863  0.00  0.00    +0.000 A 
ATOM      7  C   UNL     1       2.338   5.051  20.598  0.00  0.00    +0.000 A 
ATOM      8  C   UNL     1       3.165   5.006  19.467  0.00  0.00    +0.000 A 
ATOM      9  C   UNL     1       3.175   6.111  18.605  0.00  0.00    +0.000 A 
ATOM     10  N   UNL     1       4.017   3.890  19.268  0.00  0.00    +0.000 N 
ATOM     11  C   UNL     1       3.974   2.815  20.152  0.00  0.00    +0.000 C 
ATOM     12  O   UNL     1       4.764   1.867  20.107  0.00  0.00    +0.000 OA
ATOM     13  C   UNL     1       2.761   2.813  21.072  0.00  0.00    +0.000 C 
ATOM     14  O   UNL     1       2.262   4.053  21.531  0.00  0.00    +0.000 OA
ENDBRANCH   2  10
ENDBRANCH   1   2
BRANCH   1  15
ATOM     15  C   UNL     1       7.263   4.392  17.353  0.00  0.00    +0.000 C 
BRANCH  15  16
ATOM     16  C   UNL     1       7.291   5.113  16.016  0.00  0.00    +0.000 C 
ATOM     17  O   UNL     1       7.657   6.284  15.943  0.00  0.00    +0.000 OA
ATOM     18  N   UNL     1       6.908   4.381  14.924  0.00  0.00    +0.000 N 
ATOM     19  H   UNL     1       6.431   3.494  15.021  0.00  0.00    +0.000 HD
BRANCH  18  20
ATOM     20  C   UNL     1       7.066   4.846  13.574  0.00  0.00    +0.000 C 
BRANCH  20  21
ATOM     21  C   UNL     1       6.490   3.837  12.632  0.00  0.00    +0.000 A 
ATOM     22  C   UNL     1       7.314   2.879  12.017  0.00  0.00    +0.000 A 
ATOM     23  C   UNL     1       6.762   1.916  11.173  0.00  0.00    +0.000 A 
ATOM     24  C   UNL     1       5.389   1.898  10.942  0.00  0.00    +0.000 A 
ATOM     25  C   UNL     1       4.576   2.832  11.573  0.00  0.00    +0.000 A 
ATOM     26  F   UNL     1       3.255   2.798  11.365  0.00  0.00    +0.000 F 
ATOM     27  C   UNL     1       5.109   3.798  12.413  0.00  0.00    +0.000 A 
ENDBRANCH  20  21
ENDBRANCH  18  20
ENDBRANCH  15  16
ENDBRANCH   1  15
TORSDOF 6
ENDMDL
MODEL 5
REMARK VINA RESULT:      -7.7      3.741      8.080
REMARK  Name = 
REMARK  7 active torsions:
REMARK  status: ('A' for Active; 'I' for Inactive)
REMARK    1  A    between atoms: C_1  and  C_2
REMARK    2  A    between atoms: N_8  and  C_9
REMARK    3  A    between atoms: C_9  and  C_10
REMARK    4  A    between atoms: C_10  and  C_11
REMARK    5  A    between atoms: C_11  and  C_12
REMARK    6  A    between atoms: N_14  and  C_15
REMARK    7  A    between atoms: C_15  and  C_16
REMARK                            x       y       z     vdW  Elec       q    Type
REMARK                         _______ _______ _______ _____ _____    ______ ____
ROOT
ATOM      1  C   UNL     1       2.605   7.983  17.455  0.00  0.00    +0.000 C 
ENDROOT
BRANCH   1   2
ATOM      2  C   UNL     1       3.432   7.171  18.465  0.00  0.00    +0.000 C 
BRANCH   2  10
ATOM      3  C   UNL     1       0.639   3.117  20.204  0.00  0.00    +0.000 C 
ATOM      4  C   UNL     1       1.716   3.254  19.169  0.00  0.00    +0.000 A 
ATOM      5  C   UNL     1       2.252   2.146  18.516  0.00  0.00    +0.000 A 
ATOM      6  C   UNL     1       3.305   2.307  17.613  0.00  0.00    +0.000 A 
ATOM      7  C   UNL     1       3.839   3.572  17.370  0.00  0.00    +0.000 A 
ATOM      8  C   UNL     1       3.317   4.701  18.017  0.00  0.00    +0.000 A 
ATOM      9  C   UNL     1       2.238   4.526  18.895  0.00  0.00    +0.000 A 
ATOM     10  N   UNL     1       3.935   5.963  17.829  0.00  0.00    +0.000 N 
ATOM     11  C   UNL     1       5.006   6.088  16.948  0.00  0.00    +0.000 C 
ATOM     12  O   UNL     1       5.664   7.126  16.821  0.00  0.00    +0.000 OA
ATOM     13  C   UNL     1       5.193   4.896  16.020  0.00  0.00    +0.000 C 
ATOM     14  O   UNL     1       4.907   3.605  16.517  0.00  0.00    +0.000 OA
ENDBRANCH   2  10
ENDBRANCH   1   2
BRANCH   1  15
ATOM     15  C   UNL     1       2.308   9.408  17.909  0.00  0.00    +0.000 C 
BRANCH  15  16
ATOM     16  C   UNL     1       1.061   9.606  18.753  0.00  0.00    +0.000 C 
ATOM     17  O   UNL     1       1.089   9.417  19.968  0.00  0.00    +0.000 OA
ATOM     18  N   UNL     1      -0.062  10.019  18.088  0.00  0.00    +0.000 N 
ATOM     19  H   UNL     1      -0.124   9.984  17.079  0.00  0.00    +0.000 HD
BRANCH  18  20
ATOM     20  C   UNL     1      -1.260  10.443  18.760  0.00  0.00    +0.000 C 
BRANCH  20  21
ATOM     21  C   UNL     1      -2.344  10.656  17.752  0.00  0.00    +0.000 A 
ATOM     22  C   UNL     1      -3.490  11.400  18.078  0.00  0.00    +0.000 A 
ATOM     23  C   UNL     1      -4.477  11.629  17.120  0.00  0.00    +0.000 A 
ATOM     24  C   UNL     1      -4.324  11.123  15.830  0.00  0.00    +0.000 A 
ATOM     25  C   UNL     1      -3.176  10.410  15.506  0.00  0.00    +0.000 A 
ATOM     26  F   UNL     1      -3.024   9.945  14.261  0.00  0.00    +0.000 F 
ATOM     27  C   UNL     1      -2.188  10.171  16.449  0.00  0.00    +0.000 A 
ENDBRANCH  20  21
ENDBRANCH  18  20
ENDBRANCH  15  16
ENDBRANCH   1  15
TORSDOF 6
ENDMDL
MODEL 6
REMARK VINA RESULT:      -7.5      4.163      8.484
REMARK  Name = 
REMARK  7 active torsions:
REMARK  status: ('A' for Active; 'I' for Inactive)
REMARK    1  A    between atoms: C_1  and  C_2
REMARK    2  A    between atoms: N_8  and  C_9
REMARK    3  A    between atoms: C_9  and  C_10
REMARK    4  A    between atoms: C_10  and  C_11
REMARK    5  A    between atoms: C_11  and  C_12
REMARK    6  A    between atoms: N_14  and  C_15
REMARK    7  A    between atoms: C_15  and  C_16
REMARK                            x       y       z     vdW  Elec       q    Type
REMARK                         _______ _______ _______ _____ _____    ______ ____
ROOT
ATOM      1  C   UNL     1       2.120   7.519  17.871  0.00  0.00    +0.000 C 
ENDROOT
BRANCH   1   2
ATOM      2  C   UNL     1       3.342   6.987  18.638  0.00  0.00    +0.000 C 
BRANCH   2  10
ATOM      3  C   UNL     1       1.102   2.863  20.930  0.00  0.00    +0.000 C 
ATOM      4  C   UNL     1       2.017   3.013  19.750  0.00  0.00    +0.000 A 
ATOM      5  C   UNL     1       2.537   1.907  19.080  0.00  0.00    +0.000 A 
ATOM      6  C   UNL     1       3.444   2.085  18.033  0.00  0.00    +0.000 A 
ATOM      7  C   UNL     1       3.849   3.367  17.662  0.00  0.00    +0.000 A 
ATOM      8  C   UNL     1       3.341   4.493  18.323  0.00  0.00    +0.000 A 
ATOM      9  C   UNL     1       2.407   4.298  19.349  0.00  0.00    +0.000 A 
ATOM     10  N   UNL     1       3.838   5.780  17.994  0.00  0.00    +0.000 N 
ATOM     11  C   UNL     1       4.768   5.925  16.968  0.00  0.00    +0.000 C 
ATOM     12  O   UNL     1       5.328   6.994  16.704  0.00  0.00    +0.000 OA
ATOM     13  C   UNL     1       4.912   4.698  16.078  0.00  0.00    +0.000 C 
ATOM     14  O   UNL     1       4.788   3.420  16.668  0.00  0.00    +0.000 OA
ENDBRANCH   2  10
ENDBRANCH   1   2
BRANCH   1  15
ATOM     15  C   UNL     1       2.064   9.041  17.786  0.00  0.00    +0.000 C 
BRANCH  15  16
ATOM     16  C   UNL     1       1.028   9.733  18.654  0.00  0.00    +0.000 C 
ATOM     17  O   UNL     1       1.046   9.603  19.876  0.00  0.00    +0.000 OA
ATOM     18  N   UNL     1       0.108  10.507  18.000  0.00  0.00    +0.000 N 
ATOM     19  H   UNL     1      -0.014  10.452  16.997  0.00  0.00    +0.000 HD
BRANCH  18  20
ATOM     20  C   UNL     1      -0.807  11.381  18.680  0.00  0.00    +0.000 C 
BRANCH  20  21
ATOM     21  C   UNL     1      -2.130  11.353  17.984  0.00  0.00    +0.000 A 
ATOM     22  C   UNL     1      -2.237  10.870  16.669  0.00  0.00    +0.000 A 
ATOM     23  C   UNL     1      -3.481  10.808  16.041  0.00  0.00    +0.000 A 
ATOM     24  C   UNL     1      -4.624  11.219  16.723  0.00  0.00    +0.000 A 
ATOM     25  C   UNL     1      -4.516  11.671  18.032  0.00  0.00    +0.000 A 
ATOM     26  F   UNL     1      -5.620  12.046  18.689  0.00  0.00    +0.000 F 
ATOM     27  C   UNL     1      -3.286  11.743  18.669  0.00  0.00    +0.000 A 
ENDBRANCH  20  21
ENDBRANCH  18  20
ENDBRANCH  15  16
ENDBRANCH   1  15
TORSDOF 6
ENDMDL
MODEL 7
REMARK VINA RESULT:      -7.5      2.339      6.853
REMARK  Name = 
REMARK  7 active torsions:
REMARK  status: ('A' for Active; 'I' for Inactive)
REMARK    1  A    between atoms: C_1  and  C_2
REMARK    2  A    between atoms: N_8  and  C_9
REMARK    3  A    between atoms: C_9  and  C_10
REMARK    4  A    between atoms: C_10  and  C_11
REMARK    5  A    between atoms: C_11  and  C_12
REMARK    6  A    between atoms: N_14  and  C_15
REMARK    7  A    between atoms: C_15  and  C_16
REMARK                            x       y       z     vdW  Elec       q    Type
REMARK                         _______ _______ _______ _____ _____    ______ ____
ROOT
ATOM      1  C   UNL     1       3.921   2.189  17.981  0.00  0.00    +0.000 C 
ENDROOT
BRANCH   1   2
ATOM      2  C   UNL     1       3.813   3.533  17.241  0.00  0.00    +0.000 C 
BRANCH   2  10
ATOM      3  C   UNL     1       4.815   3.358  12.119  0.00  0.00    +0.000 C 
ATOM      4  C   UNL     1       5.560   3.920  13.294  0.00  0.00    +0.000 A 
ATOM      5  C   UNL     1       6.839   4.458  13.163  0.00  0.00    +0.000 A 
ATOM      6  C   UNL     1       7.531   4.904  14.291  0.00  0.00    +0.000 A 
ATOM      7  C   UNL     1       6.955   4.800  15.557  0.00  0.00    +0.000 A 
ATOM      8  C   UNL     1       5.671   4.262  15.713  0.00  0.00    +0.000 A 
ATOM      9  C   UNL     1       4.977   3.849  14.567  0.00  0.00    +0.000 A 
ATOM     10  N   UNL     1       5.144   4.078  17.017  0.00  0.00    +0.000 N 
ATOM     11  C   UNL     1       5.870   4.501  18.127  0.00  0.00    +0.000 C 
ATOM     12  O   UNL     1       5.528   4.271  19.291  0.00  0.00    +0.000 OA
ATOM     13  C   UNL     1       7.032   5.427  17.796  0.00  0.00    +0.000 C 
ATOM     14  O   UNL     1       7.746   5.209  16.596  0.00  0.00    +0.000 OA
ENDBRANCH   2  10
ENDBRANCH   1   2
BRANCH   1  15
ATOM     15  C   UNL     1       3.065   2.112  19.240  0.00  0.00    +0.000 C 
BRANCH  15  16
ATOM     16  C   UNL     1       2.207   3.325  19.555  0.00  0.00    +0.000 C 
ATOM     17  O   UNL     1       1.016   3.346  19.253  0.00  0.00    +0.000 OA
ATOM     18  N   UNL     1       2.832   4.359  20.199  0.00  0.00    +0.000 N 
ATOM     19  H   UNL     1       3.840   4.410  20.267  0.00  0.00    +0.000 HD
BRANCH  18  20
ATOM     20  C   UNL     1       2.124   5.486  20.743  0.00  0.00    +0.000 C 
BRANCH  20  21
ATOM     21  C   UNL     1       2.202   6.630  19.783  0.00  0.00    +0.000 A 
ATOM     22  C   UNL     1       1.554   7.845  20.064  0.00  0.00    +0.000 A 
ATOM     23  C   UNL     1       1.666   8.920  19.183  0.00  0.00    +0.000 A 
ATOM     24  C   UNL     1       2.428   8.793  18.024  0.00  0.00    +0.000 A 
ATOM     25  C   UNL     1       3.087   7.598  17.765  0.00  0.00    +0.000 A 
ATOM     26  F   UNL     1       3.835   7.487  16.661  0.00  0.00    +0.000 F 
ATOM     27  C   UNL     1       2.984   6.518  18.629  0.00  0.00    +0.000 A 
ENDBRANCH  20  21
ENDBRANCH  18  20
ENDBRANCH  15  16
ENDBRANCH   1  15
TORSDOF 6
ENDMDL
MODEL 8
REMARK VINA RESULT:      -7.5      2.993      5.217
REMARK  Name = 
REMARK  7 active torsions:
REMARK  status: ('A' for Active; 'I' for Inactive)
REMARK    1  A    between atoms: C_1  and  C_2
REMARK    2  A    between atoms: N_8  and  C_9
REMARK    3  A    between atoms: C_9  and  C_10
REMARK    4  A    between atoms: C_10  and  C_11
REMARK    5  A    between atoms: C_11  and  C_12
REMARK    6  A    between atoms: N_14  and  C_15
REMARK    7  A    between atoms: C_15  and  C_16
REMARK                            x       y       z     vdW  Elec       q    Type
REMARK                         _______ _______ _______ _____ _____    ______ ____
ROOT
ATOM      1  C   UNL     1       5.664   4.021  17.818  0.00  0.00    +0.000 C 
ENDROOT
BRANCH   1   2
ATOM      2  C   UNL     1       4.138   3.943  17.635  0.00  0.00    +0.000 C 
BRANCH   2  10
ATOM      3  C   UNL     1       2.459   8.886  17.784  0.00  0.00    +0.000 C 
ATOM      4  C   UNL     1       2.303   7.719  18.714  0.00  0.00    +0.000 A 
ATOM      5  C   UNL     1       1.686   7.848  19.957  0.00  0.00    +0.000 A 
ATOM      6  C   UNL     1       1.626   6.756  20.825  0.00  0.00    +0.000 A 
ATOM      7  C   UNL     1       2.196   5.536  20.464  0.00  0.00    +0.000 A 
ATOM      8  C   UNL     1       2.823   5.383  19.221  0.00  0.00    +0.000 A 
ATOM      9  C   UNL     1       2.846   6.479  18.347  0.00  0.00    +0.000 A 
ATOM     10  N   UNL     1       3.479   4.164  18.913  0.00  0.00    +0.000 N 
ATOM     11  C   UNL     1       3.431   3.103  19.813  0.00  0.00    +0.000 C 
ATOM     12  O   UNL     1       4.072   2.057  19.665  0.00  0.00    +0.000 OA
ATOM     13  C   UNL     1       2.387   3.261  20.910  0.00  0.00    +0.000 C 
ATOM     14  O   UNL     1       2.134   4.555  21.416  0.00  0.00    +0.000 OA
ENDBRANCH   2  10
ENDBRANCH   1   2
BRANCH   1  15
ATOM     15  C   UNL     1       6.273   5.331  17.332  0.00  0.00    +0.000 C 
BRANCH  15  16
ATOM     16  C   UNL     1       6.223   5.591  15.836  0.00  0.00    +0.000 C 
ATOM     17  O   UNL     1       5.471   6.447  15.374  0.00  0.00    +0.000 OA
ATOM     18  N   UNL     1       7.065   4.840  15.062  0.00  0.00    +0.000 N 
ATOM     19  H   UNL     1       7.529   4.018  15.426  0.00  0.00    +0.000 HD
BRANCH  18  20
ATOM     20  C   UNL     1       7.285   5.098  13.665  0.00  0.00    +0.000 C 
BRANCH  20  21
ATOM     21  C   UNL     1       6.583   4.058  12.852  0.00  0.00    +0.000 A 
ATOM     22  C   UNL     1       5.181   4.038  12.772  0.00  0.00    +0.000 A 
ATOM     23  C   UNL     1       4.536   3.090  11.978  0.00  0.00    +0.000 A 
ATOM     24  C   UNL     1       5.284   2.162  11.256  0.00  0.00    +0.000 A 
ATOM     25  C   UNL     1       6.671   2.203  11.320  0.00  0.00    +0.000 A 
ATOM     26  F   UNL     1       7.386   1.323  10.609  0.00  0.00    +0.000 F 
ATOM     27  C   UNL     1       7.328   3.137  12.107  0.00  0.00    +0.000 A 
ENDBRANCH  20  21
ENDBRANCH  18  20
ENDBRANCH  15  16
ENDBRANCH   1  15
TORSDOF 6
ENDMDL
MODEL 9
REMARK VINA RESULT:      -7.5      2.972      7.459
REMARK  Name = 
REMARK  7 active torsions:
REMARK  status: ('A' for Active; 'I' for Inactive)
REMARK    1  A    between atoms: C_1  and  C_2
REMARK    2  A    between atoms: N_8  and  C_9
REMARK    3  A    between atoms: C_9  and  C_10
REMARK    4  A    between atoms: C_10  and  C_11
REMARK    5  A    between atoms: C_11  and  C_12
REMARK    6  A    between atoms: N_14  and  C_15
REMARK    7  A    between atoms: C_15  and  C_16
REMARK                            x       y       z     vdW  Elec       q    Type
REMARK                         _______ _______ _______ _____ _____    ______ ____
ROOT
ATOM      1  C   UNL     1       4.063   3.190  18.100  0.00  0.00    +0.000 C 
ENDROOT
BRANCH   1   2
ATOM      2  C   UNL     1       3.943   3.915  16.748  0.00  0.00    +0.000 C 
BRANCH   2  10
ATOM      3  C   UNL     1       5.375   2.678  11.881  0.00  0.00    +0.000 C 
ATOM      4  C   UNL     1       5.928   3.624  12.906  0.00  0.00    +0.000 A 
ATOM      5  C   UNL     1       7.117   4.320  12.698  0.00  0.00    +0.000 A 
ATOM      6  C   UNL     1       7.639   5.134  13.705  0.00  0.00    +0.000 A 
ATOM      7  C   UNL     1       6.984   5.244  14.931  0.00  0.00    +0.000 A 
ATOM      8  C   UNL     1       5.788   4.553  15.165  0.00  0.00    +0.000 A 
ATOM      9  C   UNL     1       5.261   3.766  14.131  0.00  0.00    +0.000 A 
ATOM     10  N   UNL     1       5.190   4.604  16.449  0.00  0.00    +0.000 N 
ATOM     11  C   UNL     1       5.751   5.398  17.446  0.00  0.00    +0.000 C 
ATOM     12  O   UNL     1       5.354   5.402  18.616  0.00  0.00    +0.000 OA
ATOM     13  C   UNL     1       6.782   6.397  16.942  0.00  0.00    +0.000 C 
ATOM     14  O   UNL     1       7.616   6.018  15.866  0.00  0.00    +0.000 OA
ENDBRANCH   2  10
ENDBRANCH   1   2
BRANCH   1  15
ATOM     15  C   UNL     1       2.720   2.801  18.708  0.00  0.00    +0.000 C 
BRANCH  15  16
ATOM     16  C   UNL     1       2.023   3.857  19.548  0.00  0.00    +0.000 C 
ATOM     17  O   UNL     1       0.957   3.609  20.108  0.00  0.00    +0.000 OA
ATOM     18  N   UNL     1       2.657   5.065  19.653  0.00  0.00    +0.000 N 
ATOM     19  H   UNL     1       3.422   5.317  19.041  0.00  0.00    +0.000 HD
BRANCH  18  20
ATOM     20  C   UNL     1       2.237   6.095  20.564  0.00  0.00    +0.000 C 
BRANCH  20  21
ATOM     21  C   UNL     1       2.013   7.365  19.807  0.00  0.00    +0.000 A 
ATOM     22  C   UNL     1       2.499   7.513  18.497  0.00  0.00    +0.000 A 
ATOM     23  C   UNL     1       2.249   8.685  17.784  0.00  0.00    +0.000 A 
ATOM     24  C   UNL     1       1.510   9.711  18.368  0.00  0.00    +0.000 A 
ATOM     25  C   UNL     1       1.011   9.548  19.654  0.00  0.00    +0.000 A 
ATOM     26  F   UNL     1       0.284  10.528  20.204  0.00  0.00    +0.000 F 
ATOM     27  C   UNL     1       1.253   8.391  20.379  0.00  0.00    +0.000 A 
ENDBRANCH  20  21
ENDBRANCH  18  20
ENDBRANCH  15  16
ENDBRANCH   1  15
TORSDOF 6
ENDMDL
