MODEL 1
REMARK VINA RESULT:      -7.6      0.000      0.000
REMARK  Name = 
REMARK  3 active torsions:
REMARK  status: ('A' for Active; 'I' for Inactive)
REMARK    1  A    between atoms: C_1  and  C_2
REMARK    2  A    between atoms: C_2  and  C_3
REMARK    3  A    between atoms: C_5  and  C_6
REMARK                            x       y       z     vdW  Elec       q    Type
REMARK                         _______ _______ _______ _____ _____    ______ ____
ROOT
ATOM      1  C   UNL     1       2.631   4.156  20.318  0.00  0.00    +0.000 A 
ATOM      2  C   UNL     1       1.965   5.239  20.946  0.00  0.00    +0.000 A 
ATOM      3  C   UNL     1       1.903   6.545  20.399  0.00  0.00    +0.000 A 
ATOM      4  C   UNL     1       2.569   6.734  19.182  0.00  0.00    +0.000 A 
ATOM      5  C   UNL     1       3.221   5.650  18.594  0.00  0.00    +0.000 A 
ATOM      6  C   UNL     1       3.823   6.076  17.430  0.00  0.00    +0.000 A 
ATOM      7  C   UNL     1       4.541   5.222  16.615  0.00  0.00    +0.000 A 
ATOM      8  C   UNL     1       4.610   3.888  17.048  0.00  0.00    +0.000 A 
ATOM      9  C   UNL     1       3.999   3.474  18.248  0.00  0.00    +0.000 A 
ATOM     10  F   UNL     1       4.116   2.183  18.591  0.00  0.00    +0.000 F 
ATOM     11  C   UNL     1       3.281   4.373  19.075  0.00  0.00    +0.000 A 
ATOM     12  N   UNL     1       3.554   7.421  17.296  0.00  0.00    +0.000 N 
ATOM     13  C   UNL     1       2.755   7.903  18.339  0.00  0.00    +0.000 C 
ATOM     14  O   UNL     1       2.338   9.054  18.395  0.00  0.00    +0.000 OA
ATOM     15  H   UNL     1       3.860   8.014  16.540  0.00  0.00    +0.000 HD
ENDROOT
BRANCH   3  16
ATOM     16  C   UNL     1       1.194   7.612  21.097  0.00  0.00    +0.000 A 
ATOM     17  C   UNL     1      -0.155   7.937  21.093  0.00  0.00    +0.000 A 
ATOM     18  C   UNL     1      -0.341   9.111  21.860  0.00  0.00    +0.000 A 
ATOM     19  C   UNL     1       0.895   9.485  22.329  0.00  0.00    +0.000 A 
ATOM     20  N   UNL     1       1.809   8.561  21.892  0.00  0.00    +0.000 N 
ATOM     21  H   UNL     1       2.790   8.556  22.142  0.00  0.00    +0.000 HD
ENDBRANCH   3  16
BRANCH   1  23
ATOM     22  C   UNL     1       1.367   2.535  21.736  0.00  0.00    +0.000 C 
ATOM     23  C   UNL     1       2.689   2.831  21.041  0.00  0.00    +0.000 C 
ENDBRANCH   1  23
TORSDOF 2
ENDMDL
MODEL 2
REMARK VINA RESULT:      -7.6      0.926      1.038
REMARK  Name = 
REMARK  3 active torsions:
REMARK  status: ('A' for Active; 'I' for Inactive)
REMARK    1  A    between atoms: C_1  and  C_2
REMARK    2  A    between atoms: C_2  and  C_3
REMARK    3  A    between atoms: C_5  and  C_6
REMARK                            x       y       z     vdW  Elec       q    Type
REMARK                         _______ _______ _______ _____ _____    ______ ____
ROOT
ATOM      1  C   UNL     1       2.471   4.767  20.501  0.00  0.00    +0.000 A 
ATOM      2  C   UNL     1       1.867   5.993  20.879  0.00  0.00    +0.000 A 
ATOM      3  C   UNL     1       1.931   7.173  20.098  0.00  0.00    +0.000 A 
ATOM      4  C   UNL     1       2.661   7.083  18.906  0.00  0.00    +0.000 A 
ATOM      5  C   UNL     1       3.250   5.864  18.567  0.00  0.00    +0.000 A 
ATOM      6  C   UNL     1       3.932   6.020  17.380  0.00  0.00    +0.000 A 
ATOM      7  C   UNL     1       4.614   4.980  16.779  0.00  0.00    +0.000 A 
ATOM      8  C   UNL     1       4.559   3.750  17.454  0.00  0.00    +0.000 A 
ATOM      9  C   UNL     1       3.867   3.613  18.674  0.00  0.00    +0.000 A 
ATOM     10  F   UNL     1       3.867   2.405  19.255  0.00  0.00    +0.000 F 
ATOM     11  C   UNL     1       3.188   4.700  19.279  0.00  0.00    +0.000 A 
ATOM     12  N   UNL     1       3.776   7.331  16.985  0.00  0.00    +0.000 N 
ATOM     13  C   UNL     1       2.974   8.056  17.874  0.00  0.00    +0.000 C 
ATOM     14  O   UNL     1       2.648   9.222  17.693  0.00  0.00    +0.000 OA
ATOM     15  H   UNL     1       4.160   7.748  16.150  0.00  0.00    +0.000 HD
ENDROOT
BRANCH   3  16
ATOM     16  C   UNL     1       1.281   8.400  20.545  0.00  0.00    +0.000 A 
ATOM     17  C   UNL     1       1.156   8.927  21.824  0.00  0.00    +0.000 A 
ATOM     18  C   UNL     1       0.363  10.096  21.755  0.00  0.00    +0.000 A 
ATOM     19  C   UNL     1       0.018  10.273  20.437  0.00  0.00    +0.000 A 
ATOM     20  N   UNL     1       0.601   9.266  19.712  0.00  0.00    +0.000 N 
ATOM     21  H   UNL     1       0.563   9.186  18.703  0.00  0.00    +0.000 HD
ENDBRANCH   3  16
BRANCH   1  23
ATOM     22  C   UNL     1       1.166   2.747  21.173  0.00  0.00    +0.000 C 
ATOM     23  C   UNL     1       2.394   3.601  21.459  0.00  0.00    +0.000 C 
ENDBRANCH   1  23
TORSDOF 2
ENDMDL
MODEL 3
REMARK VINA RESULT:      -7.4      3.384      6.346
REMARK  Name = 
REMARK  3 active torsions:
REMARK  status: ('A' for Active; 'I' for Inactive)
REMARK    1  A    between atoms: C_1  and  C_2
REMARK    2  A    between atoms: C_2  and  C_3
REMARK    3  A    between atoms: C_5  and  C_6
REMARK                            x       y       z     vdW  Elec       q    Type
REMARK                         _______ _______ _______ _____ _____    ______ ____
ROOT
ATOM      1  C   UNL     1       2.842   6.155  18.658  0.00  0.00    +0.000 A 
ATOM      2  C   UNL     1       3.808   5.991  17.634  0.00  0.00    +0.000 A 
ATOM      3  C   UNL     1       4.269   4.729  17.186  0.00  0.00    +0.000 A 
ATOM      4  C   UNL     1       3.730   3.611  17.834  0.00  0.00    +0.000 A 
ATOM      5  C   UNL     1       2.787   3.807  18.844  0.00  0.00    +0.000 A 
ATOM      6  C   UNL     1       2.423   2.579  19.351  0.00  0.00    +0.000 A 
ATOM      7  C   UNL     1       1.492   2.445  20.362  0.00  0.00    +0.000 A 
ATOM      8  C   UNL     1       0.934   3.644  20.835  0.00  0.00    +0.000 A 
ATOM      9  C   UNL     1       1.329   4.892  20.313  0.00  0.00    +0.000 A 
ATOM     10  F   UNL     1       0.750   5.989  20.822  0.00  0.00    +0.000 F 
ATOM     11  C   UNL     1       2.299   5.004  19.285  0.00  0.00    +0.000 A 
ATOM     12  N   UNL     1       3.141   1.621  18.666  0.00  0.00    +0.000 N 
ATOM     13  C   UNL     1       3.964   2.185  17.684  0.00  0.00    +0.000 C 
ATOM     14  O   UNL     1       4.644   1.522  16.912  0.00  0.00    +0.000 OA
ATOM     15  H   UNL     1       3.089   0.625  18.812  0.00  0.00    +0.000 HD
ENDROOT
BRANCH   3  16
ATOM     16  C   UNL     1       5.262   4.633  16.121  0.00  0.00    +0.000 A 
ATOM     17  C   UNL     1       6.554   5.138  16.059  0.00  0.00    +0.000 A 
ATOM     18  C   UNL     1       7.089   4.855  14.781  0.00  0.00    +0.000 A 
ATOM     19  C   UNL     1       6.123   4.175  14.080  0.00  0.00    +0.000 A 
ATOM     20  N   UNL     1       5.038   4.018  14.904  0.00  0.00    +0.000 N 
ATOM     21  H   UNL     1       4.203   3.498  14.666  0.00  0.00    +0.000 HD
ENDBRANCH   3  16
BRANCH   1  23
ATOM     22  C   UNL     1       2.126   8.424  17.900  0.00  0.00    +0.000 C 
ATOM     23  C   UNL     1       2.490   7.557  19.098  0.00  0.00    +0.000 C 
ENDBRANCH   1  23
TORSDOF 2
ENDMDL
MODEL 4
REMARK VINA RESULT:      -7.2      0.972      1.024
REMARK  Name = 
REMARK  3 active torsions:
REMARK  status: ('A' for Active; 'I' for Inactive)
REMARK    1  A    between atoms: C_1  and  C_2
REMARK    2  A    between atoms: C_2  and  C_3
REMARK    3  A    between atoms: C_5  and  C_6
REMARK                            x       y       z     vdW  Elec       q    Type
REMARK                         _______ _______ _______ _____ _____    ______ ____
ROOT
ATOM      1  C   UNL     1       1.746   4.111  20.067  0.00  0.00    +0.000 A 
ATOM      2  C   UNL     1       1.395   5.396  20.551  0.00  0.00    +0.000 A 
ATOM      3  C   UNL     1       1.837   6.605  19.959  0.00  0.00    +0.000 A 
ATOM      4  C   UNL     1       2.683   6.474  18.851  0.00  0.00    +0.000 A 
ATOM      5  C   UNL     1       3.016   5.195  18.405  0.00  0.00    +0.000 A 
ATOM      6  C   UNL     1       3.873   5.312  17.332  0.00  0.00    +0.000 A 
ATOM      7  C   UNL     1       4.373   4.211  16.663  0.00  0.00    +0.000 A 
ATOM      8  C   UNL     1       3.943   2.964  17.145  0.00  0.00    +0.000 A 
ATOM      9  C   UNL     1       3.077   2.864  18.252  0.00  0.00    +0.000 A 
ATOM     10  F   UNL     1       2.717   1.635  18.650  0.00  0.00    +0.000 F 
ATOM     11  C   UNL     1       2.590   4.009  18.931  0.00  0.00    +0.000 A 
ATOM     12  N   UNL     1       4.080   6.657  17.115  0.00  0.00    +0.000 N 
ATOM     13  C   UNL     1       3.352   7.451  18.009  0.00  0.00    +0.000 C 
ATOM     14  O   UNL     1       3.332   8.675  17.963  0.00  0.00    +0.000 OA
ATOM     15  H   UNL     1       4.661   7.058  16.395  0.00  0.00    +0.000 HD
ENDROOT
BRANCH   3  16
ATOM     16  C   UNL     1       1.432   7.895  20.506  0.00  0.00    +0.000 A 
ATOM     17  C   UNL     1       0.770   8.953  19.898  0.00  0.00    +0.000 A 
ATOM     18  C   UNL     1       0.681  10.022  20.820  0.00  0.00    +0.000 A 
ATOM     19  C   UNL     1       1.282   9.602  21.982  0.00  0.00    +0.000 A 
ATOM     20  N   UNL     1       1.703   8.311  21.795  0.00  0.00    +0.000 N 
ATOM     21  H   UNL     1       2.126   7.733  22.511  0.00  0.00    +0.000 HD
ENDBRANCH   3  16
BRANCH   1  23
ATOM     22  C   UNL     1       2.274   2.512  21.911  0.00  0.00    +0.000 C 
ATOM     23  C   UNL     1       1.270   2.899  20.833  0.00  0.00    +0.000 C 
ENDBRANCH   1  23
TORSDOF 2
ENDMDL
MODEL 5
REMARK VINA RESULT:      -7.2      2.183      3.639
REMARK  Name = 
REMARK  3 active torsions:
REMARK  status: ('A' for Active; 'I' for Inactive)
REMARK    1  A    between atoms: C_1  and  C_2
REMARK    2  A    between atoms: C_2  and  C_3
REMARK    3  A    between atoms: C_5  and  C_6
REMARK                            x       y       z     vdW  Elec       q    Type
REMARK                         _______ _______ _______ _____ _____    ______ ____
ROOT
ATOM      1  C   UNL     1       4.415   6.107  17.325  0.00  0.00    +0.000 A 
ATOM      2  C   UNL     1       3.680   7.044  18.093  0.00  0.00    +0.000 A 
ATOM      3  C   UNL     1       2.656   6.681  19.003  0.00  0.00    +0.000 A 
ATOM      4  C   UNL     1       2.375   5.313  19.099  0.00  0.00    +0.000 A 
ATOM      5  C   UNL     1       3.112   4.417  18.323  0.00  0.00    +0.000 A 
ATOM      6  C   UNL     1       2.645   3.143  18.559  0.00  0.00    +0.000 A 
ATOM      7  C   UNL     1       3.186   2.032  17.941  0.00  0.00    +0.000 A 
ATOM      8  C   UNL     1       4.249   2.288  17.060  0.00  0.00    +0.000 A 
ATOM      9  C   UNL     1       4.704   3.600  16.820  0.00  0.00    +0.000 A 
ATOM     10  F   UNL     1       5.722   3.758  15.962  0.00  0.00    +0.000 F 
ATOM     11  C   UNL     1       4.121   4.725  17.456  0.00  0.00    +0.000 A 
ATOM     12  N   UNL     1       1.617   3.243  19.473  0.00  0.00    +0.000 N 
ATOM     13  C   UNL     1       1.402   4.565  19.878  0.00  0.00    +0.000 C 
ATOM     14  O   UNL     1       0.583   4.886  20.729  0.00  0.00    +0.000 OA
ATOM     15  H   UNL     1       1.078   2.476  19.844  0.00  0.00    +0.000 HD
ENDROOT
BRANCH   3  16
ATOM     16  C   UNL     1       1.943   7.699  19.768  0.00  0.00    +0.000 A 
ATOM     17  C   UNL     1       1.330   8.868  19.339  0.00  0.00    +0.000 A 
ATOM     18  C   UNL     1       0.848   9.567  20.470  0.00  0.00    +0.000 A 
ATOM     19  C   UNL     1       1.165   8.813  21.575  0.00  0.00    +0.000 A 
ATOM     20  N   UNL     1       1.796   7.676  21.141  0.00  0.00    +0.000 N 
ATOM     21  H   UNL     1       2.085   6.912  21.740  0.00  0.00    +0.000 HD
ENDBRANCH   3  16
BRANCH   1  23
ATOM     22  C   UNL     1       6.791   6.800  16.993  0.00  0.00    +0.000 C 
ATOM     23  C   UNL     1       5.430   6.627  16.333  0.00  0.00    +0.000 C 
ENDBRANCH   1  23
TORSDOF 2
ENDMDL
MODEL 6
REMARK VINA RESULT:      -7.1      2.221      5.566
REMARK  Name = 
REMARK  3 active torsions:
REMARK  status: ('A' for Active; 'I' for Inactive)
REMARK    1  A    between atoms: C_1  and  C_2
REMARK    2  A    between atoms: C_2  and  C_3
REMARK    3  A    between atoms: C_5  and  C_6
REMARK                            x       y       z     vdW  Elec       q    Type
REMARK                         _______ _______ _______ _____ _____    ______ ____
ROOT
ATOM      1  C   UNL     1       3.066   3.371  18.630  0.00  0.00    +0.000 A 
ATOM      2  C   UNL     1       3.923   3.339  17.501  0.00  0.00    +0.000 A 
ATOM      3  C   UNL     1       4.429   4.502  16.867  0.00  0.00    +0.000 A 
ATOM      4  C   UNL     1       4.014   5.726  17.406  0.00  0.00    +0.000 A 
ATOM      5  C   UNL     1       3.164   5.722  18.512  0.00  0.00    +0.000 A 
ATOM      6  C   UNL     1       2.871   7.026  18.846  0.00  0.00    +0.000 A 
ATOM      7  C   UNL     1       2.055   7.349  19.913  0.00  0.00    +0.000 A 
ATOM      8  C   UNL     1       1.550   6.259  20.641  0.00  0.00    +0.000 A 
ATOM      9  C   UNL     1       1.850   4.931  20.275  0.00  0.00    +0.000 A 
ATOM     10  F   UNL     1       1.324   3.948  21.021  0.00  0.00    +0.000 F 
ATOM     11  C   UNL     1       2.678   4.626  19.166  0.00  0.00    +0.000 A 
ATOM     12  N   UNL     1       3.529   7.839  17.949  0.00  0.00    +0.000 N 
ATOM     13  C   UNL     1       4.285   7.103  17.030  0.00  0.00    +0.000 C 
ATOM     14  O   UNL     1       5.002   7.616  16.179  0.00  0.00    +0.000 OA
ATOM     15  H   UNL     1       3.509   8.847  17.938  0.00  0.00    +0.000 HD
ENDROOT
BRANCH   3  16
ATOM     16  C   UNL     1       5.312   4.396  15.711  0.00  0.00    +0.000 A 
ATOM     17  C   UNL     1       5.104   3.781  14.483  0.00  0.00    +0.000 A 
ATOM     18  C   UNL     1       6.293   3.875  13.724  0.00  0.00    +0.000 A 
ATOM     19  C   UNL     1       7.210   4.550  14.492  0.00  0.00    +0.000 A 
ATOM     20  N   UNL     1       6.603   4.887  15.673  0.00  0.00    +0.000 N 
ATOM     21  H   UNL     1       7.029   5.446  16.403  0.00  0.00    +0.000 HD
ENDBRANCH   3  16
BRANCH   1  23
ATOM     22  C   UNL     1       1.126   1.799  18.652  0.00  0.00    +0.000 C 
ATOM     23  C   UNL     1       2.535   2.063  19.167  0.00  0.00    +0.000 C 
ENDBRANCH   1  23
TORSDOF 2
ENDMDL
MODEL 7
REMARK VINA RESULT:      -7.0      3.456      4.930
REMARK  Name = 
REMARK  3 active torsions:
REMARK  status: ('A' for Active; 'I' for Inactive)
REMARK    1  A    between atoms: C_1  and  C_2
REMARK    2  A    between atoms: C_2  and  C_3
REMARK    3  A    between atoms: C_5  and  C_6
REMARK                            x       y       z     vdW  Elec       q    Type
REMARK                         _______ _______ _______ _____ _____    ______ ____
ROOT
ATOM      1  C   UNL     1       3.638   6.464  17.809  0.00  0.00    +0.000 A 
ATOM      2  C   UNL     1       3.003   5.733  18.845  0.00  0.00    +0.000 A 
ATOM      3  C   UNL     1       3.088   4.325  18.977  0.00  0.00    +0.000 A 
ATOM      4  C   UNL     1       3.832   3.659  17.995  0.00  0.00    +0.000 A 
ATOM      5  C   UNL     1       4.438   4.407  16.986  0.00  0.00    +0.000 A 
ATOM      6  C   UNL     1       5.085   3.545  16.127  0.00  0.00    +0.000 A 
ATOM      7  C   UNL     1       5.790   3.991  15.026  0.00  0.00    +0.000 A 
ATOM      8  C   UNL     1       5.811   5.384  14.844  0.00  0.00    +0.000 A 
ATOM      9  C   UNL     1       5.131   6.249  15.725  0.00  0.00    +0.000 A 
ATOM     10  F   UNL     1       5.198   7.565  15.478  0.00  0.00    +0.000 F 
ATOM     11  C   UNL     1       4.401   5.764  16.839  0.00  0.00    +0.000 A 
ATOM     12  N   UNL     1       4.878   2.265  16.595  0.00  0.00    +0.000 N 
ATOM     13  C   UNL     1       4.123   2.253  17.773  0.00  0.00    +0.000 C 
ATOM     14  O   UNL     1       3.869   1.233  18.402  0.00  0.00    +0.000 OA
ATOM     15  H   UNL     1       5.231   1.418  16.178  0.00  0.00    +0.000 HD
ENDROOT
BRANCH   3  16
ATOM     16  C   UNL     1       2.413   3.637  20.072  0.00  0.00    +0.000 A 
ATOM     17  C   UNL     1       1.078   3.661  20.452  0.00  0.00    +0.000 A 
ATOM     18  C   UNL     1       0.929   2.896  21.631  0.00  0.00    +0.000 A 
ATOM     19  C   UNL     1       2.172   2.407  21.954  0.00  0.00    +0.000 A 
ATOM     20  N   UNL     1       3.053   2.831  20.994  0.00  0.00    +0.000 N 
ATOM     21  H   UNL     1       4.029   2.566  20.949  0.00  0.00    +0.000 HD
ENDBRANCH   3  16
BRANCH   1  23
ATOM     22  C   UNL     1       1.926   8.281  17.874  0.00  0.00    +0.000 C 
ATOM     23  C   UNL     1       3.407   7.956  17.735  0.00  0.00    +0.000 C 
ENDBRANCH   1  23
TORSDOF 2
ENDMDL
MODEL 8
REMARK VINA RESULT:      -6.9      3.095      6.351
REMARK  Name = 
REMARK  3 active torsions:
REMARK  status: ('A' for Active; 'I' for Inactive)
REMARK    1  A    between atoms: C_1  and  C_2
REMARK    2  A    between atoms: C_2  and  C_3
REMARK    3  A    between atoms: C_5  and  C_6
REMARK                            x       y       z     vdW  Elec       q    Type
REMARK                         _______ _______ _______ _____ _____    ______ ____
ROOT
ATOM      1  C   UNL     1       3.147   7.276  18.148  0.00  0.00    +0.000 A 
ATOM      2  C   UNL     1       4.007   6.858  17.102  0.00  0.00    +0.000 A 
ATOM      3  C   UNL     1       4.421   5.515  16.916  0.00  0.00    +0.000 A 
ATOM      4  C   UNL     1       3.949   4.590  17.855  0.00  0.00    +0.000 A 
ATOM      5  C   UNL     1       3.110   5.037  18.878  0.00  0.00    +0.000 A 
ATOM      6  C   UNL     1       2.798   3.967  19.688  0.00  0.00    +0.000 A 
ATOM      7  C   UNL     1       1.971   4.092  20.788  0.00  0.00    +0.000 A 
ATOM      8  C   UNL     1       1.463   5.381  21.021  0.00  0.00    +0.000 A 
ATOM      9  C   UNL     1       1.805   6.465  20.188  0.00  0.00    +0.000 A 
ATOM     10  F   UNL     1       1.280   7.663  20.482  0.00  0.00    +0.000 F 
ATOM     11  C   UNL     1       2.669   6.314  19.074  0.00  0.00    +0.000 A 
ATOM     12  N   UNL     1       3.443   2.861  19.179  0.00  0.00    +0.000 N 
ATOM     13  C   UNL     1       4.166   3.163  18.019  0.00  0.00    +0.000 C 
ATOM     14  O   UNL     1       4.766   2.324  17.359  0.00  0.00    +0.000 OA
ATOM     15  H   UNL     1       3.405   1.927  19.557  0.00  0.00    +0.000 HD
ENDROOT
BRANCH   3  16
ATOM     16  C   UNL     1       5.304   5.153  15.813  0.00  0.00    +0.000 A 
ATOM     17  C   UNL     1       5.073   4.327  14.721  0.00  0.00    +0.000 A 
ATOM     18  C   UNL     1       6.268   4.221  13.973  0.00  0.00    +0.000 A 
ATOM     19  C   UNL     1       7.212   4.989  14.611  0.00  0.00    +0.000 A 
ATOM     20  N   UNL     1       6.616   5.571  15.699  0.00  0.00    +0.000 N 
ATOM     21  H   UNL     1       7.064   6.238  16.315  0.00  0.00    +0.000 HD
ENDBRANCH   3  16
BRANCH   1  23
ATOM     22  C   UNL     1       1.507   9.086  17.630  0.00  0.00    +0.000 C 
ATOM     23  C   UNL     1       2.841   8.750  18.282  0.00  0.00    +0.000 C 
ENDBRANCH   1  23
TORSDOF 2
ENDMDL
MODEL 9
REMARK VINA RESULT:      -6.9      3.014      5.386
REMARK  Name = 
REMARK  3 active torsions:
REMARK  status: ('A' for Active; 'I' for Inactive)
REMARK    1  A    between atoms: C_1  and  C_2
REMARK    2  A    between atoms: C_2  and  C_3
REMARK    3  A    between atoms: C_5  and  C_6
REMARK                            x       y       z     vdW  Elec       q    Type
REMARK                         _______ _______ _______ _____ _____    ______ ____
ROOT
ATOM      1  C   UNL     1       0.397   8.645  21.254  0.00  0.00    +0.000 A 
ATOM      2  C   UNL     1       0.638   7.254  21.381  0.00  0.00    +0.000 A 
ATOM      3  C   UNL     1       1.429   6.508  20.472  0.00  0.00    +0.000 A 
ATOM      4  C   UNL     1       1.962   7.221  19.392  0.00  0.00    +0.000 A 
ATOM      5  C   UNL     1       1.700   8.588  19.292  0.00  0.00    +0.000 A 
ATOM      6  C   UNL     1       2.298   9.068  18.147  0.00  0.00    +0.000 A 
ATOM      7  C   UNL     1       2.224  10.397  17.777  0.00  0.00    +0.000 A 
ATOM      8  C   UNL     1       1.505  11.229  18.651  0.00  0.00    +0.000 A 
ATOM      9  C   UNL     1       0.889  10.717  19.810  0.00  0.00    +0.000 A 
ATOM     10  F   UNL     1       0.218  11.579  20.589  0.00  0.00    +0.000 F 
ATOM     11  C   UNL     1       0.966   9.346  20.159  0.00  0.00    +0.000 A 
ATOM     12  N   UNL     1       2.924   8.005  17.532  0.00  0.00    +0.000 N 
ATOM     13  C   UNL     1       2.780   6.819  18.261  0.00  0.00    +0.000 C 
ATOM     14  O   UNL     1       3.306   5.760  17.940  0.00  0.00    +0.000 OA
ATOM     15  H   UNL     1       3.449   8.043  16.673  0.00  0.00    +0.000 HD
ENDROOT
BRANCH   3  16
ATOM     16  C   UNL     1       1.640   5.077  20.668  0.00  0.00    +0.000 A 
ATOM     17  C   UNL     1       0.957   3.994  20.131  0.00  0.00    +0.000 A 
ATOM     18  C   UNL     1       1.482   2.806  20.691  0.00  0.00    +0.000 A 
ATOM     19  C   UNL     1       2.483   3.177  21.556  0.00  0.00    +0.000 A 
ATOM     20  N   UNL     1       2.593   4.543  21.513  0.00  0.00    +0.000 N 
ATOM     21  H   UNL     1       3.294   5.081  22.006  0.00  0.00    +0.000 HD
ENDBRANCH   3  16
BRANCH   1  23
ATOM     22  C   UNL     1       0.177   9.522  23.581  0.00  0.00    +0.000 C 
ATOM     23  C   UNL     1      -0.527   9.310  22.247  0.00  0.00    +0.000 C 
ENDBRANCH   1  23
TORSDOF 2
ENDMDL
