MODEL 1
REMARK VINA RESULT:      -6.7      0.000      0.000
REMARK  Name = 
REMARK  11 active torsions:
REMARK  status: ('A' for Active; 'I' for Inactive)
REMARK    1  A    between atoms: C_1  and  C_2
REMARK    2  A    between atoms: C_2  and  C_3
REMARK    3  A    between atoms: C_3  and  N_4
REMARK    4  A    between atoms: C_11  and  C_12
REMARK    5  A    between atoms: C_12  and  C_13
REMARK    6  A    between atoms: C_13  and  N_14
REMARK    7  A    between atoms: N_14  and  C_15
REMARK    8  A    between atoms: N_14  and  C_16
REMARK    9  A    between atoms: C_16  and  C_17
REMARK   10  A    between atoms: C_17  and  C_18
REMARK   11  A    between atoms: C_18  and  C_19
REMARK                            x       y       z     vdW  Elec       q    Type
REMARK                         _______ _______ _______ _____ _____    ______ ____
ROOT
ATOM      1  N   UNL     1       6.017   5.159  17.836  0.00  0.00    +0.000 NA
ATOM      2  C   UNL     1       5.807   6.566  17.425  0.00  0.00    +0.000 C 
ATOM      3  C   UNL     1       4.362   6.889  16.991  0.00  0.00    +0.000 C 
ATOM      4  N   UNL     1       3.414   6.521  18.047  0.00  0.00    +0.000 N 
ATOM      5  C   UNL     1       2.635   7.447  18.668  0.00  0.00    +0.000 A 
ATOM      6  N   UNL     1       2.157   7.313  19.887  0.00  0.00    +0.000 NA
ATOM      7  C   UNL     1       1.380   8.399  20.237  0.00  0.00    +0.000 A 
ATOM      8  C   UNL     1       1.232   9.358  19.261  0.00  0.00    +0.000 A 
ATOM      9  S   UNL     1       2.123   8.904  17.882  0.00  0.00    +0.000 S 
ATOM     10  C   UNL     1       3.586   5.193  18.651  0.00  0.00    +0.000 C 
ATOM     11  C   UNL     1       5.075   4.894  18.958  0.00  0.00    +0.000 C 
ENDROOT
BRANCH   1  12
ATOM     12  C   UNL     1       5.797   4.198  16.737  0.00  0.00    +0.000 C 
BRANCH  12  14
ATOM     13  C   UNL     1       5.946   4.009  14.228  0.00  0.00    +0.000 C 
ATOM     14  C   UNL     1       6.644   4.486  15.492  0.00  0.00    +0.000 C 
ENDBRANCH  12  14
ENDBRANCH   1  12
BRANCH   8  15
ATOM     15  C   UNL     1       0.415  10.608  19.252  0.00  0.00    +0.000 C 
BRANCH  15  16
ATOM     16  C   UNL     1      -1.071  10.257  19.061  0.00  0.00    +0.000 C 
BRANCH  16  17
ATOM     17  N   UNL     1      -1.720  10.909  17.905  0.00  0.00    +0.000 NA
ATOM     18  C   UNL     1      -2.088   9.926  16.877  0.00  0.00    +0.000 C 
BRANCH  17  19
ATOM     19  C   UNL     1      -2.938  11.635  18.324  0.00  0.00    +0.000 C 
BRANCH  19  20
ATOM     20  C   UNL     1      -2.891  12.226  19.738  0.00  0.00    +0.000 C 
BRANCH  20  21
ATOM     21  C   UNL     1      -4.235  12.801  20.193  0.00  0.00    +0.000 C 
BRANCH  21  22
ATOM     22  C   UNL     1      -4.322  12.796  21.700  0.00  0.00    +0.000 A 
ATOM     23  C   UNL     1      -3.193  12.494  22.472  0.00  0.00    +0.000 A 
ATOM     24  C   UNL     1      -3.287  12.413  23.860  0.00  0.00    +0.000 A 
ATOM     25  C   UNL     1      -4.514  12.632  24.487  0.00  0.00    +0.000 A 
ATOM     26  C   UNL     1      -5.641  12.940  23.730  0.00  0.00    +0.000 A 
ATOM     27  C   UNL     1      -5.547  13.022  22.339  0.00  0.00    +0.000 A 
ENDBRANCH  21  22
ENDBRANCH  20  21
ENDBRANCH  19  20
ENDBRANCH  17  19
ENDBRANCH  16  17
ENDBRANCH  15  16
ENDBRANCH   8  15
TORSDOF 9
ENDMDL
MODEL 2
REMARK VINA RESULT:      -6.6      2.429      9.842
REMARK  Name = 
REMARK  11 active torsions:
REMARK  status: ('A' for Active; 'I' for Inactive)
REMARK    1  A    between atoms: C_1  and  C_2
REMARK    2  A    between atoms: C_2  and  C_3
REMARK    3  A    between atoms: C_3  and  N_4
REMARK    4  A    between atoms: C_11  and  C_12
REMARK    5  A    between atoms: C_12  and  C_13
REMARK    6  A    between atoms: C_13  and  N_14
REMARK    7  A    between atoms: N_14  and  C_15
REMARK    8  A    between atoms: N_14  and  C_16
REMARK    9  A    between atoms: C_16  and  C_17
REMARK   10  A    between atoms: C_17  and  C_18
REMARK   11  A    between atoms: C_18  and  C_19
REMARK                            x       y       z     vdW  Elec       q    Type
REMARK                         _______ _______ _______ _____ _____    ______ ____
ROOT
ATOM      1  N   UNL     1      -1.686  11.712  22.395  0.00  0.00    +0.000 NA
ATOM      2  C   UNL     1      -1.528  11.662  20.923  0.00  0.00    +0.000 C 
ATOM      3  C   UNL     1      -0.062  11.628  20.445  0.00  0.00    +0.000 C 
ATOM      4  N   UNL     1       0.657  10.514  21.072  0.00  0.00    +0.000 N 
ATOM      5  C   UNL     1       1.181   9.495  20.340  0.00  0.00    +0.000 A 
ATOM      6  N   UNL     1       1.385   8.280  20.802  0.00  0.00    +0.000 NA
ATOM      7  C   UNL     1       1.953   7.470  19.840  0.00  0.00    +0.000 A 
ATOM      8  C   UNL     1       2.221   8.083  18.637  0.00  0.00    +0.000 A 
ATOM      9  S   UNL     1       1.712   9.707  18.703  0.00  0.00    +0.000 S 
ATOM     10  C   UNL     1       0.484  10.353  22.522  0.00  0.00    +0.000 C 
ATOM     11  C   UNL     1      -0.999  10.510  22.941  0.00  0.00    +0.000 C 
ENDROOT
BRANCH   1  12
ATOM     12  C   UNL     1      -1.132  12.943  22.993  0.00  0.00    +0.000 C 
BRANCH  12  14
ATOM     13  C   UNL     1      -3.483  13.505  23.710  0.00  0.00    +0.000 C 
ATOM     14  C   UNL     1      -2.170  14.057  23.176  0.00  0.00    +0.000 C 
ENDBRANCH  12  14
ENDBRANCH   1  12
BRANCH   8  15
ATOM     15  C   UNL     1       2.893   7.555  17.412  0.00  0.00    +0.000 C 
BRANCH  15  16
ATOM     16  C   UNL     1       3.832   6.396  17.792  0.00  0.00    +0.000 C 
BRANCH  16  17
ATOM     17  N   UNL     1       4.832   6.043  16.765  0.00  0.00    +0.000 NA
ATOM     18  C   UNL     1       6.130   6.673  17.045  0.00  0.00    +0.000 C 
BRANCH  17  19
ATOM     19  C   UNL     1       5.021   4.579  16.693  0.00  0.00    +0.000 C 
BRANCH  19  20
ATOM     20  C   UNL     1       3.750   3.746  16.893  0.00  0.00    +0.000 C 
BRANCH  20  21
ATOM     21  C   UNL     1       3.913   2.642  17.940  0.00  0.00    +0.000 C 
BRANCH  21  22
ATOM     22  C   UNL     1       2.960   2.865  19.089  0.00  0.00    +0.000 A 
ATOM     23  C   UNL     1       1.762   3.560  18.887  0.00  0.00    +0.000 A 
ATOM     24  C   UNL     1       0.916   3.835  19.961  0.00  0.00    +0.000 A 
ATOM     25  C   UNL     1       1.265   3.419  21.245  0.00  0.00    +0.000 A 
ATOM     26  C   UNL     1       2.452   2.721  21.455  0.00  0.00    +0.000 A 
ATOM     27  C   UNL     1       3.299   2.444  20.381  0.00  0.00    +0.000 A 
ENDBRANCH  21  22
ENDBRANCH  20  21
ENDBRANCH  19  20
ENDBRANCH  17  19
ENDBRANCH  16  17
ENDBRANCH  15  16
ENDBRANCH   8  15
TORSDOF 9
ENDMDL
MODEL 3
REMARK VINA RESULT:      -6.6      2.501      9.724
REMARK  Name = 
REMARK  11 active torsions:
REMARK  status: ('A' for Active; 'I' for Inactive)
REMARK    1  A    between atoms: C_1  and  C_2
REMARK    2  A    between atoms: C_2  and  C_3
REMARK    3  A    between atoms: C_3  and  N_4
REMARK    4  A    between atoms: C_11  and  C_12
REMARK    5  A    between atoms: C_12  and  C_13
REMARK    6  A    between atoms: C_13  and  N_14
REMARK    7  A    between atoms: N_14  and  C_15
REMARK    8  A    between atoms: N_14  and  C_16
REMARK    9  A    between atoms: C_16  and  C_17
REMARK   10  A    between atoms: C_17  and  C_18
REMARK   11  A    between atoms: C_18  and  C_19
REMARK                            x       y       z     vdW  Elec       q    Type
REMARK                         _______ _______ _______ _____ _____    ______ ____
ROOT
ATOM      1  N   UNL     1      -1.294  11.538  21.153  0.00  0.00    +0.000 NA
ATOM      2  C   UNL     1      -1.164  11.044  19.763  0.00  0.00    +0.000 C 
ATOM      3  C   UNL     1       0.294  10.849  19.296  0.00  0.00    +0.000 C 
ATOM      4  N   UNL     1       1.016   9.968  20.218  0.00  0.00    +0.000 N 
ATOM      5  C   UNL     1       1.520   8.770  19.821  0.00  0.00    +0.000 A 
ATOM      6  N   UNL     1       1.724   7.749  20.625  0.00  0.00    +0.000 NA
ATOM      7  C   UNL     1       2.270   6.680  19.944  0.00  0.00    +0.000 A 
ATOM      8  C   UNL     1       2.520   6.898  18.609  0.00  0.00    +0.000 A 
ATOM      9  S   UNL     1       2.023   8.472  18.188  0.00  0.00    +0.000 S 
ATOM     10  C   UNL     1       0.868  10.255  21.652  0.00  0.00    +0.000 C 
ATOM     11  C   UNL     1      -0.606  10.548  22.027  0.00  0.00    +0.000 C 
ENDROOT
BRANCH   1  12
ATOM     12  C   UNL     1      -0.721  12.885  21.343  0.00  0.00    +0.000 C 
BRANCH  12  14
ATOM     13  C   UNL     1      -0.412  14.874  22.860  0.00  0.00    +0.000 C 
ATOM     14  C   UNL     1      -0.962  13.462  22.743  0.00  0.00    +0.000 C 
ENDBRANCH  12  14
ENDBRANCH   1  12
BRANCH   8  15
ATOM     15  C   UNL     1       3.166   6.016  17.591  0.00  0.00    +0.000 C 
BRANCH  15  16
ATOM     16  C   UNL     1       4.610   6.485  17.336  0.00  0.00    +0.000 C 
BRANCH  16  17
ATOM     17  N   UNL     1       5.600   5.399  17.191  0.00  0.00    +0.000 NA
ATOM     18  C   UNL     1       6.917   5.806  17.700  0.00  0.00    +0.000 C 
BRANCH  17  19
ATOM     19  C   UNL     1       5.165   4.188  17.917  0.00  0.00    +0.000 C 
BRANCH  19  20
ATOM     20  C   UNL     1       4.192   3.282  17.153  0.00  0.00    +0.000 C 
BRANCH  20  21
ATOM     21  C   UNL     1       3.776   2.041  17.947  0.00  0.00    +0.000 C 
BRANCH  21  22
ATOM     22  C   UNL     1       2.887   2.433  19.101  0.00  0.00    +0.000 A 
ATOM     23  C   UNL     1       1.585   2.893  18.866  0.00  0.00    +0.000 A 
ATOM     24  C   UNL     1       0.788   3.329  19.923  0.00  0.00    +0.000 A 
ATOM     25  C   UNL     1       1.289   3.310  21.225  0.00  0.00    +0.000 A 
ATOM     26  C   UNL     1       2.579   2.848  21.471  0.00  0.00    +0.000 A 
ATOM     27  C   UNL     1       3.378   2.411  20.412  0.00  0.00    +0.000 A 
ENDBRANCH  21  22
ENDBRANCH  20  21
ENDBRANCH  19  20
ENDBRANCH  17  19
ENDBRANCH  16  17
ENDBRANCH  15  16
ENDBRANCH   8  15
TORSDOF 9
ENDMDL
MODEL 4
REMARK VINA RESULT:      -6.4      2.340      9.744
REMARK  Name = 
REMARK  11 active torsions:
REMARK  status: ('A' for Active; 'I' for Inactive)
REMARK    1  A    between atoms: C_1  and  C_2
REMARK    2  A    between atoms: C_2  and  C_3
REMARK    3  A    between atoms: C_3  and  N_4
REMARK    4  A    between atoms: C_11  and  C_12
REMARK    5  A    between atoms: C_12  and  C_13
REMARK    6  A    between atoms: C_13  and  N_14
REMARK    7  A    between atoms: N_14  and  C_15
REMARK    8  A    between atoms: N_14  and  C_16
REMARK    9  A    between atoms: C_16  and  C_17
REMARK   10  A    between atoms: C_17  and  C_18
REMARK   11  A    between atoms: C_18  and  C_19
REMARK                            x       y       z     vdW  Elec       q    Type
REMARK                         _______ _______ _______ _____ _____    ______ ____
ROOT
ATOM      1  N   UNL     1      -1.122  13.073  19.985  0.00  0.00    +0.000 NA
ATOM      2  C   UNL     1      -0.121  12.342  20.796  0.00  0.00    +0.000 C 
ATOM      3  C   UNL     1      -0.276  10.808  20.759  0.00  0.00    +0.000 C 
ATOM      4  N   UNL     1      -0.262  10.322  19.376  0.00  0.00    +0.000 N 
ATOM      5  C   UNL     1       0.705   9.483  18.919  0.00  0.00    +0.000 A 
ATOM      6  N   UNL     1       1.076   9.398  17.659  0.00  0.00    +0.000 NA
ATOM      7  C   UNL     1       2.057   8.441  17.493  0.00  0.00    +0.000 A 
ATOM      8  C   UNL     1       2.415   7.761  18.635  0.00  0.00    +0.000 A 
ATOM      9  S   UNL     1       1.526   8.364  19.957  0.00  0.00    +0.000 S 
ATOM     10  C   UNL     1      -1.110  11.044  18.418  0.00  0.00    +0.000 C 
ATOM     11  C   UNL     1      -0.985  12.579  18.587  0.00  0.00    +0.000 C 
ENDROOT
BRANCH   1  12
ATOM     12  C   UNL     1      -2.504  12.886  20.469  0.00  0.00    +0.000 C 
BRANCH  12  14
ATOM     13  C   UNL     1      -3.838  12.515  22.575  0.00  0.00    +0.000 C 
ATOM     14  C   UNL     1      -2.702  13.296  21.933  0.00  0.00    +0.000 C 
ENDBRANCH  12  14
ENDBRANCH   1  12
BRANCH   8  15
ATOM     15  C   UNL     1       3.367   6.625  18.823  0.00  0.00    +0.000 C 
BRANCH  15  16
ATOM     16  C   UNL     1       4.559   6.779  17.861  0.00  0.00    +0.000 C 
BRANCH  16  17
ATOM     17  N   UNL     1       4.780   5.633  16.957  0.00  0.00    +0.000 NA
ATOM     18  C   UNL     1       6.176   5.576  16.501  0.00  0.00    +0.000 C 
BRANCH  17  19
ATOM     19  C   UNL     1       4.448   4.359  17.628  0.00  0.00    +0.000 C 
BRANCH  19  20
ATOM     20  C   UNL     1       3.427   3.482  16.895  0.00  0.00    +0.000 C 
BRANCH  20  21
ATOM     21  C   UNL     1       3.007   2.249  17.700  0.00  0.00    +0.000 C 
BRANCH  21  22
ATOM     22  C   UNL     1       2.492   2.661  19.057  0.00  0.00    +0.000 A 
ATOM     23  C   UNL     1       3.218   2.347  20.213  0.00  0.00    +0.000 A 
ATOM     24  C   UNL     1       2.708   2.657  21.473  0.00  0.00    +0.000 A 
ATOM     25  C   UNL     1       1.467   3.283  21.586  0.00  0.00    +0.000 A 
ATOM     26  C   UNL     1       0.740   3.606  20.443  0.00  0.00    +0.000 A 
ATOM     27  C   UNL     1       1.250   3.296  19.180  0.00  0.00    +0.000 A 
ENDBRANCH  21  22
ENDBRANCH  20  21
ENDBRANCH  19  20
ENDBRANCH  17  19
ENDBRANCH  16  17
ENDBRANCH  15  16
ENDBRANCH   8  15
TORSDOF 9
ENDMDL
MODEL 5
REMARK VINA RESULT:      -6.4      2.319      9.597
REMARK  Name = 
REMARK  11 active torsions:
REMARK  status: ('A' for Active; 'I' for Inactive)
REMARK    1  A    between atoms: C_1  and  C_2
REMARK    2  A    between atoms: C_2  and  C_3
REMARK    3  A    between atoms: C_3  and  N_4
REMARK    4  A    between atoms: C_11  and  C_12
REMARK    5  A    between atoms: C_12  and  C_13
REMARK    6  A    between atoms: C_13  and  N_14
REMARK    7  A    between atoms: N_14  and  C_15
REMARK    8  A    between atoms: N_14  and  C_16
REMARK    9  A    between atoms: C_16  and  C_17
REMARK   10  A    between atoms: C_17  and  C_18
REMARK   11  A    between atoms: C_18  and  C_19
REMARK                            x       y       z     vdW  Elec       q    Type
REMARK                         _______ _______ _______ _____ _____    ______ ____
ROOT
ATOM      1  N   UNL     1      -0.224  12.034  20.443  0.00  0.00    +0.000 NA
ATOM      2  C   UNL     1       0.667  11.102  21.172  0.00  0.00    +0.000 C 
ATOM      3  C   UNL     1       0.518   9.625  20.752  0.00  0.00    +0.000 C 
ATOM      4  N   UNL     1       0.706   9.481  19.305  0.00  0.00    +0.000 N 
ATOM      5  C   UNL     1       1.724   8.746  18.783  0.00  0.00    +0.000 A 
ATOM      6  N   UNL     1       2.250   8.950  17.594  0.00  0.00    +0.000 NA
ATOM      7  C   UNL     1       3.245   8.031  17.327  0.00  0.00    +0.000 A 
ATOM      8  C   UNL     1       3.457   7.089  18.308  0.00  0.00    +0.000 A 
ATOM      9  S   UNL     1       2.408   7.388  19.616  0.00  0.00    +0.000 S 
ATOM     10  C   UNL     1      -0.015  10.434  18.450  0.00  0.00    +0.000 C 
ATOM     11  C   UNL     1       0.088  11.880  18.995  0.00  0.00    +0.000 C 
ENDROOT
BRANCH   1  12
ATOM     12  C   UNL     1      -1.656  11.779  20.695  0.00  0.00    +0.000 C 
BRANCH  12  14
ATOM     13  C   UNL     1      -2.186  12.245  23.115  0.00  0.00    +0.000 C 
ATOM     14  C   UNL     1      -2.288  12.761  21.688  0.00  0.00    +0.000 C 
ENDBRANCH  12  14
ENDBRANCH   1  12
BRANCH   8  15
ATOM     15  C   UNL     1       4.377   5.913  18.334  0.00  0.00    +0.000 C 
BRANCH  15  16
ATOM     16  C   UNL     1       5.342   5.980  17.137  0.00  0.00    +0.000 C 
BRANCH  16  17
ATOM     17  N   UNL     1       5.024   5.056  16.030  0.00  0.00    +0.000 NA
ATOM     18  C   UNL     1       5.997   5.179  14.936  0.00  0.00    +0.000 C 
BRANCH  17  19
ATOM     19  C   UNL     1       5.012   3.655  16.498  0.00  0.00    +0.000 C 
BRANCH  19  20
ATOM     20  C   UNL     1       3.626   3.084  16.817  0.00  0.00    +0.000 C 
BRANCH  20  21
ATOM     21  C   UNL     1       3.642   2.072  17.965  0.00  0.00    +0.000 C 
BRANCH  21  22
ATOM     22  C   UNL     1       2.787   2.563  19.108  0.00  0.00    +0.000 A 
ATOM     23  C   UNL     1       3.353   2.784  20.369  0.00  0.00    +0.000 A 
ATOM     24  C   UNL     1       2.554   3.163  21.446  0.00  0.00    +0.000 A 
ATOM     25  C   UNL     1       1.179   3.323  21.269  0.00  0.00    +0.000 A 
ATOM     26  C   UNL     1       0.607   3.112  20.017  0.00  0.00    +0.000 A 
ATOM     27  C   UNL     1       1.408   2.733  18.937  0.00  0.00    +0.000 A 
ENDBRANCH  21  22
ENDBRANCH  20  21
ENDBRANCH  19  20
ENDBRANCH  17  19
ENDBRANCH  16  17
ENDBRANCH  15  16
ENDBRANCH   8  15
TORSDOF 9
ENDMDL
MODEL 6
REMARK VINA RESULT:      -6.4      1.960     10.283
REMARK  Name = 
REMARK  11 active torsions:
REMARK  status: ('A' for Active; 'I' for Inactive)
REMARK    1  A    between atoms: C_1  and  C_2
REMARK    2  A    between atoms: C_2  and  C_3
REMARK    3  A    between atoms: C_3  and  N_4
REMARK    4  A    between atoms: C_11  and  C_12
REMARK    5  A    between atoms: C_12  and  C_13
REMARK    6  A    between atoms: C_13  and  N_14
REMARK    7  A    between atoms: N_14  and  C_15
REMARK    8  A    between atoms: N_14  and  C_16
REMARK    9  A    between atoms: C_16  and  C_17
REMARK   10  A    between atoms: C_17  and  C_18
REMARK   11  A    between atoms: C_18  and  C_19
REMARK                            x       y       z     vdW  Elec       q    Type
REMARK                         _______ _______ _______ _____ _____    ______ ____
ROOT
ATOM      1  N   UNL     1      -0.245  12.643  20.089  0.00  0.00    +0.000 NA
ATOM      2  C   UNL     1       0.479  11.775  21.046  0.00  0.00    +0.000 C 
ATOM      3  C   UNL     1       0.171  10.271  20.892  0.00  0.00    +0.000 C 
ATOM      4  N   UNL     1       0.424   9.833  19.516  0.00  0.00    +0.000 N 
ATOM      5  C   UNL     1       1.371   8.902  19.221  0.00  0.00    +0.000 A 
ATOM      6  N   UNL     1       1.987   8.815  18.062  0.00  0.00    +0.000 NA
ATOM      7  C   UNL     1       2.873   7.756  18.048  0.00  0.00    +0.000 A 
ATOM      8  C   UNL     1       2.908   7.002  19.198  0.00  0.00    +0.000 A 
ATOM      9  S   UNL     1       1.830   7.660  20.341  0.00  0.00    +0.000 S 
ATOM     10  C   UNL     1      -0.120  10.679  18.446  0.00  0.00    +0.000 C 
ATOM     11  C   UNL     1       0.130  12.183  18.724  0.00  0.00    +0.000 C 
ENDROOT
BRANCH   1  12
ATOM     12  C   UNL     1      -1.709  12.603  20.266  0.00  0.00    +0.000 C 
BRANCH  12  14
ATOM     13  C   UNL     1      -3.652  12.620  21.873  0.00  0.00    +0.000 C 
ATOM     14  C   UNL     1      -2.160  12.864  21.709  0.00  0.00    +0.000 C 
ENDBRANCH  12  14
ENDBRANCH   1  12
BRANCH   8  15
ATOM     15  C   UNL     1       3.671   5.757  19.514  0.00  0.00    +0.000 C 
BRANCH  15  16
ATOM     16  C   UNL     1       2.722   4.545  19.490  0.00  0.00    +0.000 C 
BRANCH  16  17
ATOM     17  N   UNL     1       2.615   3.865  18.184  0.00  0.00    +0.000 NA
ATOM     18  C   UNL     1       1.293   4.078  17.579  0.00  0.00    +0.000 C 
BRANCH  17  19
ATOM     19  C   UNL     1       3.649   4.353  17.248  0.00  0.00    +0.000 C 
BRANCH  19  20
ATOM     20  C   UNL     1       4.669   3.302  16.796  0.00  0.00    +0.000 C 
BRANCH  20  21
ATOM     21  C   UNL     1       5.825   3.895  15.987  0.00  0.00    +0.000 C 
BRANCH  21  22
ATOM     22  C   UNL     1       6.557   4.932  16.803  0.00  0.00    +0.000 A 
ATOM     23  C   UNL     1       7.292   4.551  17.933  0.00  0.00    +0.000 A 
ATOM     24  C   UNL     1       7.906   5.513  18.734  0.00  0.00    +0.000 A 
ATOM     25  C   UNL     1       7.786   6.865  18.411  0.00  0.00    +0.000 A 
ATOM     26  C   UNL     1       7.064   7.254  17.286  0.00  0.00    +0.000 A 
ATOM     27  C   UNL     1       6.449   6.291  16.483  0.00  0.00    +0.000 A 
ENDBRANCH  21  22
ENDBRANCH  20  21
ENDBRANCH  19  20
ENDBRANCH  17  19
ENDBRANCH  16  17
ENDBRANCH  15  16
ENDBRANCH   8  15
TORSDOF 9
ENDMDL
MODEL 7
REMARK VINA RESULT:      -6.4      7.117     10.665
REMARK  Name = 
REMARK  11 active torsions:
REMARK  status: ('A' for Active; 'I' for Inactive)
REMARK    1  A    between atoms: C_1  and  C_2
REMARK    2  A    between atoms: C_2  and  C_3
REMARK    3  A    between atoms: C_3  and  N_4
REMARK    4  A    between atoms: C_11  and  C_12
REMARK    5  A    between atoms: C_12  and  C_13
REMARK    6  A    between atoms: C_13  and  N_14
REMARK    7  A    between atoms: N_14  and  C_15
REMARK    8  A    between atoms: N_14  and  C_16
REMARK    9  A    between atoms: C_16  and  C_17
REMARK   10  A    between atoms: C_17  and  C_18
REMARK   11  A    between atoms: C_18  and  C_19
REMARK                            x       y       z     vdW  Elec       q    Type
REMARK                         _______ _______ _______ _____ _____    ______ ____
ROOT
ATOM      1  N   UNL     1       1.483   3.163  17.955  0.00  0.00    +0.000 NA
ATOM      2  C   UNL     1       1.844   4.521  18.423  0.00  0.00    +0.000 C 
ATOM      3  C   UNL     1       3.128   4.574  19.277  0.00  0.00    +0.000 C 
ATOM      4  N   UNL     1       4.252   3.971  18.553  0.00  0.00    +0.000 N 
ATOM      5  C   UNL     1       5.351   4.691  18.205  0.00  0.00    +0.000 A 
ATOM      6  N   UNL     1       6.133   4.402  17.187  0.00  0.00    +0.000 NA
ATOM      7  C   UNL     1       7.184   5.292  17.098  0.00  0.00    +0.000 A 
ATOM      8  C   UNL     1       7.227   6.253  18.082  0.00  0.00    +0.000 A 
ATOM      9  S   UNL     1       5.893   6.058  19.123  0.00  0.00    +0.000 S 
ATOM     10  C   UNL     1       3.999   2.674  17.912  0.00  0.00    +0.000 C 
ATOM     11  C   UNL     1       2.641   2.659  17.167  0.00  0.00    +0.000 C 
ENDROOT
BRANCH   1  12
ATOM     12  C   UNL     1       1.165   2.236  19.059  0.00  0.00    +0.000 C 
BRANCH  12  14
ATOM     13  C   UNL     1       1.500   2.518  21.542  0.00  0.00    +0.000 C 
ATOM     14  C   UNL     1       0.682   2.942  20.332  0.00  0.00    +0.000 C 
ENDBRANCH  12  14
ENDBRANCH   1  12
BRANCH   8  15
ATOM     15  C   UNL     1       8.241   7.316  18.350  0.00  0.00    +0.000 C 
BRANCH  15  16
ATOM     16  C   UNL     1       7.879   8.591  17.567  0.00  0.00    +0.000 C 
BRANCH  16  17
ATOM     17  N   UNL     1       8.673   9.785  17.921  0.00  0.00    +0.000 NA
ATOM     18  C   UNL     1       7.879  11.013  17.786  0.00  0.00    +0.000 C 
BRANCH  17  19
ATOM     19  C   UNL     1       9.172   9.694  19.309  0.00  0.00    +0.000 C 
BRANCH  19  20
ATOM     20  C   UNL     1       9.376  11.037  20.019  0.00  0.00    +0.000 C 
BRANCH  20  21
ATOM     21  C   UNL     1      10.851  11.379  20.247  0.00  0.00    +0.000 C 
BRANCH  21  22
ATOM     22  C   UNL     1      11.302  12.428  19.260  0.00  0.00    +0.000 A 
ATOM     23  C   UNL     1      11.568  12.079  17.931  0.00  0.00    +0.000 A 
ATOM     24  C   UNL     1      12.060  13.029  17.036  0.00  0.00    +0.000 A 
ATOM     25  C   UNL     1      12.290  14.335  17.467  0.00  0.00    +0.000 A 
ATOM     26  C   UNL     1      12.022  14.694  18.785  0.00  0.00    +0.000 A 
ATOM     27  C   UNL     1      11.530  13.744  19.681  0.00  0.00    +0.000 A 
ENDBRANCH  21  22
ENDBRANCH  20  21
ENDBRANCH  19  20
ENDBRANCH  17  19
ENDBRANCH  16  17
ENDBRANCH  15  16
ENDBRANCH   8  15
TORSDOF 9
ENDMDL
MODEL 8
REMARK VINA RESULT:      -6.3      2.693      9.697
REMARK  Name = 
REMARK  11 active torsions:
REMARK  status: ('A' for Active; 'I' for Inactive)
REMARK    1  A    between atoms: C_1  and  C_2
REMARK    2  A    between atoms: C_2  and  C_3
REMARK    3  A    between atoms: C_3  and  N_4
REMARK    4  A    between atoms: C_11  and  C_12
REMARK    5  A    between atoms: C_12  and  C_13
REMARK    6  A    between atoms: C_13  and  N_14
REMARK    7  A    between atoms: N_14  and  C_15
REMARK    8  A    between atoms: N_14  and  C_16
REMARK    9  A    between atoms: C_16  and  C_17
REMARK   10  A    between atoms: C_17  and  C_18
REMARK   11  A    between atoms: C_18  and  C_19
REMARK                            x       y       z     vdW  Elec       q    Type
REMARK                         _______ _______ _______ _____ _____    ______ ____
ROOT
ATOM      1  N   UNL     1      -1.008  12.689  20.291  0.00  0.00    +0.000 NA
ATOM      2  C   UNL     1      -0.903  11.973  18.998  0.00  0.00    +0.000 C 
ATOM      3  C   UNL     1       0.526  11.513  18.644  0.00  0.00    +0.000 C 
ATOM      4  N   UNL     1       1.084  10.694  19.725  0.00  0.00    +0.000 N 
ATOM      5  C   UNL     1       1.425   9.392  19.536  0.00  0.00    +0.000 A 
ATOM      6  N   UNL     1       1.455   8.488  20.493  0.00  0.00    +0.000 NA
ATOM      7  C   UNL     1       1.864   7.263  20.008  0.00  0.00    +0.000 A 
ATOM      8  C   UNL     1       2.187   7.237  18.670  0.00  0.00    +0.000 A 
ATOM      9  S   UNL     1       1.933   8.780  17.996  0.00  0.00    +0.000 S 
ATOM     10  C   UNL     1       0.932  11.215  21.090  0.00  0.00    +0.000 C 
ATOM     11  C   UNL     1      -0.497  11.761  21.337  0.00  0.00    +0.000 C 
ENDROOT
BRANCH   1  12
ATOM     12  C   UNL     1      -0.255  13.958  20.311  0.00  0.00    +0.000 C 
BRANCH  12  14
ATOM     13  C   UNL     1      -1.902  15.820  20.727  0.00  0.00    +0.000 C 
ATOM     14  C   UNL     1      -1.021  15.135  19.694  0.00  0.00    +0.000 C 
ENDBRANCH  12  14
ENDBRANCH   1  12
BRANCH   8  15
ATOM     15  C   UNL     1       2.734   6.129  17.830  0.00  0.00    +0.000 C 
BRANCH  15  16
ATOM     16  C   UNL     1       4.258   6.287  17.688  0.00  0.00    +0.000 C 
BRANCH  16  17
ATOM     17  N   UNL     1       4.902   5.314  16.783  0.00  0.00    +0.000 NA
ATOM     18  C   UNL     1       5.933   5.957  15.957  0.00  0.00    +0.000 C 
BRANCH  17  19
ATOM     19  C   UNL     1       5.526   4.214  17.548  0.00  0.00    +0.000 C 
BRANCH  19  20
ATOM     20  C   UNL     1       5.283   4.252  19.061  0.00  0.00    +0.000 C 
BRANCH  20  21
ATOM     21  C   UNL     1       4.705   2.945  19.610  0.00  0.00    +0.000 C 
BRANCH  21  22
ATOM     22  C   UNL     1       3.197   3.001  19.616  0.00  0.00    +0.000 A 
ATOM     23  C   UNL     1       2.518   3.619  20.672  0.00  0.00    +0.000 A 
ATOM     24  C   UNL     1       1.125   3.606  20.721  0.00  0.00    +0.000 A 
ATOM     25  C   UNL     1       0.400   2.971  19.712  0.00  0.00    +0.000 A 
ATOM     26  C   UNL     1       1.066   2.359  18.653  0.00  0.00    +0.000 A 
ATOM     27  C   UNL     1       2.461   2.373  18.604  0.00  0.00    +0.000 A 
ENDBRANCH  21  22
ENDBRANCH  20  21
ENDBRANCH  19  20
ENDBRANCH  17  19
ENDBRANCH  16  17
ENDBRANCH  15  16
ENDBRANCH   8  15
TORSDOF 9
ENDMDL
MODEL 9
REMARK VINA RESULT:      -6.3      3.665      4.932
REMARK  Name = 
REMARK  11 active torsions:
REMARK  status: ('A' for Active; 'I' for Inactive)
REMARK    1  A    between atoms: C_1  and  C_2
REMARK    2  A    between atoms: C_2  and  C_3
REMARK    3  A    between atoms: C_3  and  N_4
REMARK    4  A    between atoms: C_11  and  C_12
REMARK    5  A    between atoms: C_12  and  C_13
REMARK    6  A    between atoms: C_13  and  N_14
REMARK    7  A    between atoms: N_14  and  C_15
REMARK    8  A    between atoms: N_14  and  C_16
REMARK    9  A    between atoms: C_16  and  C_17
REMARK   10  A    between atoms: C_17  and  C_18
REMARK   11  A    between atoms: C_18  and  C_19
REMARK                            x       y       z     vdW  Elec       q    Type
REMARK                         _______ _______ _______ _____ _____    ______ ____
ROOT
ATOM      1  N   UNL     1       6.358   5.495  17.812  0.00  0.00    +0.000 NA
ATOM      2  C   UNL     1       5.963   6.834  17.318  0.00  0.00    +0.000 C 
ATOM      3  C   UNL     1       4.471   6.956  16.945  0.00  0.00    +0.000 C 
ATOM      4  N   UNL     1       3.625   6.562  18.076  0.00  0.00    +0.000 N 
ATOM      5  C   UNL     1       2.774   7.436  18.675  0.00  0.00    +0.000 A 
ATOM      6  N   UNL     1       2.374   7.341  19.925  0.00  0.00    +0.000 NA
ATOM      7  C   UNL     1       1.491   8.353  20.244  0.00  0.00    +0.000 A 
ATOM      8  C   UNL     1       1.184   9.213  19.214  0.00  0.00    +0.000 A 
ATOM      9  S   UNL     1       2.055   8.763  17.821  0.00  0.00    +0.000 S 
ATOM     10  C   UNL     1       3.983   5.312  18.760  0.00  0.00    +0.000 C 
ATOM     11  C   UNL     1       5.509   5.209  19.002  0.00  0.00    +0.000 C 
ENDROOT
BRANCH   1  12
ATOM     12  C   UNL     1       6.200   4.435  16.796  0.00  0.00    +0.000 C 
BRANCH  12  14
ATOM     13  C   UNL     1       6.108   4.067  14.304  0.00  0.00    +0.000 C 
ATOM     14  C   UNL     1       6.817   4.791  15.438  0.00  0.00    +0.000 C 
ENDBRANCH  12  14
ENDBRANCH   1  12
BRANCH   8  15
ATOM     15  C   UNL     1       0.226  10.357  19.165  0.00  0.00    +0.000 C 
BRANCH  15  16
ATOM     16  C   UNL     1       0.959  11.633  18.713  0.00  0.00    +0.000 C 
BRANCH  16  17
ATOM     17  N   UNL     1       0.859  12.772  19.647  0.00  0.00    +0.000 NA
ATOM     18  C   UNL     1       0.441  12.329  20.984  0.00  0.00    +0.000 C 
BRANCH  17  19
ATOM     19  C   UNL     1       2.155  13.473  19.764  0.00  0.00    +0.000 C 
BRANCH  19  20
ATOM     20  C   UNL     1       2.250  14.802  19.005  0.00  0.00    +0.000 C 
BRANCH  20  21
ATOM     21  C   UNL     1       1.558  15.958  19.730  0.00  0.00    +0.000 C 
BRANCH  21  22
ATOM     22  C   UNL     1       0.931  16.901  18.733  0.00  0.00    +0.000 A 
ATOM     23  C   UNL     1      -0.461  17.044  18.674  0.00  0.00    +0.000 A 
ATOM     24  C   UNL     1      -1.048  17.854  17.703  0.00  0.00    +0.000 A 
ATOM     25  C   UNL     1      -0.245  18.527  16.783  0.00  0.00    +0.000 A 
ATOM     26  C   UNL     1       1.140  18.398  16.837  0.00  0.00    +0.000 A 
ATOM     27  C   UNL     1       1.729  17.587  17.809  0.00  0.00    +0.000 A 
ENDBRANCH  21  22
ENDBRANCH  20  21
ENDBRANCH  19  20
ENDBRANCH  17  19
ENDBRANCH  16  17
ENDBRANCH  15  16
ENDBRANCH   8  15
TORSDOF 9
ENDMDL
