MODEL 1
REMARK VINA RESULT:      -6.6      0.000      0.000
REMARK  Name = 
REMARK  10 active torsions:
REMARK  status: ('A' for Active; 'I' for Inactive)
REMARK    1  A    between atoms: C_1  and  O_2
REMARK    2  A    between atoms: O_2  and  C_3
REMARK    3  A    between atoms: C_9  and  N_10
REMARK    4  A    between atoms: N_10  and  S_11
REMARK    5  A    between atoms: S_11  and  C_14
REMARK    6  A    between atoms: C_17  and  O_18
REMARK    7  A    between atoms: O_18  and  C_19
REMARK    8  A    between atoms: C_24  and  N_25
REMARK    9  A    between atoms: N_25  and  C_26
REMARK   10  A    between atoms: N_25  and  C_27
REMARK                            x       y       z     vdW  Elec       q    Type
REMARK                         _______ _______ _______ _____ _____    ______ ____
ROOT
ATOM      1  C   UNL     1       1.421   9.001  19.721  0.00  0.00    +0.000 A 
ATOM      2  C   UNL     1       1.191   8.303  20.908  0.00  0.00    +0.000 A 
ATOM      3  C   UNL     1       0.628   8.953  21.996  0.00  0.00    +0.000 A 
ATOM      4  C   UNL     1       0.310  10.320  21.966  0.00  0.00    +0.000 A 
ATOM      5  C   UNL     1       0.577  11.064  20.796  0.00  0.00    +0.000 A 
ATOM      6  C   UNL     1       1.099  10.383  19.639  0.00  0.00    +0.000 A 
ATOM      7  C   UNL     1       1.344  11.146  18.348  0.00  0.00    +0.000 C 
ATOM      8  C   UNL     1       0.782  12.564  18.302  0.00  0.00    +0.000 C 
ATOM      9  C   UNL     1       1.101  13.310  19.602  0.00  0.00    +0.000 C 
ATOM     10  C   UNL     1       0.298  12.555  20.690  0.00  0.00    +0.000 C 
ENDROOT
BRANCH   1  11
ATOM     11  S   UNL     1       2.246   8.071  18.414  0.00  0.00    +0.000 S 
ATOM     12  O   UNL     1       3.318   8.896  17.900  0.00  0.00    +0.000 OA
ATOM     13  O   UNL     1       1.249   7.537  17.509  0.00  0.00    +0.000 OA
BRANCH  11  14
ATOM     14  N   UNL     1       2.923   6.742  19.205  0.00  0.00    +0.000 N 
ATOM     15  H   UNL     1       3.827   6.979  19.611  0.00  0.00    +0.000 HD
BRANCH  14  22
ATOM     16  C   UNL     1       3.887   5.069  17.686  0.00  0.00    +0.000 A 
ATOM     17  C   UNL     1       3.864   3.782  17.143  0.00  0.00    +0.000 A 
ATOM     18  C   UNL     1       2.827   2.901  17.465  0.00  0.00    +0.000 A 
ATOM     19  C   UNL     1       1.806   3.312  18.321  0.00  0.00    +0.000 A 
ATOM     20 CL   UNL     1       0.542   2.213  18.718  0.00  0.00    +0.000 Cl
ATOM     21  C   UNL     1       1.818   4.591  18.874  0.00  0.00    +0.000 A 
ATOM     22  C   UNL     1       2.874   5.456  18.577  0.00  0.00    +0.000 A 
BRANCH  16  24
ATOM     23  C   UNL     1       5.125   6.265  16.063  0.00  0.00    +0.000 C 
ATOM     24  O   UNL     1       4.869   5.997  17.439  0.00  0.00    +0.000 OA
ENDBRANCH  16  24
ENDBRANCH  14  22
ENDBRANCH  11  14
ENDBRANCH   1  11
BRANCH   9  25
ATOM     25  N   UNL     1       2.558  13.418  19.893  0.00  0.00    +0.000 NA
ATOM     26  C   UNL     1       2.835  14.026  21.199  0.00  0.00    +0.000 C 
ATOM     27  C   UNL     1       3.290  14.162  18.862  0.00  0.00    +0.000 C 
ENDBRANCH   9  25
BRANCH   4  28
ATOM     28  O   UNL     1      -0.244  10.679  23.162  0.00  0.00    +0.000 OA
ATOM     29  C   UNL     1      -1.558  11.176  23.298  0.00  0.00    +0.000 C 
ENDBRANCH   4  28
TORSDOF 6
ENDMDL
MODEL 2
REMARK VINA RESULT:      -6.3      1.213      1.244
REMARK  Name = 
REMARK  10 active torsions:
REMARK  status: ('A' for Active; 'I' for Inactive)
REMARK    1  A    between atoms: C_1  and  O_2
REMARK    2  A    between atoms: O_2  and  C_3
REMARK    3  A    between atoms: C_9  and  N_10
REMARK    4  A    between atoms: N_10  and  S_11
REMARK    5  A    between atoms: S_11  and  C_14
REMARK    6  A    between atoms: C_17  and  O_18
REMARK    7  A    between atoms: O_18  and  C_19
REMARK    8  A    between atoms: C_24  and  N_25
REMARK    9  A    between atoms: N_25  and  C_26
REMARK   10  A    between atoms: N_25  and  C_27
REMARK                            x       y       z     vdW  Elec       q    Type
REMARK                         _______ _______ _______ _____ _____    ______ ____
ROOT
ATOM      1  C   UNL     1       1.536   8.590  19.916  0.00  0.00    +0.000 A 
ATOM      2  C   UNL     1       1.361   8.029  21.183  0.00  0.00    +0.000 A 
ATOM      3  C   UNL     1       0.760   8.769  22.191  0.00  0.00    +0.000 A 
ATOM      4  C   UNL     1       0.349  10.097  21.998  0.00  0.00    +0.000 A 
ATOM      5  C   UNL     1       0.558  10.708  20.742  0.00  0.00    +0.000 A 
ATOM      6  C   UNL     1       1.120   9.926  19.669  0.00  0.00    +0.000 A 
ATOM      7  C   UNL     1       1.305  10.540  18.292  0.00  0.00    +0.000 C 
ATOM      8  C   UNL     1       0.646  11.900  18.080  0.00  0.00    +0.000 C 
ATOM      9  C   UNL     1       0.920  12.821  19.275  0.00  0.00    +0.000 C 
ATOM     10  C   UNL     1       0.176  12.152  20.459  0.00  0.00    +0.000 C 
ENDROOT
BRANCH   1  11
ATOM     11  S   UNL     1       2.416   7.564  18.721  0.00  0.00    +0.000 S 
ATOM     12  O   UNL     1       3.203   8.445  17.884  0.00  0.00    +0.000 OA
ATOM     13  O   UNL     1       1.486   6.635  18.116  0.00  0.00    +0.000 OA
BRANCH  11  14
ATOM     14  N   UNL     1       3.469   6.634  19.658  0.00  0.00    +0.000 N 
ATOM     15  H   UNL     1       4.427   6.971  19.577  0.00  0.00    +0.000 HD
BRANCH  14  22
ATOM     16  C   UNL     1       4.074   4.442  18.729  0.00  0.00    +0.000 A 
ATOM     17  C   UNL     1       3.993   3.048  18.784  0.00  0.00    +0.000 A 
ATOM     18  C   UNL     1       3.167   2.428  19.727  0.00  0.00    +0.000 A 
ATOM     19  C   UNL     1       2.411   3.202  20.606  0.00  0.00    +0.000 A 
ATOM     20 CL   UNL     1       1.407   2.425  21.767  0.00  0.00    +0.000 Cl
ATOM     21  C   UNL     1       2.485   4.592  20.566  0.00  0.00    +0.000 A 
ATOM     22  C   UNL     1       3.338   5.208  19.647  0.00  0.00    +0.000 A 
BRANCH  16  24
ATOM     23  C   UNL     1       6.102   4.513  17.514  0.00  0.00    +0.000 C 
ATOM     24  O   UNL     1       4.866   5.138  17.850  0.00  0.00    +0.000 OA
ENDBRANCH  16  24
ENDBRANCH  14  22
ENDBRANCH  11  14
ENDBRANCH   1  11
BRANCH   9  25
ATOM     25  N   UNL     1       2.367  13.062  19.530  0.00  0.00    +0.000 NA
ATOM     26  C   UNL     1       2.615  13.743  20.806  0.00  0.00    +0.000 C 
ATOM     27  C   UNL     1       3.016  13.822  18.457  0.00  0.00    +0.000 C 
ENDBRANCH   9  25
BRANCH   4  28
ATOM     28  O   UNL     1      -0.222  10.562  23.148  0.00  0.00    +0.000 OA
ATOM     29  C   UNL     1      -1.503  11.151  23.203  0.00  0.00    +0.000 C 
ENDBRANCH   4  28
TORSDOF 6
ENDMDL
MODEL 3
REMARK VINA RESULT:      -6.3      2.952      8.068
REMARK  Name = 
REMARK  10 active torsions:
REMARK  status: ('A' for Active; 'I' for Inactive)
REMARK    1  A    between atoms: C_1  and  O_2
REMARK    2  A    between atoms: O_2  and  C_3
REMARK    3  A    between atoms: C_9  and  N_10
REMARK    4  A    between atoms: N_10  and  S_11
REMARK    5  A    between atoms: S_11  and  C_14
REMARK    6  A    between atoms: C_17  and  O_18
REMARK    7  A    between atoms: O_18  and  C_19
REMARK    8  A    between atoms: C_24  and  N_25
REMARK    9  A    between atoms: N_25  and  C_26
REMARK   10  A    between atoms: N_25  and  C_27
REMARK                            x       y       z     vdW  Elec       q    Type
REMARK                         _______ _______ _______ _____ _____    ______ ____
ROOT
ATOM      1  C   UNL     1       2.054   7.245  19.449  0.00  0.00    +0.000 A 
ATOM      2  C   UNL     1       2.932   7.951  18.624  0.00  0.00    +0.000 A 
ATOM      3  C   UNL     1       3.665   7.280  17.657  0.00  0.00    +0.000 A 
ATOM      4  C   UNL     1       3.590   5.887  17.496  0.00  0.00    +0.000 A 
ATOM      5  C   UNL     1       2.748   5.140  18.349  0.00  0.00    +0.000 A 
ATOM      6  C   UNL     1       1.932   5.836  19.311  0.00  0.00    +0.000 A 
ATOM      7  C   UNL     1       0.976   5.063  20.204  0.00  0.00    +0.000 C 
ATOM      8  C   UNL     1       0.774   3.595  19.841  0.00  0.00    +0.000 C 
ATOM      9  C   UNL     1       2.121   2.924  19.550  0.00  0.00    +0.000 C 
ATOM     10  C   UNL     1       2.635   3.626  18.268  0.00  0.00    +0.000 C 
ENDROOT
BRANCH   1  11
ATOM     11  S   UNL     1       1.231   8.215  20.728  0.00  0.00    +0.000 S 
ATOM     12  O   UNL     1       2.070   8.185  21.907  0.00  0.00    +0.000 OA
ATOM     13  O   UNL     1      -0.154   7.805  20.819  0.00  0.00    +0.000 OA
BRANCH  11  14
ATOM     14  N   UNL     1       1.217   9.790  20.120  0.00  0.00    +0.000 N 
ATOM     15  H   UNL     1       1.790  10.409  20.692  0.00  0.00    +0.000 HD
BRANCH  14  22
ATOM     16  C   UNL     1      -0.736  11.219  20.540  0.00  0.00    +0.000 A 
ATOM     17  C   UNL     1      -1.904  11.828  20.073  0.00  0.00    +0.000 A 
ATOM     18  C   UNL     1      -2.368  11.561  18.781  0.00  0.00    +0.000 A 
ATOM     19  C   UNL     1      -1.671  10.676  17.961  0.00  0.00    +0.000 A 
ATOM     20 CL   UNL     1      -2.249  10.366  16.370  0.00  0.00    +0.000 Cl
ATOM     21  C   UNL     1      -0.503  10.065  18.410  0.00  0.00    +0.000 A 
ATOM     22  C   UNL     1      -0.023  10.360  19.689  0.00  0.00    +0.000 A 
BRANCH  16  24
ATOM     23  C   UNL     1      -0.909  10.837  22.868  0.00  0.00    +0.000 C 
ATOM     24  O   UNL     1      -0.196  11.430  21.785  0.00  0.00    +0.000 OA
ENDBRANCH  16  24
ENDBRANCH  14  22
ENDBRANCH  11  14
ENDBRANCH   1  11
BRANCH   9  25
ATOM     25  N   UNL     1       3.078   2.974  20.690  0.00  0.00    +0.000 NA
ATOM     26  C   UNL     1       4.347   2.298  20.400  0.00  0.00    +0.000 C 
ATOM     27  C   UNL     1       2.520   2.416  21.926  0.00  0.00    +0.000 C 
ENDBRANCH   9  25
BRANCH   4  28
ATOM     28  O   UNL     1       4.401   5.510  16.464  0.00  0.00    +0.000 OA
ATOM     29  C   UNL     1       5.244   6.401  15.766  0.00  0.00    +0.000 C 
ENDBRANCH   4  28
TORSDOF 6
ENDMDL
MODEL 4
REMARK VINA RESULT:      -6.3      1.641      2.243
REMARK  Name = 
REMARK  10 active torsions:
REMARK  status: ('A' for Active; 'I' for Inactive)
REMARK    1  A    between atoms: C_1  and  O_2
REMARK    2  A    between atoms: O_2  and  C_3
REMARK    3  A    between atoms: C_9  and  N_10
REMARK    4  A    between atoms: N_10  and  S_11
REMARK    5  A    between atoms: S_11  and  C_14
REMARK    6  A    between atoms: C_17  and  O_18
REMARK    7  A    between atoms: O_18  and  C_19
REMARK    8  A    between atoms: C_24  and  N_25
REMARK    9  A    between atoms: N_25  and  C_26
REMARK   10  A    between atoms: N_25  and  C_27
REMARK                            x       y       z     vdW  Elec       q    Type
REMARK                         _______ _______ _______ _____ _____    ______ ____
ROOT
ATOM      1  C   UNL     1       1.309   9.111  19.724  0.00  0.00    +0.000 A 
ATOM      2  C   UNL     1       1.052   8.395  20.894  0.00  0.00    +0.000 A 
ATOM      3  C   UNL     1       0.497   9.036  21.992  0.00  0.00    +0.000 A 
ATOM      4  C   UNL     1       0.213  10.411  21.988  0.00  0.00    +0.000 A 
ATOM      5  C   UNL     1       0.508  11.172  20.836  0.00  0.00    +0.000 A 
ATOM      6  C   UNL     1       1.022  10.502  19.668  0.00  0.00    +0.000 A 
ATOM      7  C   UNL     1       1.296  11.286  18.395  0.00  0.00    +0.000 C 
ATOM      8  C   UNL     1       0.770  12.718  18.375  0.00  0.00    +0.000 C 
ATOM      9  C   UNL     1       1.098  13.429  19.692  0.00  0.00    +0.000 C 
ATOM     10  C   UNL     1       0.267  12.671  20.759  0.00  0.00    +0.000 C 
ENDROOT
BRANCH   1  11
ATOM     11  S   UNL     1       2.120   8.188  18.403  0.00  0.00    +0.000 S 
ATOM     12  O   UNL     1       3.240   8.979  17.941  0.00  0.00    +0.000 OA
ATOM     13  O   UNL     1       1.122   7.732  17.459  0.00  0.00    +0.000 OA
BRANCH  11  14
ATOM     14  N   UNL     1       2.719   6.804  19.163  0.00  0.00    +0.000 N 
ATOM     15  H   UNL     1       3.201   7.040  20.029  0.00  0.00    +0.000 HD
BRANCH  14  22
ATOM     16  C   UNL     1       2.701   4.612  18.054  0.00  0.00    +0.000 A 
ATOM     17  C   UNL     1       3.324   3.680  17.220  0.00  0.00    +0.000 A 
ATOM     18  C   UNL     1       4.612   3.923  16.733  0.00  0.00    +0.000 A 
ATOM     19  C   UNL     1       5.282   5.093  17.092  0.00  0.00    +0.000 A 
ATOM     20 CL   UNL     1       6.862   5.383  16.476  0.00  0.00    +0.000 Cl
ATOM     21  C   UNL     1       4.671   6.032  17.918  0.00  0.00    +0.000 A 
ATOM     22  C   UNL     1       3.371   5.802  18.375  0.00  0.00    +0.000 A 
BRANCH  16  24
ATOM     23  C   UNL     1       1.195   3.247  19.266  0.00  0.00    +0.000 C 
ATOM     24  O   UNL     1       1.436   4.467  18.569  0.00  0.00    +0.000 OA
ENDBRANCH  16  24
ENDBRANCH  14  22
ENDBRANCH  11  14
ENDBRANCH   1  11
BRANCH   9  25
ATOM     25  N   UNL     1       2.554  13.494  19.996  0.00  0.00    +0.000 NA
ATOM     26  C   UNL     1       2.839  14.115  21.295  0.00  0.00    +0.000 C 
ATOM     27  C   UNL     1       3.320  14.195  18.961  0.00  0.00    +0.000 C 
ENDBRANCH   9  25
BRANCH   4  28
ATOM     28  O   UNL     1      -0.340  10.759  23.187  0.00  0.00    +0.000 OA
ATOM     29  C   UNL     1      -1.645  11.279  23.324  0.00  0.00    +0.000 C 
ENDBRANCH   4  28
TORSDOF 6
ENDMDL
MODEL 5
REMARK VINA RESULT:      -6.2      2.478      3.796
REMARK  Name = 
REMARK  10 active torsions:
REMARK  status: ('A' for Active; 'I' for Inactive)
REMARK    1  A    between atoms: C_1  and  O_2
REMARK    2  A    between atoms: O_2  and  C_3
REMARK    3  A    between atoms: C_9  and  N_10
REMARK    4  A    between atoms: N_10  and  S_11
REMARK    5  A    between atoms: S_11  and  C_14
REMARK    6  A    between atoms: C_17  and  O_18
REMARK    7  A    between atoms: O_18  and  C_19
REMARK    8  A    between atoms: C_24  and  N_25
REMARK    9  A    between atoms: N_25  and  C_26
REMARK   10  A    between atoms: N_25  and  C_27
REMARK                            x       y       z     vdW  Elec       q    Type
REMARK                         _______ _______ _______ _____ _____    ______ ____
ROOT
ATOM      1  C   UNL     1      -0.280  10.055  20.201  0.00  0.00    +0.000 A 
ATOM      2  C   UNL     1      -1.311   9.480  19.455  0.00  0.00    +0.000 A 
ATOM      3  C   UNL     1      -1.858  10.169  18.382  0.00  0.00    +0.000 A 
ATOM      4  C   UNL     1      -1.436  11.461  18.033  0.00  0.00    +0.000 A 
ATOM      5  C   UNL     1      -0.429  12.089  18.799  0.00  0.00    +0.000 A 
ATOM      6  C   UNL     1       0.191  11.355  19.873  0.00  0.00    +0.000 A 
ATOM      7  C   UNL     1       1.315  11.984  20.679  0.00  0.00    +0.000 C 
ATOM      8  C   UNL     1       1.877  13.288  20.123  0.00  0.00    +0.000 C 
ATOM      9  C   UNL     1       0.740  14.226  19.701  0.00  0.00    +0.000 C 
ATOM     10  C   UNL     1       0.060  13.499  18.513  0.00  0.00    +0.000 C 
ENDROOT
BRANCH   1  11
ATOM     11  S   UNL     1       0.278   9.102  21.628  0.00  0.00    +0.000 S 
ATOM     12  O   UNL     1      -0.632   7.990  21.795  0.00  0.00    +0.000 OA
ATOM     13  O   UNL     1       0.526  10.004  22.733  0.00  0.00    +0.000 OA
BRANCH  11  14
ATOM     14  N   UNL     1       1.786   8.498  21.166  0.00  0.00    +0.000 N 
ATOM     15  H   UNL     1       2.400   9.247  20.849  0.00  0.00    +0.000 HD
BRANCH  14  22
ATOM     16  C   UNL     1       2.294   7.364  19.047  0.00  0.00    +0.000 A 
ATOM     17  C   UNL     1       2.422   6.180  18.317  0.00  0.00    +0.000 A 
ATOM     18  C   UNL     1       2.084   4.954  18.899  0.00  0.00    +0.000 A 
ATOM     19  C   UNL     1       1.606   4.915  20.209  0.00  0.00    +0.000 A 
ATOM     20 CL   UNL     1       1.205   3.398  20.916  0.00  0.00    +0.000 Cl
ATOM     21  C   UNL     1       1.478   6.087  20.951  0.00  0.00    +0.000 A 
ATOM     22  C   UNL     1       1.848   7.305  20.377  0.00  0.00    +0.000 A 
BRANCH  16  24
ATOM     23  C   UNL     1       1.788   9.085  17.505  0.00  0.00    +0.000 C 
ATOM     24  O   UNL     1       2.613   8.610  18.566  0.00  0.00    +0.000 OA
ENDBRANCH  16  24
ENDBRANCH  14  22
ENDBRANCH  11  14
ENDBRANCH   1  11
BRANCH   9  25
ATOM     25  N   UNL     1      -0.193  14.578  20.806  0.00  0.00    +0.000 NA
ATOM     26  C   UNL     1      -1.362  15.336  20.346  0.00  0.00    +0.000 C 
ATOM     27  C   UNL     1       0.460  15.328  21.884  0.00  0.00    +0.000 C 
ENDBRANCH   9  25
BRANCH   4  28
ATOM     28  O   UNL     1      -2.131  11.879  16.933  0.00  0.00    +0.000 OA
ATOM     29  C   UNL     1      -2.684  11.000  15.978  0.00  0.00    +0.000 C 
ENDBRANCH   4  28
TORSDOF 6
ENDMDL
MODEL 6
REMARK VINA RESULT:      -6.2      2.727      4.216
REMARK  Name = 
REMARK  10 active torsions:
REMARK  status: ('A' for Active; 'I' for Inactive)
REMARK    1  A    between atoms: C_1  and  O_2
REMARK    2  A    between atoms: O_2  and  C_3
REMARK    3  A    between atoms: C_9  and  N_10
REMARK    4  A    between atoms: N_10  and  S_11
REMARK    5  A    between atoms: S_11  and  C_14
REMARK    6  A    between atoms: C_17  and  O_18
REMARK    7  A    between atoms: O_18  and  C_19
REMARK    8  A    between atoms: C_24  and  N_25
REMARK    9  A    between atoms: N_25  and  C_26
REMARK   10  A    between atoms: N_25  and  C_27
REMARK                            x       y       z     vdW  Elec       q    Type
REMARK                         _______ _______ _______ _____ _____    ______ ____
ROOT
ATOM      1  C   UNL     1       0.025   9.840  20.369  0.00  0.00    +0.000 A 
ATOM      2  C   UNL     1      -0.082   9.428  19.039  0.00  0.00    +0.000 A 
ATOM      3  C   UNL     1      -0.723  10.237  18.112  0.00  0.00    +0.000 A 
ATOM      4  C   UNL     1      -1.313  11.459  18.470  0.00  0.00    +0.000 A 
ATOM      5  C   UNL     1      -1.264  11.880  19.818  0.00  0.00    +0.000 A 
ATOM      6  C   UNL     1      -0.543  11.079  20.774  0.00  0.00    +0.000 A 
ATOM      7  C   UNL     1      -0.426  11.534  22.219  0.00  0.00    +0.000 C 
ATOM      8  C   UNL     1      -0.891  12.959  22.502  0.00  0.00    +0.000 C 
ATOM      9  C   UNL     1      -2.232  13.233  21.812  0.00  0.00    +0.000 C 
ATOM     10  C   UNL     1      -1.908  13.170  20.298  0.00  0.00    +0.000 C 
ENDROOT
BRANCH   1  11
ATOM     11  S   UNL     1       0.793   8.659  21.495  0.00  0.00    +0.000 S 
ATOM     12  O   UNL     1      -0.161   7.596  21.731  0.00  0.00    +0.000 OA
ATOM     13  O   UNL     1       1.367   9.374  22.615  0.00  0.00    +0.000 OA
BRANCH  11  14
ATOM     14  N   UNL     1       2.094   8.028  20.622  0.00  0.00    +0.000 N 
ATOM     15  H   UNL     1       2.489   8.729  19.996  0.00  0.00    +0.000 HD
BRANCH  14  22
ATOM     16  C   UNL     1       2.275   6.515  18.695  0.00  0.00    +0.000 A 
ATOM     17  C   UNL     1       2.237   5.219  18.176  0.00  0.00    +0.000 A 
ATOM     18  C   UNL     1       1.888   4.142  18.997  0.00  0.00    +0.000 A 
ATOM     19  C   UNL     1       1.563   4.364  20.335  0.00  0.00    +0.000 A 
ATOM     20 CL   UNL     1       1.146   3.028  21.336  0.00  0.00    +0.000 Cl
ATOM     21  C   UNL     1       1.601   5.650  20.868  0.00  0.00    +0.000 A 
ATOM     22  C   UNL     1       1.983   6.719  20.054  0.00  0.00    +0.000 A 
BRANCH  16  24
ATOM     23  C   UNL     1       3.877   7.564  17.307  0.00  0.00    +0.000 C 
ATOM     24  O   UNL     1       2.618   7.631  17.972  0.00  0.00    +0.000 OA
ENDBRANCH  16  24
ENDBRANCH  14  22
ENDBRANCH  11  14
ENDBRANCH   1  11
BRANCH   9  25
ATOM     25  N   UNL     1      -3.326  12.315  22.235  0.00  0.00    +0.000 NA
ATOM     26  C   UNL     1      -4.595  12.588  21.550  0.00  0.00    +0.000 C 
ATOM     27  C   UNL     1      -3.557  12.335  23.682  0.00  0.00    +0.000 C 
ENDBRANCH   9  25
BRANCH   4  28
ATOM     28  O   UNL     1      -1.849  12.043  17.357  0.00  0.00    +0.000 OA
ATOM     29  C   UNL     1      -2.825  11.427  16.546  0.00  0.00    +0.000 C 
ENDBRANCH   4  28
TORSDOF 6
ENDMDL
MODEL 7
REMARK VINA RESULT:      -6.1      4.832      6.794
REMARK  Name = 
REMARK  10 active torsions:
REMARK  status: ('A' for Active; 'I' for Inactive)
REMARK    1  A    between atoms: C_1  and  O_2
REMARK    2  A    between atoms: O_2  and  C_3
REMARK    3  A    between atoms: C_9  and  N_10
REMARK    4  A    between atoms: N_10  and  S_11
REMARK    5  A    between atoms: S_11  and  C_14
REMARK    6  A    between atoms: C_17  and  O_18
REMARK    7  A    between atoms: O_18  and  C_19
REMARK    8  A    between atoms: C_24  and  N_25
REMARK    9  A    between atoms: N_25  and  C_26
REMARK   10  A    between atoms: N_25  and  C_27
REMARK                            x       y       z     vdW  Elec       q    Type
REMARK                         _______ _______ _______ _____ _____    ______ ____
ROOT
ATOM      1  C   UNL     1      -2.714  12.329  20.020  0.00  0.00    +0.000 A 
ATOM      2  C   UNL     1      -2.182  12.961  21.145  0.00  0.00    +0.000 A 
ATOM      3  C   UNL     1      -3.025  13.591  22.049  0.00  0.00    +0.000 A 
ATOM      4  C   UNL     1      -4.414  13.654  21.856  0.00  0.00    +0.000 A 
ATOM      5  C   UNL     1      -4.976  13.067  20.701  0.00  0.00    +0.000 A 
ATOM      6  C   UNL     1      -4.117  12.353  19.791  0.00  0.00    +0.000 A 
ATOM      7  C   UNL     1      -4.701  11.664  18.569  0.00  0.00    +0.000 C 
ATOM      8  C   UNL     1      -6.224  11.578  18.525  0.00  0.00    +0.000 C 
ATOM      9  C   UNL     1      -6.849  12.924  18.907  0.00  0.00    +0.000 C 
ATOM     10  C   UNL     1      -6.464  13.121  20.395  0.00  0.00    +0.000 C 
ENDROOT
BRANCH   1  11
ATOM     11  S   UNL     1      -1.510  11.632  18.871  0.00  0.00    +0.000 S 
ATOM     12  O   UNL     1      -1.394  12.543  17.753  0.00  0.00    +0.000 OA
ATOM     13  O   UNL     1      -1.828  10.239  18.636  0.00  0.00    +0.000 OA
BRANCH  11  14
ATOM     14  N   UNL     1      -0.055  11.645  19.727  0.00  0.00    +0.000 N 
ATOM     15  H   UNL     1       0.566  12.377  19.384  0.00  0.00    +0.000 HD
BRANCH  14  22
ATOM     16  C   UNL     1       0.661   9.933  21.337  0.00  0.00    +0.000 A 
ATOM     17  C   UNL     1       1.231   8.682  21.589  0.00  0.00    +0.000 A 
ATOM     18  C   UNL     1       1.754   7.922  20.538  0.00  0.00    +0.000 A 
ATOM     19  C   UNL     1       1.717   8.419  19.235  0.00  0.00    +0.000 A 
ATOM     20 CL   UNL     1       2.354   7.467  17.951  0.00  0.00    +0.000 Cl
ATOM     21  C   UNL     1       1.148   9.661  18.968  0.00  0.00    +0.000 A 
ATOM     22  C   UNL     1       0.596  10.403  20.015  0.00  0.00    +0.000 A 
BRANCH  16  24
ATOM     23  C   UNL     1      -0.786  10.100  23.200  0.00  0.00    +0.000 C 
ATOM     24  O   UNL     1       0.112  10.743  22.300  0.00  0.00    +0.000 OA
ENDBRANCH  16  24
ENDBRANCH  14  22
ENDBRANCH  11  14
ENDBRANCH   1  11
BRANCH   9  25
ATOM     25  N   UNL     1      -6.441  14.051  18.023  0.00  0.00    +0.000 NA
ATOM     26  C   UNL     1      -6.716  15.366  18.612  0.00  0.00    +0.000 C 
ATOM     27  C   UNL     1      -7.064  13.989  16.698  0.00  0.00    +0.000 C 
ENDBRANCH   9  25
BRANCH   4  28
ATOM     28  O   UNL     1      -4.984  14.313  22.907  0.00  0.00    +0.000 OA
ATOM     29  C   UNL     1      -5.287  15.691  22.894  0.00  0.00    +0.000 C 
ENDBRANCH   4  28
TORSDOF 6
ENDMDL
MODEL 8
REMARK VINA RESULT:      -6.0      2.004      2.614
REMARK  Name = 
REMARK  10 active torsions:
REMARK  status: ('A' for Active; 'I' for Inactive)
REMARK    1  A    between atoms: C_1  and  O_2
REMARK    2  A    between atoms: O_2  and  C_3
REMARK    3  A    between atoms: C_9  and  N_10
REMARK    4  A    between atoms: N_10  and  S_11
REMARK    5  A    between atoms: S_11  and  C_14
REMARK    6  A    between atoms: C_17  and  O_18
REMARK    7  A    between atoms: O_18  and  C_19
REMARK    8  A    between atoms: C_24  and  N_25
REMARK    9  A    between atoms: N_25  and  C_26
REMARK   10  A    between atoms: N_25  and  C_27
REMARK                            x       y       z     vdW  Elec       q    Type
REMARK                         _______ _______ _______ _____ _____    ______ ____
ROOT
ATOM      1  C   UNL     1       0.544  10.199  20.015  0.00  0.00    +0.000 A 
ATOM      2  C   UNL     1       0.217   9.510  21.185  0.00  0.00    +0.000 A 
ATOM      3  C   UNL     1      -0.394  10.180  22.235  0.00  0.00    +0.000 A 
ATOM      4  C   UNL     1      -0.668  11.555  22.184  0.00  0.00    +0.000 A 
ATOM      5  C   UNL     1      -0.304  12.289  21.034  0.00  0.00    +0.000 A 
ATOM      6  C   UNL     1       0.271  11.589  19.912  0.00  0.00    +0.000 A 
ATOM      7  C   UNL     1       0.621  12.343  18.640  0.00  0.00    +0.000 C 
ATOM      8  C   UNL     1       0.107  13.776  18.558  0.00  0.00    +0.000 C 
ATOM      9  C   UNL     1       0.365  14.516  19.875  0.00  0.00    +0.000 C 
ATOM     10  C   UNL     1      -0.530  13.787  20.910  0.00  0.00    +0.000 C 
ENDROOT
BRANCH   1  11
ATOM     11  S   UNL     1       1.422   9.241  18.763  0.00  0.00    +0.000 S 
ATOM     12  O   UNL     1       2.532  10.045  18.297  0.00  0.00    +0.000 OA
ATOM     13  O   UNL     1       0.467   8.711  17.814  0.00  0.00    +0.000 OA
BRANCH  11  14
ATOM     14  N   UNL     1       2.038   7.912  19.604  0.00  0.00    +0.000 N 
ATOM     15  H   UNL     1       2.538   8.208  20.442  0.00  0.00    +0.000 HD
BRANCH  14  22
ATOM     16  C   UNL     1       2.397   5.519  19.185  0.00  0.00    +0.000 A 
ATOM     17  C   UNL     1       2.968   4.505  18.412  0.00  0.00    +0.000 A 
ATOM     18  C   UNL     1       3.827   4.825  17.356  0.00  0.00    +0.000 A 
ATOM     19  C   UNL     1       4.126   6.160  17.083  0.00  0.00    +0.000 A 
ATOM     20 CL   UNL     1       5.177   6.539  15.774  0.00  0.00    +0.000 Cl
ATOM     21  C   UNL     1       3.561   7.181  17.842  0.00  0.00    +0.000 A 
ATOM     22  C   UNL     1       2.675   6.859  18.874  0.00  0.00    +0.000 A 
BRANCH  16  24
ATOM     23  C   UNL     1       1.059   3.965  20.366  0.00  0.00    +0.000 C 
ATOM     24  O   UNL     1       1.533   5.303  20.231  0.00  0.00    +0.000 OA
ENDBRANCH  16  24
ENDBRANCH  14  22
ENDBRANCH  11  14
ENDBRANCH   1  11
BRANCH   9  25
ATOM     25  N   UNL     1       1.802  14.580  20.259  0.00  0.00    +0.000 NA
ATOM     26  C   UNL     1       2.003  14.996  21.652  0.00  0.00    +0.000 C 
ATOM     27  C   UNL     1       2.585  15.460  19.386  0.00  0.00    +0.000 C 
ENDBRANCH   9  25
BRANCH   4  28
ATOM     28  O   UNL     1      -1.286  11.934  23.342  0.00  0.00    +0.000 OA
ATOM     29  C   UNL     1      -2.687  12.011  23.491  0.00  0.00    +0.000 C 
ENDBRANCH   4  28
TORSDOF 6
ENDMDL
MODEL 9
REMARK VINA RESULT:      -6.0      1.593      1.794
REMARK  Name = 
REMARK  10 active torsions:
REMARK  status: ('A' for Active; 'I' for Inactive)
REMARK    1  A    between atoms: C_1  and  O_2
REMARK    2  A    between atoms: O_2  and  C_3
REMARK    3  A    between atoms: C_9  and  N_10
REMARK    4  A    between atoms: N_10  and  S_11
REMARK    5  A    between atoms: S_11  and  C_14
REMARK    6  A    between atoms: C_17  and  O_18
REMARK    7  A    between atoms: O_18  and  C_19
REMARK    8  A    between atoms: C_24  and  N_25
REMARK    9  A    between atoms: N_25  and  C_26
REMARK   10  A    between atoms: N_25  and  C_27
REMARK                            x       y       z     vdW  Elec       q    Type
REMARK                         _______ _______ _______ _____ _____    ______ ____
ROOT
ATOM      1  C   UNL     1       1.229   8.535  19.934  0.00  0.00    +0.000 A 
ATOM      2  C   UNL     1       1.439   8.213  21.276  0.00  0.00    +0.000 A 
ATOM      3  C   UNL     1       0.711   8.858  22.265  0.00  0.00    +0.000 A 
ATOM      4  C   UNL     1      -0.218   9.868  21.969  0.00  0.00    +0.000 A 
ATOM      5  C   UNL     1      -0.416  10.250  20.624  0.00  0.00    +0.000 A 
ATOM      6  C   UNL     1       0.286   9.540  19.586  0.00  0.00    +0.000 A 
ATOM      7  C   UNL     1       0.052   9.892  18.126  0.00  0.00    +0.000 C 
ATOM      8  C   UNL     1      -1.116  10.834  17.853  0.00  0.00    +0.000 C 
ATOM      9  C   UNL     1      -1.101  12.008  18.839  0.00  0.00    +0.000 C 
ATOM     10  C   UNL     1      -1.374  11.358  20.219  0.00  0.00    +0.000 C 
ENDROOT
BRANCH   1  11
ATOM     11  S   UNL     1       2.305   7.699  18.751  0.00  0.00    +0.000 S 
ATOM     12  O   UNL     1       3.047   8.716  18.039  0.00  0.00    +0.000 OA
ATOM     13  O   UNL     1       1.532   6.721  18.014  0.00  0.00    +0.000 OA
BRANCH  11  14
ATOM     14  N   UNL     1       3.383   6.820  19.710  0.00  0.00    +0.000 N 
ATOM     15  H   UNL     1       4.326   7.199  19.641  0.00  0.00    +0.000 HD
BRANCH  14  22
ATOM     16  C   UNL     1       4.136   4.651  18.836  0.00  0.00    +0.000 A 
ATOM     17  C   UNL     1       4.113   3.256  18.899  0.00  0.00    +0.000 A 
ATOM     18  C   UNL     1       3.264   2.605  19.799  0.00  0.00    +0.000 A 
ATOM     19  C   UNL     1       2.426   3.352  20.628  0.00  0.00    +0.000 A 
ATOM     20 CL   UNL     1       1.394   2.538  21.738  0.00  0.00    +0.000 Cl
ATOM     21  C   UNL     1       2.441   4.743  20.580  0.00  0.00    +0.000 A 
ATOM     22  C   UNL     1       3.316   5.390  19.704  0.00  0.00    +0.000 A 
BRANCH  16  24
ATOM     23  C   UNL     1       5.778   4.606  17.134  0.00  0.00    +0.000 C 
ATOM     24  O   UNL     1       4.944   5.377  17.996  0.00  0.00    +0.000 OA
ENDBRANCH  16  24
ENDBRANCH  14  22
ENDBRANCH  11  14
ENDBRANCH   1  11
BRANCH   9  25
ATOM     25  N   UNL     1       0.147  12.819  18.790  0.00  0.00    +0.000 NA
ATOM     26  C   UNL     1       0.670  13.141  20.122  0.00  0.00    +0.000 C 
ATOM     27  C   UNL     1      -0.014  14.065  18.033  0.00  0.00    +0.000 C 
ENDBRANCH   9  25
BRANCH   4  28
ATOM     28  O   UNL     1      -0.792  10.304  23.130  0.00  0.00    +0.000 OA
ATOM     29  C   UNL     1      -1.437  11.552  23.261  0.00  0.00    +0.000 C 
ENDBRANCH   4  28
TORSDOF 6
ENDMDL
