MODEL 1
REMARK VINA RESULT:      -8.1      0.000      0.000
REMARK  Name = 
REMARK  3 active torsions:
REMARK  status: ('A' for Active; 'I' for Inactive)
REMARK    1  A    between atoms: C_2  and  C_5
REMARK    2  A    between atoms: C_7  and  C_8
REMARK    3  A    between atoms: C_15  and  C_16
REMARK                            x       y       z     vdW  Elec       q    Type
REMARK                         _______ _______ _______ _____ _____    ______ ____
ROOT
ATOM      1  C   UNL     1       5.310   4.872  16.278  0.00  0.00    +0.000 A 
ATOM      2  N   UNL     1       4.712   4.056  17.128  0.00  0.00    +0.000 NA
ATOM      3  C   UNL     1       3.792   4.746  17.910  0.00  0.00    +0.000 A 
ATOM      4  C   UNL     1       3.712   6.119  17.670  0.00  0.00    +0.000 A 
ATOM      5  S   UNL     1       4.807   6.511  16.390  0.00  0.00    +0.000 S 
ENDROOT
BRANCH   3   6
ATOM      6  C   UNL     1       3.046   4.009  18.937  0.00  0.00    +0.000 A 
ATOM      7  C   UNL     1       3.753   3.398  19.984  0.00  0.00    +0.000 A 
ATOM      8  C   UNL     1       3.072   2.792  21.046  0.00  0.00    +0.000 A 
ATOM      9  C   UNL     1       1.681   2.798  21.067  0.00  0.00    +0.000 A 
ATOM     10 CL   UNL     1       0.840   2.124  22.407  0.00  0.00    +0.000 Cl
ATOM     11  C   UNL     1       0.964   3.354  20.011  0.00  0.00    +0.000 A 
ATOM     12  C   UNL     1       1.646   3.928  18.933  0.00  0.00    +0.000 A 
ENDBRANCH   3   6
BRANCH   4  13
ATOM     13  C   UNL     1       2.926   7.193  18.306  0.00  0.00    +0.000 A 
ATOM     14  C   UNL     1       2.556   7.102  19.657  0.00  0.00    +0.000 A 
ATOM     15  C   UNL     1       1.680   8.029  20.230  0.00  0.00    +0.000 A 
ATOM     16  C   UNL     1       1.217   9.100  19.475  0.00  0.00    +0.000 A 
ATOM     17 CL   UNL     1       0.120  10.228  20.170  0.00  0.00    +0.000 Cl
ATOM     18  C   UNL     1       1.631   9.255  18.155  0.00  0.00    +0.000 A 
ATOM     19  C   UNL     1       2.472   8.302  17.570  0.00  0.00    +0.000 A 
ENDBRANCH   4  13
BRANCH   1  21
ATOM     20  F   UNL     1       6.107   3.303  14.663  0.00  0.00    +0.000 F 
ATOM     21  C   UNL     1       6.356   4.496  15.265  0.00  0.00    +0.000 C 
ATOM     22  F   UNL     1       7.595   4.394  15.820  0.00  0.00    +0.000 F 
ATOM     23  F   UNL     1       6.455   5.418  14.267  0.00  0.00    +0.000 F 
ENDBRANCH   1  21
TORSDOF 3
ENDMDL
MODEL 2
REMARK VINA RESULT:      -8.0      0.194      1.292
REMARK  Name = 
REMARK  3 active torsions:
REMARK  status: ('A' for Active; 'I' for Inactive)
REMARK    1  A    between atoms: C_2  and  C_5
REMARK    2  A    between atoms: C_7  and  C_8
REMARK    3  A    between atoms: C_15  and  C_16
REMARK                            x       y       z     vdW  Elec       q    Type
REMARK                         _______ _______ _______ _____ _____    ______ ____
ROOT
ATOM      1  C   UNL     1       5.292   4.881  16.427  0.00  0.00    +0.000 A 
ATOM      2  N   UNL     1       4.709   4.057  17.278  0.00  0.00    +0.000 NA
ATOM      3  C   UNL     1       3.739   4.720  18.022  0.00  0.00    +0.000 A 
ATOM      4  C   UNL     1       3.604   6.083  17.749  0.00  0.00    +0.000 A 
ATOM      5  S   UNL     1       4.713   6.498  16.489  0.00  0.00    +0.000 S 
ENDROOT
BRANCH   3   6
ATOM      6  C   UNL     1       3.000   3.973  19.046  0.00  0.00    +0.000 A 
ATOM      7  C   UNL     1       3.708   3.402  20.115  0.00  0.00    +0.000 A 
ATOM      8  C   UNL     1       3.030   2.787  21.172  0.00  0.00    +0.000 A 
ATOM      9  C   UNL     1       1.639   2.743  21.167  0.00  0.00    +0.000 A 
ATOM     10 CL   UNL     1       0.797   2.058  22.502  0.00  0.00    +0.000 Cl
ATOM     11  C   UNL     1       0.923   3.259  20.090  0.00  0.00    +0.000 A 
ATOM     12  C   UNL     1       1.604   3.841  19.017  0.00  0.00    +0.000 A 
ENDBRANCH   3   6
BRANCH   4  13
ATOM     13  C   UNL     1       2.755   7.134  18.342  0.00  0.00    +0.000 A 
ATOM     14  C   UNL     1       2.358   8.245  17.580  0.00  0.00    +0.000 A 
ATOM     15  C   UNL     1       1.690   9.323  18.168  0.00  0.00    +0.000 A 
ATOM     16  C   UNL     1       1.350   9.273  19.515  0.00  0.00    +0.000 A 
ATOM     17 CL   UNL     1       0.552  10.608  20.247  0.00  0.00    +0.000 Cl
ATOM     18  C   UNL     1       1.665   8.150  20.275  0.00  0.00    +0.000 A 
ATOM     19  C   UNL     1       2.373   7.091  19.694  0.00  0.00    +0.000 A 
ENDBRANCH   4  13
BRANCH   1  21
ATOM     20  F   UNL     1       7.607   4.446  16.029  0.00  0.00    +0.000 F 
ATOM     21  C   UNL     1       6.380   4.533  15.449  0.00  0.00    +0.000 C 
ATOM     22  F   UNL     1       6.492   5.456  14.454  0.00  0.00    +0.000 F 
ATOM     23  F   UNL     1       6.156   3.335  14.840  0.00  0.00    +0.000 F 
ENDBRANCH   1  21
TORSDOF 3
ENDMDL
MODEL 3
REMARK VINA RESULT:      -7.4      0.564      1.290
REMARK  Name = 
REMARK  3 active torsions:
REMARK  status: ('A' for Active; 'I' for Inactive)
REMARK    1  A    between atoms: C_2  and  C_5
REMARK    2  A    between atoms: C_7  and  C_8
REMARK    3  A    between atoms: C_15  and  C_16
REMARK                            x       y       z     vdW  Elec       q    Type
REMARK                         _______ _______ _______ _____ _____    ______ ____
ROOT
ATOM      1  C   UNL     1       5.166   4.995  16.621  0.00  0.00    +0.000 A 
ATOM      2  N   UNL     1       4.552   4.259  17.528  0.00  0.00    +0.000 NA
ATOM      3  C   UNL     1       3.617   5.015  18.227  0.00  0.00    +0.000 A 
ATOM      4  C   UNL     1       3.542   6.360  17.862  0.00  0.00    +0.000 A 
ATOM      5  S   UNL     1       4.662   6.637  16.574  0.00  0.00    +0.000 S 
ENDROOT
BRANCH   3   6
ATOM      6  C   UNL     1       2.850   4.373  19.301  0.00  0.00    +0.000 A 
ATOM      7  C   UNL     1       1.748   3.572  18.966  0.00  0.00    +0.000 A 
ATOM      8  C   UNL     1       1.067   2.847  19.949  0.00  0.00    +0.000 A 
ATOM      9  C   UNL     1       1.488   2.917  21.274  0.00  0.00    +0.000 A 
ATOM     10 CL   UNL     1       0.704   1.968  22.475  0.00  0.00    +0.000 Cl
ATOM     11  C   UNL     1       2.547   3.747  21.632  0.00  0.00    +0.000 A 
ATOM     12  C   UNL     1       3.204   4.498  20.653  0.00  0.00    +0.000 A 
ENDBRANCH   3   6
BRANCH   4  13
ATOM     13  C   UNL     1       2.744   7.487  18.383  0.00  0.00    +0.000 A 
ATOM     14  C   UNL     1       2.266   7.472  19.703  0.00  0.00    +0.000 A 
ATOM     15  C   UNL     1       1.379   8.450  20.162  0.00  0.00    +0.000 A 
ATOM     16  C   UNL     1       1.011   9.496  19.323  0.00  0.00    +0.000 A 
ATOM     17 CL   UNL     1      -0.100  10.687  19.875  0.00  0.00    +0.000 Cl
ATOM     18  C   UNL     1       1.531   9.574  18.033  0.00  0.00    +0.000 A 
ATOM     19  C   UNL     1       2.384   8.570  17.563  0.00  0.00    +0.000 A 
ENDBRANCH   4  13
BRANCH   1  21
ATOM     20  F   UNL     1       6.349   5.332  14.572  0.00  0.00    +0.000 F 
ATOM     21  C   UNL     1       6.232   4.532  15.666  0.00  0.00    +0.000 C 
ATOM     22  F   UNL     1       5.992   3.276  15.198  0.00  0.00    +0.000 F 
ATOM     23  F   UNL     1       7.462   4.497  16.251  0.00  0.00    +0.000 F 
ENDBRANCH   1  21
TORSDOF 3
ENDMDL
MODEL 4
REMARK VINA RESULT:      -7.4      0.944      4.726
REMARK  Name = 
REMARK  3 active torsions:
REMARK  status: ('A' for Active; 'I' for Inactive)
REMARK    1  A    between atoms: C_2  and  C_5
REMARK    2  A    between atoms: C_7  and  C_8
REMARK    3  A    between atoms: C_15  and  C_16
REMARK                            x       y       z     vdW  Elec       q    Type
REMARK                         _______ _______ _______ _____ _____    ______ ____
ROOT
ATOM      1  C   UNL     1       5.001   4.838  16.049  0.00  0.00    +0.000 A 
ATOM      2  N   UNL     1       4.472   5.960  16.503  0.00  0.00    +0.000 NA
ATOM      3  C   UNL     1       3.722   5.723  17.649  0.00  0.00    +0.000 A 
ATOM      4  C   UNL     1       3.655   4.390  18.057  0.00  0.00    +0.000 A 
ATOM      5  S   UNL     1       4.609   3.441  16.970  0.00  0.00    +0.000 S 
ENDROOT
BRANCH   3   6
ATOM      6  C   UNL     1       3.029   6.851  18.285  0.00  0.00    +0.000 A 
ATOM      7  C   UNL     1       2.724   7.983  17.515  0.00  0.00    +0.000 A 
ATOM      8  C   UNL     1       1.959   9.025  18.050  0.00  0.00    +0.000 A 
ATOM      9  C   UNL     1       1.494   8.938  19.359  0.00  0.00    +0.000 A 
ATOM     10 CL   UNL     1       0.489  10.179  19.997  0.00  0.00    +0.000 Cl
ATOM     11  C   UNL     1       1.831   7.845  20.153  0.00  0.00    +0.000 A 
ATOM     12  C   UNL     1       2.625   6.821  19.628  0.00  0.00    +0.000 A 
ENDBRANCH   3   6
BRANCH   4  13
ATOM     13  C   UNL     1       2.935   3.724  19.159  0.00  0.00    +0.000 A 
ATOM     14  C   UNL     1       1.532   3.666  19.163  0.00  0.00    +0.000 A 
ATOM     15  C   UNL     1       0.832   3.183  20.272  0.00  0.00    +0.000 A 
ATOM     16  C   UNL     1       1.530   2.687  21.367  0.00  0.00    +0.000 A 
ATOM     17 CL   UNL     1       0.672   2.116  22.744  0.00  0.00    +0.000 Cl
ATOM     18  C   UNL     1       2.922   2.663  21.357  0.00  0.00    +0.000 A 
ATOM     19  C   UNL     1       3.621   3.188  20.263  0.00  0.00    +0.000 A 
ENDBRANCH   4  13
BRANCH   1  21
ATOM     20  F   UNL     1       6.884   3.791  15.018  0.00  0.00    +0.000 F 
ATOM     21  C   UNL     1       5.880   4.690  14.838  0.00  0.00    +0.000 C 
ATOM     22  F   UNL     1       6.476   5.864  14.489  0.00  0.00    +0.000 F 
ATOM     23  F   UNL     1       5.180   4.274  13.746  0.00  0.00    +0.000 F 
ENDBRANCH   1  21
TORSDOF 3
ENDMDL
MODEL 5
REMARK VINA RESULT:      -7.3      0.667      1.701
REMARK  Name = 
REMARK  3 active torsions:
REMARK  status: ('A' for Active; 'I' for Inactive)
REMARK    1  A    between atoms: C_2  and  C_5
REMARK    2  A    between atoms: C_7  and  C_8
REMARK    3  A    between atoms: C_15  and  C_16
REMARK                            x       y       z     vdW  Elec       q    Type
REMARK                         _______ _______ _______ _____ _____    ______ ____
ROOT
ATOM      1  C   UNL     1       5.088   5.102  16.709  0.00  0.00    +0.000 A 
ATOM      2  N   UNL     1       4.499   4.344  17.616  0.00  0.00    +0.000 NA
ATOM      3  C   UNL     1       3.521   5.059  18.298  0.00  0.00    +0.000 A 
ATOM      4  C   UNL     1       3.386   6.396  17.922  0.00  0.00    +0.000 A 
ATOM      5  S   UNL     1       4.505   6.717  16.644  0.00  0.00    +0.000 S 
ENDROOT
BRANCH   3   6
ATOM      6  C   UNL     1       2.775   4.389  19.370  0.00  0.00    +0.000 A 
ATOM      7  C   UNL     1       1.674   3.586  19.033  0.00  0.00    +0.000 A 
ATOM      8  C   UNL     1       1.013   2.835  20.011  0.00  0.00    +0.000 A 
ATOM      9  C   UNL     1       1.452   2.882  21.331  0.00  0.00    +0.000 A 
ATOM     10 CL   UNL     1       0.692   1.901  22.522  0.00  0.00    +0.000 Cl
ATOM     11  C   UNL     1       2.509   3.712  21.691  0.00  0.00    +0.000 A 
ATOM     12  C   UNL     1       3.147   4.489  20.718  0.00  0.00    +0.000 A 
ENDBRANCH   3   6
BRANCH   4  13
ATOM     13  C   UNL     1       2.529   7.487  18.426  0.00  0.00    +0.000 A 
ATOM     14  C   UNL     1       2.183   8.564  17.595  0.00  0.00    +0.000 A 
ATOM     15  C   UNL     1       1.508   9.679  18.101  0.00  0.00    +0.000 A 
ATOM     16  C   UNL     1       1.111   9.700  19.433  0.00  0.00    +0.000 A 
ATOM     17 CL   UNL     1       0.304  11.081  20.065  0.00  0.00    +0.000 Cl
ATOM     18  C   UNL     1       1.376   8.612  20.259  0.00  0.00    +0.000 A 
ATOM     19  C   UNL     1       2.090   7.515  19.761  0.00  0.00    +0.000 A 
ENDBRANCH   4  13
BRANCH   1  21
ATOM     20  F   UNL     1       7.426   4.826  16.307  0.00  0.00    +0.000 F 
ATOM     21  C   UNL     1       6.185   4.684  15.769  0.00  0.00    +0.000 C 
ATOM     22  F   UNL     1       6.181   5.411  14.618  0.00  0.00    +0.000 F 
ATOM     23  F   UNL     1       6.072   3.377  15.401  0.00  0.00    +0.000 F 
ENDBRANCH   1  21
TORSDOF 3
ENDMDL
MODEL 6
REMARK VINA RESULT:      -7.2      0.883      4.734
REMARK  Name = 
REMARK  3 active torsions:
REMARK  status: ('A' for Active; 'I' for Inactive)
REMARK    1  A    between atoms: C_2  and  C_5
REMARK    2  A    between atoms: C_7  and  C_8
REMARK    3  A    between atoms: C_15  and  C_16
REMARK                            x       y       z     vdW  Elec       q    Type
REMARK                         _______ _______ _______ _____ _____    ______ ____
ROOT
ATOM      1  C   UNL     1       5.138   5.057  16.305  0.00  0.00    +0.000 A 
ATOM      2  N   UNL     1       4.473   6.132  16.689  0.00  0.00    +0.000 NA
ATOM      3  C   UNL     1       3.661   5.847  17.780  0.00  0.00    +0.000 A 
ATOM      4  C   UNL     1       3.686   4.520  18.215  0.00  0.00    +0.000 A 
ATOM      5  S   UNL     1       4.806   3.647  17.229  0.00  0.00    +0.000 S 
ENDROOT
BRANCH   3   6
ATOM      6  C   UNL     1       2.819   6.915  18.332  0.00  0.00    +0.000 A 
ATOM      7  C   UNL     1       2.474   6.875  19.692  0.00  0.00    +0.000 A 
ATOM      8  C   UNL     1       1.776   7.934  20.283  0.00  0.00    +0.000 A 
ATOM      9  C   UNL     1       1.424   9.041  19.516  0.00  0.00    +0.000 A 
ATOM     10 CL   UNL     1       0.637  10.380  20.254  0.00  0.00    +0.000 Cl
ATOM     11  C   UNL     1       1.714   9.074  18.155  0.00  0.00    +0.000 A 
ATOM     12  C   UNL     1       2.379   7.999  17.558  0.00  0.00    +0.000 A 
ENDBRANCH   3   6
BRANCH   4  13
ATOM     13  C   UNL     1       2.946   3.810  19.276  0.00  0.00    +0.000 A 
ATOM     14  C   UNL     1       1.544   3.741  19.244  0.00  0.00    +0.000 A 
ATOM     15  C   UNL     1       0.823   3.213  20.319  0.00  0.00    +0.000 A 
ATOM     16  C   UNL     1       1.500   2.683  21.412  0.00  0.00    +0.000 A 
ATOM     17 CL   UNL     1       0.615   2.056  22.746  0.00  0.00    +0.000 Cl
ATOM     18  C   UNL     1       2.892   2.671  21.433  0.00  0.00    +0.000 A 
ATOM     19  C   UNL     1       3.611   3.240  20.376  0.00  0.00    +0.000 A 
ENDBRANCH   4  13
BRANCH   1  21
ATOM     20  F   UNL     1       7.360   5.416  15.505  0.00  0.00    +0.000 F 
ATOM     21  C   UNL     1       6.120   4.971  15.169  0.00  0.00    +0.000 C 
ATOM     22  F   UNL     1       5.727   5.708  14.094  0.00  0.00    +0.000 F 
ATOM     23  F   UNL     1       6.276   3.693  14.724  0.00  0.00    +0.000 F 
ENDBRANCH   1  21
TORSDOF 3
ENDMDL
MODEL 7
REMARK VINA RESULT:      -7.1      3.221      4.415
REMARK  Name = 
REMARK  3 active torsions:
REMARK  status: ('A' for Active; 'I' for Inactive)
REMARK    1  A    between atoms: C_2  and  C_5
REMARK    2  A    between atoms: C_7  and  C_8
REMARK    3  A    between atoms: C_15  and  C_16
REMARK                            x       y       z     vdW  Elec       q    Type
REMARK                         _______ _______ _______ _____ _____    ______ ____
ROOT
ATOM      1  C   UNL     1       5.858   3.931  13.812  0.00  0.00    +0.000 A 
ATOM      2  N   UNL     1       4.954   3.670  14.739  0.00  0.00    +0.000 NA
ATOM      3  C   UNL     1       5.166   4.451  15.869  0.00  0.00    +0.000 A 
ATOM      4  C   UNL     1       6.272   5.301  15.810  0.00  0.00    +0.000 A 
ATOM      5  S   UNL     1       7.018   5.116  14.261  0.00  0.00    +0.000 S 
ENDROOT
BRANCH   3   6
ATOM      6  C   UNL     1       4.274   4.282  17.022  0.00  0.00    +0.000 A 
ATOM      7  C   UNL     1       3.542   5.386  17.484  0.00  0.00    +0.000 A 
ATOM      8  C   UNL     1       2.593   5.238  18.501  0.00  0.00    +0.000 A 
ATOM      9  C   UNL     1       2.369   3.983  19.059  0.00  0.00    +0.000 A 
ATOM     10 CL   UNL     1       1.149   3.779  20.254  0.00  0.00    +0.000 Cl
ATOM     11  C   UNL     1       3.123   2.887  18.648  0.00  0.00    +0.000 A 
ATOM     12  C   UNL     1       4.096   3.044  17.656  0.00  0.00    +0.000 A 
ENDBRANCH   3   6
BRANCH   4  13
ATOM     13  C   UNL     1       6.865   6.227  16.794  0.00  0.00    +0.000 A 
ATOM     14  C   UNL     1       6.828   7.614  16.580  0.00  0.00    +0.000 A 
ATOM     15  C   UNL     1       7.522   8.493  17.417  0.00  0.00    +0.000 A 
ATOM     16  C   UNL     1       8.207   7.999  18.521  0.00  0.00    +0.000 A 
ATOM     17 CL   UNL     1       9.082   9.075  19.539  0.00  0.00    +0.000 Cl
ATOM     18  C   UNL     1       8.196   6.635  18.799  0.00  0.00    +0.000 A 
ATOM     19  C   UNL     1       7.537   5.753  17.934  0.00  0.00    +0.000 A 
ENDBRANCH   4  13
BRANCH   1  21
ATOM     20  F   UNL     1       5.971   1.936  12.502  0.00  0.00    +0.000 F 
ATOM     21  C   UNL     1       5.953   3.296  12.452  0.00  0.00    +0.000 C 
ATOM     22  F   UNL     1       7.081   3.670  11.788  0.00  0.00    +0.000 F 
ATOM     23  F   UNL     1       4.903   3.638  11.654  0.00  0.00    +0.000 F 
ENDBRANCH   1  21
TORSDOF 3
ENDMDL
MODEL 8
REMARK VINA RESULT:      -7.0      0.961      4.755
REMARK  Name = 
REMARK  3 active torsions:
REMARK  status: ('A' for Active; 'I' for Inactive)
REMARK    1  A    between atoms: C_2  and  C_5
REMARK    2  A    between atoms: C_7  and  C_8
REMARK    3  A    between atoms: C_15  and  C_16
REMARK                            x       y       z     vdW  Elec       q    Type
REMARK                         _______ _______ _______ _____ _____    ______ ____
ROOT
ATOM      1  C   UNL     1       4.894   4.890  16.230  0.00  0.00    +0.000 A 
ATOM      2  N   UNL     1       4.369   6.045  16.595  0.00  0.00    +0.000 NA
ATOM      3  C   UNL     1       3.614   5.902  17.753  0.00  0.00    +0.000 A 
ATOM      4  C   UNL     1       3.539   4.603  18.261  0.00  0.00    +0.000 A 
ATOM      5  S   UNL     1       4.491   3.570  17.253  0.00  0.00    +0.000 S 
ENDROOT
BRANCH   3   6
ATOM      6  C   UNL     1       2.926   7.078  18.298  0.00  0.00    +0.000 A 
ATOM      7  C   UNL     1       2.671   8.169  17.453  0.00  0.00    +0.000 A 
ATOM      8  C   UNL     1       1.913   9.256  17.901  0.00  0.00    +0.000 A 
ATOM      9  C   UNL     1       1.402   9.255  19.195  0.00  0.00    +0.000 A 
ATOM     10 CL   UNL     1       0.404  10.551  19.725  0.00  0.00    +0.000 Cl
ATOM     11  C   UNL     1       1.688   8.204  20.063  0.00  0.00    +0.000 A 
ATOM     12  C   UNL     1       2.476   7.135  19.625  0.00  0.00    +0.000 A 
ENDBRANCH   3   6
BRANCH   4  13
ATOM     13  C   UNL     1       2.811   4.027  19.408  0.00  0.00    +0.000 A 
ATOM     14  C   UNL     1       3.512   3.475  20.492  0.00  0.00    +0.000 A 
ATOM     15  C   UNL     1       2.843   2.785  21.508  0.00  0.00    +0.000 A 
ATOM     16  C   UNL     1       1.456   2.698  21.486  0.00  0.00    +0.000 A 
ATOM     17 CL   UNL     1       0.633   1.828  22.720  0.00  0.00    +0.000 Cl
ATOM     18  C   UNL     1       0.733   3.303  20.462  0.00  0.00    +0.000 A 
ATOM     19  C   UNL     1       1.407   3.955  19.423  0.00  0.00    +0.000 A 
ENDBRANCH   4  13
BRANCH   1  21
ATOM     20  F   UNL     1       5.073   4.383  13.902  0.00  0.00    +0.000 F 
ATOM     21  C   UNL     1       5.776   4.645  15.037  0.00  0.00    +0.000 C 
ATOM     22  F   UNL     1       6.611   3.586  15.224  0.00  0.00    +0.000 F 
ATOM     23  F   UNL     1       6.569   5.717  14.759  0.00  0.00    +0.000 F 
ENDBRANCH   1  21
TORSDOF 3
ENDMDL
MODEL 9
REMARK VINA RESULT:      -7.0      3.218      4.374
REMARK  Name = 
REMARK  3 active torsions:
REMARK  status: ('A' for Active; 'I' for Inactive)
REMARK    1  A    between atoms: C_2  and  C_5
REMARK    2  A    between atoms: C_7  and  C_8
REMARK    3  A    between atoms: C_15  and  C_16
REMARK                            x       y       z     vdW  Elec       q    Type
REMARK                         _______ _______ _______ _____ _____    ______ ____
ROOT
ATOM      1  C   UNL     1       5.871   3.964  13.810  0.00  0.00    +0.000 A 
ATOM      2  N   UNL     1       4.956   3.713  14.729  0.00  0.00    +0.000 NA
ATOM      3  C   UNL     1       5.167   4.493  15.861  0.00  0.00    +0.000 A 
ATOM      4  C   UNL     1       6.283   5.330  15.812  0.00  0.00    +0.000 A 
ATOM      5  S   UNL     1       7.039   5.137  14.269  0.00  0.00    +0.000 S 
ENDROOT
BRANCH   3   6
ATOM      6  C   UNL     1       4.263   4.333  17.006  0.00  0.00    +0.000 A 
ATOM      7  C   UNL     1       4.149   3.072  17.612  0.00  0.00    +0.000 A 
ATOM      8  C   UNL     1       3.394   2.906  18.778  0.00  0.00    +0.000 A 
ATOM      9  C   UNL     1       2.752   4.002  19.346  0.00  0.00    +0.000 A 
ATOM     10 CL   UNL     1       1.888   3.821  20.822  0.00  0.00    +0.000 Cl
ATOM     11  C   UNL     1       2.813   5.250  18.730  0.00  0.00    +0.000 A 
ATOM     12  C   UNL     1       3.539   5.406  17.546  0.00  0.00    +0.000 A 
ENDBRANCH   3   6
BRANCH   4  13
ATOM     13  C   UNL     1       6.877   6.251  16.800  0.00  0.00    +0.000 A 
ATOM     14  C   UNL     1       6.835   7.640  16.597  0.00  0.00    +0.000 A 
ATOM     15  C   UNL     1       7.529   8.514  17.438  0.00  0.00    +0.000 A 
ATOM     16  C   UNL     1       8.220   8.013  18.536  0.00  0.00    +0.000 A 
ATOM     17 CL   UNL     1       9.096   9.084  19.558  0.00  0.00    +0.000 Cl
ATOM     18  C   UNL     1       8.213   6.647  18.803  0.00  0.00    +0.000 A 
ATOM     19  C   UNL     1       7.554   5.770  17.934  0.00  0.00    +0.000 A 
ENDBRANCH   4  13
BRANCH   1  21
ATOM     20  F   UNL     1       4.912   3.619  11.650  0.00  0.00    +0.000 F 
ATOM     21  C   UNL     1       5.971   3.327  12.451  0.00  0.00    +0.000 C 
ATOM     22  F   UNL     1       6.034   1.969  12.524  0.00  0.00    +0.000 F 
ATOM     23  F   UNL     1       7.085   3.730  11.779  0.00  0.00    +0.000 F 
ENDBRANCH   1  21
TORSDOF 3
ENDMDL
