MODEL 1
REMARK VINA RESULT:      -8.4      0.000      0.000
REMARK  Name = 
REMARK  4 active torsions:
REMARK  status: ('A' for Active; 'I' for Inactive)
REMARK    1  A    between atoms: C_4  and  C_5
REMARK    2  A    between atoms: N_20  and  C_21
REMARK    3  A    between atoms: C_21  and  C_22
REMARK    4  A    between atoms: C_22  and  N_23
REMARK                            x       y       z     vdW  Elec       q    Type
REMARK                         _______ _______ _______ _____ _____    ______ ____
ROOT
ATOM      1  O   UNL     1       6.268   7.237  16.646  0.00  0.00    +0.000 OA
ATOM      2  C   UNL     1       5.249   6.795  17.173  0.00  0.00    +0.000 A 
ATOM      3  N   UNL     1       4.259   7.677  17.568  0.00  0.00    +0.000 NA
ATOM      4  C   UNL     1       3.154   7.277  18.116  0.00  0.00    +0.000 A 
ATOM      5  C   UNL     1       2.963   5.872  18.287  0.00  0.00    +0.000 A 
ATOM      6  O   UNL     1       1.842   5.295  18.777  0.00  0.00    +0.000 OA
ATOM      7  C   UNL     1       2.067   3.951  18.746  0.00  0.00    +0.000 A 
ATOM      8  C   UNL     1       1.155   2.987  19.177  0.00  0.00    +0.000 A 
ATOM      9  C   UNL     1       1.551   1.653  19.066  0.00  0.00    +0.000 A 
ATOM     10  C   UNL     1       2.800   1.319  18.544  0.00  0.00    +0.000 A 
ATOM     11  C   UNL     1       3.699   2.310  18.119  0.00  0.00    +0.000 A 
ATOM     12  C   UNL     1       3.333   3.668  18.221  0.00  0.00    +0.000 A 
ATOM     13  C   UNL     1       3.902   4.941  17.922  0.00  0.00    +0.000 A 
ATOM     14  N   UNL     1       5.102   5.395  17.368  0.00  0.00    +0.000 N 
ENDROOT
BRANCH   4  15
ATOM     15  C   UNL     1       2.144   8.288  18.541  0.00  0.00    +0.000 A 
ATOM     16  C   UNL     1       1.788   8.354  19.898  0.00  0.00    +0.000 A 
ATOM     17  C   UNL     1       0.779   9.222  20.327  0.00  0.00    +0.000 A 
ATOM     18  C   UNL     1       0.112  10.022  19.401  0.00  0.00    +0.000 A 
ATOM     19  C   UNL     1       0.462   9.966  18.052  0.00  0.00    +0.000 A 
ATOM     20  C   UNL     1       1.475   9.103  17.621  0.00  0.00    +0.000 A 
ENDBRANCH   4  15
BRANCH  14  21
ATOM     21  C   UNL     1       6.175   4.521  16.873  0.00  0.00    +0.000 C 
BRANCH  21  22
ATOM     22  C   UNL     1       5.828   3.785  15.553  0.00  0.00    +0.000 C 
BRANCH  22  23
ATOM     23  N   UNL     1       5.859   4.605  14.320  0.00  0.00    +0.000 NA
ATOM     24  C   UNL     1       5.239   3.865  13.201  0.00  0.00    +0.000 C 
ATOM     25  C   UNL     1       6.382   3.417  12.309  0.00  0.00    +0.000 C 
ATOM     26  C   UNL     1       7.339   4.581  12.419  0.00  0.00    +0.000 C 
ATOM     27  C   UNL     1       7.217   4.983  13.883  0.00  0.00    +0.000 C 
ENDBRANCH  22  23
ENDBRANCH  21  22
ENDBRANCH  14  21
TORSDOF 4
ENDMDL
MODEL 2
REMARK VINA RESULT:      -7.9      1.985      3.086
REMARK  Name = 
REMARK  4 active torsions:
REMARK  status: ('A' for Active; 'I' for Inactive)
REMARK    1  A    between atoms: C_4  and  C_5
REMARK    2  A    between atoms: N_20  and  C_21
REMARK    3  A    between atoms: C_21  and  C_22
REMARK    4  A    between atoms: C_22  and  N_23
REMARK                            x       y       z     vdW  Elec       q    Type
REMARK                         _______ _______ _______ _____ _____    ______ ____
ROOT
ATOM      1  O   UNL     1       2.921   9.043  17.007  0.00  0.00    +0.000 OA
ATOM      2  C   UNL     1       2.619   8.378  17.995  0.00  0.00    +0.000 A 
ATOM      3  N   UNL     1       1.828   8.951  18.975  0.00  0.00    +0.000 NA
ATOM      4  C   UNL     1       1.461   8.301  20.035  0.00  0.00    +0.000 A 
ATOM      5  C   UNL     1       1.878   6.942  20.165  0.00  0.00    +0.000 A 
ATOM      6  O   UNL     1       1.522   6.114  21.173  0.00  0.00    +0.000 OA
ATOM      7  C   UNL     1       2.111   4.915  20.899  0.00  0.00    +0.000 A 
ATOM      8  C   UNL     1       2.003   3.780  21.702  0.00  0.00    +0.000 A 
ATOM      9  C   UNL     1       2.668   2.633  21.263  0.00  0.00    +0.000 A 
ATOM     10  C   UNL     1       3.397   2.640  20.075  0.00  0.00    +0.000 A 
ATOM     11  C   UNL     1       3.491   3.798  19.287  0.00  0.00    +0.000 A 
ATOM     12  C   UNL     1       2.835   4.975  19.703  0.00  0.00    +0.000 A 
ATOM     13  C   UNL     1       2.666   6.311  19.235  0.00  0.00    +0.000 A 
ATOM     14  N   UNL     1       3.082   7.041  18.118  0.00  0.00    +0.000 N 
ENDROOT
BRANCH   4  15
ATOM     15  C   UNL     1       0.630   8.993  21.062  0.00  0.00    +0.000 A 
ATOM     16  C   UNL     1      -0.271   9.985  20.641  0.00  0.00    +0.000 A 
ATOM     17  C   UNL     1      -1.003  10.724  21.578  0.00  0.00    +0.000 A 
ATOM     18  C   UNL     1      -0.831  10.483  22.940  0.00  0.00    +0.000 A 
ATOM     19  C   UNL     1       0.057   9.496  23.365  0.00  0.00    +0.000 A 
ATOM     20  C   UNL     1       0.786   8.752  22.432  0.00  0.00    +0.000 A 
ENDBRANCH   4  15
BRANCH  14  21
ATOM     21  C   UNL     1       3.874   6.488  17.010  0.00  0.00    +0.000 C 
BRANCH  21  22
ATOM     22  C   UNL     1       5.368   6.264  17.354  0.00  0.00    +0.000 C 
BRANCH  22  23
ATOM     23  N   UNL     1       5.940   4.954  16.965  0.00  0.00    +0.000 NA
ATOM     24  C   UNL     1       7.252   5.146  16.312  0.00  0.00    +0.000 C 
ATOM     25  C   UNL     1       7.025   4.901  14.832  0.00  0.00    +0.000 C 
ATOM     26  C   UNL     1       5.994   3.797  14.852  0.00  0.00    +0.000 C 
ATOM     27  C   UNL     1       5.100   4.189  16.022  0.00  0.00    +0.000 C 
ENDBRANCH  22  23
ENDBRANCH  21  22
ENDBRANCH  14  21
TORSDOF 4
ENDMDL
MODEL 3
REMARK VINA RESULT:      -7.7      2.504      3.474
REMARK  Name = 
REMARK  4 active torsions:
REMARK  status: ('A' for Active; 'I' for Inactive)
REMARK    1  A    between atoms: C_4  and  C_5
REMARK    2  A    between atoms: N_20  and  C_21
REMARK    3  A    between atoms: C_21  and  C_22
REMARK    4  A    between atoms: C_22  and  N_23
REMARK                            x       y       z     vdW  Elec       q    Type
REMARK                         _______ _______ _______ _____ _____    ______ ____
ROOT
ATOM      1  O   UNL     1       3.233   8.567  16.798  0.00  0.00    +0.000 OA
ATOM      2  C   UNL     1       2.891   7.973  17.818  0.00  0.00    +0.000 A 
ATOM      3  N   UNL     1       2.097   8.627  18.744  0.00  0.00    +0.000 NA
ATOM      4  C   UNL     1       1.689   8.054  19.833  0.00  0.00    +0.000 A 
ATOM      5  C   UNL     1       2.063   6.694  20.054  0.00  0.00    +0.000 A 
ATOM      6  O   UNL     1       1.662   5.940  21.102  0.00  0.00    +0.000 OA
ATOM      7  C   UNL     1       2.221   4.710  20.915  0.00  0.00    +0.000 A 
ATOM      8  C   UNL     1       2.062   3.630  21.783  0.00  0.00    +0.000 A 
ATOM      9  C   UNL     1       2.702   2.440  21.430  0.00  0.00    +0.000 A 
ATOM     10  C   UNL     1       3.455   2.353  20.260  0.00  0.00    +0.000 A 
ATOM     11  C   UNL     1       3.600   3.458  19.405  0.00  0.00    +0.000 A 
ATOM     12  C   UNL     1       2.971   4.676  19.734  0.00  0.00    +0.000 A 
ATOM     13  C   UNL     1       2.851   5.985  19.182  0.00  0.00    +0.000 A 
ATOM     14  N   UNL     1       3.312   6.633  18.032  0.00  0.00    +0.000 N 
ENDROOT
BRANCH   4  15
ATOM     15  C   UNL     1       0.858   8.831  20.797  0.00  0.00    +0.000 A 
ATOM     16  C   UNL     1      -0.036   9.790  20.294  0.00  0.00    +0.000 A 
ATOM     17  C   UNL     1      -0.767  10.606  21.164  0.00  0.00    +0.000 A 
ATOM     18  C   UNL     1      -0.602  10.475  22.541  0.00  0.00    +0.000 A 
ATOM     19  C   UNL     1       0.280   9.521  23.049  0.00  0.00    +0.000 A 
ATOM     20  C   UNL     1       1.008   8.700  22.182  0.00  0.00    +0.000 A 
ENDBRANCH   4  15
BRANCH  14  21
ATOM     21  C   UNL     1       4.109   5.991  16.978  0.00  0.00    +0.000 C 
BRANCH  21  22
ATOM     22  C   UNL     1       5.395   6.769  16.600  0.00  0.00    +0.000 C 
BRANCH  22  23
ATOM     23  N   UNL     1       6.679   6.136  16.983  0.00  0.00    +0.000 NA
ATOM     24  C   UNL     1       6.430   4.970  17.857  0.00  0.00    +0.000 C 
ATOM     25  C   UNL     1       6.822   5.402  19.257  0.00  0.00    +0.000 C 
ATOM     26  C   UNL     1       8.007   6.300  18.987  0.00  0.00    +0.000 C 
ATOM     27  C   UNL     1       7.595   7.032  17.717  0.00  0.00    +0.000 C 
ENDBRANCH  22  23
ENDBRANCH  21  22
ENDBRANCH  14  21
TORSDOF 4
ENDMDL
MODEL 4
REMARK VINA RESULT:      -7.7      1.196      1.196
REMARK  Name = 
REMARK  4 active torsions:
REMARK  status: ('A' for Active; 'I' for Inactive)
REMARK    1  A    between atoms: C_4  and  C_5
REMARK    2  A    between atoms: N_20  and  C_21
REMARK    3  A    between atoms: C_21  and  C_22
REMARK    4  A    between atoms: C_22  and  N_23
REMARK                            x       y       z     vdW  Elec       q    Type
REMARK                         _______ _______ _______ _____ _____    ______ ____
ROOT
ATOM      1  O   UNL     1       5.276   7.290  16.091  0.00  0.00    +0.000 OA
ATOM      2  C   UNL     1       4.552   6.967  17.031  0.00  0.00    +0.000 A 
ATOM      3  N   UNL     1       3.559   7.837  17.445  0.00  0.00    +0.000 NA
ATOM      4  C   UNL     1       2.752   7.552  18.420  0.00  0.00    +0.000 A 
ATOM      5  C   UNL     1       2.897   6.283  19.059  0.00  0.00    +0.000 A 
ATOM      6  O   UNL     1       2.094   5.812  20.039  0.00  0.00    +0.000 OA
ATOM      7  C   UNL     1       2.561   4.568  20.342  0.00  0.00    +0.000 A 
ATOM      8  C   UNL     1       2.015   3.734  21.318  0.00  0.00    +0.000 A 
ATOM      9  C   UNL     1       2.619   2.487  21.490  0.00  0.00    +0.000 A 
ATOM     10  C   UNL     1       3.712   2.108  20.713  0.00  0.00    +0.000 A 
ATOM     11  C   UNL     1       4.243   2.969  19.738  0.00  0.00    +0.000 A 
ATOM     12  C   UNL     1       3.660   4.238  19.541  0.00  0.00    +0.000 A 
ATOM     13  C   UNL     1       3.861   5.373  18.703  0.00  0.00    +0.000 A 
ATOM     14  N   UNL     1       4.745   5.715  17.675  0.00  0.00    +0.000 N 
ENDROOT
BRANCH   4  15
ATOM     15  C   UNL     1       1.723   8.550  18.828  0.00  0.00    +0.000 A 
ATOM     16  C   UNL     1       1.397   8.660  20.190  0.00  0.00    +0.000 A 
ATOM     17  C   UNL     1       0.372   9.517  20.608  0.00  0.00    +0.000 A 
ATOM     18  C   UNL     1      -0.340  10.259  19.667  0.00  0.00    +0.000 A 
ATOM     19  C   UNL     1      -0.019  10.158  18.314  0.00  0.00    +0.000 A 
ATOM     20  C   UNL     1       1.009   9.308  17.893  0.00  0.00    +0.000 A 
ENDBRANCH   4  15
BRANCH  14  21
ATOM     21  C   UNL     1       5.786   4.826  17.142  0.00  0.00    +0.000 C 
BRANCH  21  22
ATOM     22  C   UNL     1       5.358   4.043  15.875  0.00  0.00    +0.000 C 
BRANCH  22  23
ATOM     23  N   UNL     1       5.593   4.720  14.578  0.00  0.00    +0.000 NA
ATOM     24  C   UNL     1       5.013   3.923  13.476  0.00  0.00    +0.000 C 
ATOM     25  C   UNL     1       6.186   3.279  12.761  0.00  0.00    +0.000 C 
ATOM     26  C   UNL     1       7.242   4.355  12.859  0.00  0.00    +0.000 C 
ATOM     27  C   UNL     1       7.019   4.922  14.256  0.00  0.00    +0.000 C 
ENDBRANCH  22  23
ENDBRANCH  21  22
ENDBRANCH  14  21
TORSDOF 4
ENDMDL
MODEL 5
REMARK VINA RESULT:      -7.6      1.341      1.824
REMARK  Name = 
REMARK  4 active torsions:
REMARK  status: ('A' for Active; 'I' for Inactive)
REMARK    1  A    between atoms: C_4  and  C_5
REMARK    2  A    between atoms: N_20  and  C_21
REMARK    3  A    between atoms: C_21  and  C_22
REMARK    4  A    between atoms: C_22  and  N_23
REMARK                            x       y       z     vdW  Elec       q    Type
REMARK                         _______ _______ _______ _____ _____    ______ ____
ROOT
ATOM      1  O   UNL     1       5.038   7.281  16.175  0.00  0.00    +0.000 OA
ATOM      2  C   UNL     1       4.333   6.970  17.132  0.00  0.00    +0.000 A 
ATOM      3  N   UNL     1       3.363   7.856  17.569  0.00  0.00    +0.000 NA
ATOM      4  C   UNL     1       2.576   7.584  18.563  0.00  0.00    +0.000 A 
ATOM      5  C   UNL     1       2.715   6.313  19.200  0.00  0.00    +0.000 A 
ATOM      6  O   UNL     1       1.929   5.856  20.199  0.00  0.00    +0.000 OA
ATOM      7  C   UNL     1       2.384   4.605  20.492  0.00  0.00    +0.000 A 
ATOM      8  C   UNL     1       1.848   3.780  21.482  0.00  0.00    +0.000 A 
ATOM      9  C   UNL     1       2.436   2.524  21.640  0.00  0.00    +0.000 A 
ATOM     10  C   UNL     1       3.504   2.128  20.837  0.00  0.00    +0.000 A 
ATOM     11  C   UNL     1       4.025   2.979  19.850  0.00  0.00    +0.000 A 
ATOM     12  C   UNL     1       3.458   4.257  19.665  0.00  0.00    +0.000 A 
ATOM     13  C   UNL     1       3.657   5.389  18.821  0.00  0.00    +0.000 A 
ATOM     14  N   UNL     1       4.521   5.716  17.773  0.00  0.00    +0.000 N 
ENDROOT
BRANCH   4  15
ATOM     15  C   UNL     1       1.572   8.598  18.995  0.00  0.00    +0.000 A 
ATOM     16  C   UNL     1       0.982   9.419  18.019  0.00  0.00    +0.000 A 
ATOM     17  C   UNL     1       0.106  10.445  18.389  0.00  0.00    +0.000 A 
ATOM     18  C   UNL     1      -0.178  10.664  19.735  0.00  0.00    +0.000 A 
ATOM     19  C   UNL     1       0.399   9.850  20.710  0.00  0.00    +0.000 A 
ATOM     20  C   UNL     1       1.271   8.820  20.343  0.00  0.00    +0.000 A 
ENDBRANCH   4  15
BRANCH  14  21
ATOM     21  C   UNL     1       5.535   4.811  17.216  0.00  0.00    +0.000 C 
BRANCH  21  22
ATOM     22  C   UNL     1       5.084   4.074  15.929  0.00  0.00    +0.000 C 
BRANCH  22  23
ATOM     23  N   UNL     1       6.164   3.627  15.019  0.00  0.00    +0.000 NA
ATOM     24  C   UNL     1       7.332   4.526  15.134  0.00  0.00    +0.000 C 
ATOM     25  C   UNL     1       7.334   5.376  13.878  0.00  0.00    +0.000 C 
ATOM     26  C   UNL     1       6.839   4.398  12.838  0.00  0.00    +0.000 C 
ATOM     27  C   UNL     1       5.779   3.608  13.593  0.00  0.00    +0.000 C 
ENDBRANCH  22  23
ENDBRANCH  21  22
ENDBRANCH  14  21
TORSDOF 4
ENDMDL
MODEL 6
REMARK VINA RESULT:      -7.6      1.877      2.640
REMARK  Name = 
REMARK  4 active torsions:
REMARK  status: ('A' for Active; 'I' for Inactive)
REMARK    1  A    between atoms: C_4  and  C_5
REMARK    2  A    between atoms: N_20  and  C_21
REMARK    3  A    between atoms: C_21  and  C_22
REMARK    4  A    between atoms: C_22  and  N_23
REMARK                            x       y       z     vdW  Elec       q    Type
REMARK                         _______ _______ _______ _____ _____    ______ ____
ROOT
ATOM      1  O   UNL     1       3.344   8.509  16.772  0.00  0.00    +0.000 OA
ATOM      2  C   UNL     1       2.977   7.944  17.800  0.00  0.00    +0.000 A 
ATOM      3  N   UNL     1       2.201   8.640  18.710  0.00  0.00    +0.000 NA
ATOM      4  C   UNL     1       1.769   8.099  19.806  0.00  0.00    +0.000 A 
ATOM      5  C   UNL     1       2.096   6.731  20.052  0.00  0.00    +0.000 A 
ATOM      6  O   UNL     1       1.665   6.009  21.110  0.00  0.00    +0.000 OA
ATOM      7  C   UNL     1       2.183   4.758  20.947  0.00  0.00    +0.000 A 
ATOM      8  C   UNL     1       1.984   3.699  21.832  0.00  0.00    +0.000 A 
ATOM      9  C   UNL     1       2.585   2.482  21.502  0.00  0.00    +0.000 A 
ATOM     10  C   UNL     1       3.341   2.350  20.339  0.00  0.00    +0.000 A 
ATOM     11  C   UNL     1       3.526   3.435  19.466  0.00  0.00    +0.000 A 
ATOM     12  C   UNL     1       2.937   4.679  19.771  0.00  0.00    +0.000 A 
ATOM     13  C   UNL     1       2.864   5.982  19.196  0.00  0.00    +0.000 A 
ATOM     14  N   UNL     1       3.352   6.594  18.038  0.00  0.00    +0.000 N 
ENDROOT
BRANCH   4  15
ATOM     15  C   UNL     1       0.959   8.920  20.752  0.00  0.00    +0.000 A 
ATOM     16  C   UNL     1       1.123   8.712  22.132  0.00  0.00    +0.000 A 
ATOM     17  C   UNL     1       0.319   9.392  23.053  0.00  0.00    +0.000 A 
ATOM     18  C   UNL     1      -0.660  10.275  22.601  0.00  0.00    +0.000 A 
ATOM     19  C   UNL     1      -0.825  10.491  21.234  0.00  0.00    +0.000 A 
ATOM     20  C   UNL     1      -0.019   9.818  20.310  0.00  0.00    +0.000 A 
ENDBRANCH   4  15
BRANCH  14  21
ATOM     21  C   UNL     1       4.132   5.908  17.000  0.00  0.00    +0.000 C 
BRANCH  21  22
ATOM     22  C   UNL     1       5.590   5.586  17.418  0.00  0.00    +0.000 C 
BRANCH  22  23
ATOM     23  N   UNL     1       6.239   4.459  16.709  0.00  0.00    +0.000 NA
ATOM     24  C   UNL     1       7.431   4.936  15.976  0.00  0.00    +0.000 C 
ATOM     25  C   UNL     1       7.044   4.956  14.510  0.00  0.00    +0.000 C 
ATOM     26  C   UNL     1       6.142   3.747  14.408  0.00  0.00    +0.000 C 
ATOM     27  C   UNL     1       5.369   3.790  15.720  0.00  0.00    +0.000 C 
ENDBRANCH  22  23
ENDBRANCH  21  22
ENDBRANCH  14  21
TORSDOF 4
ENDMDL
MODEL 7
REMARK VINA RESULT:      -7.5      1.950      2.731
REMARK  Name = 
REMARK  4 active torsions:
REMARK  status: ('A' for Active; 'I' for Inactive)
REMARK    1  A    between atoms: C_4  and  C_5
REMARK    2  A    between atoms: N_20  and  C_21
REMARK    3  A    between atoms: C_21  and  C_22
REMARK    4  A    between atoms: C_22  and  N_23
REMARK                            x       y       z     vdW  Elec       q    Type
REMARK                         _______ _______ _______ _____ _____    ______ ____
ROOT
ATOM      1  O   UNL     1       4.607   7.203  15.767  0.00  0.00    +0.000 OA
ATOM      2  C   UNL     1       4.025   6.930  16.814  0.00  0.00    +0.000 A 
ATOM      3  N   UNL     1       3.158   7.857  17.364  0.00  0.00    +0.000 NA
ATOM      4  C   UNL     1       2.501   7.627  18.457  0.00  0.00    +0.000 A 
ATOM      5  C   UNL     1       2.675   6.357  19.088  0.00  0.00    +0.000 A 
ATOM      6  O   UNL     1       2.013   5.941  20.190  0.00  0.00    +0.000 OA
ATOM      7  C   UNL     1       2.454   4.675  20.438  0.00  0.00    +0.000 A 
ATOM      8  C   UNL     1       2.024   3.882  21.502  0.00  0.00    +0.000 A 
ATOM      9  C   UNL     1       2.578   2.604  21.598  0.00  0.00    +0.000 A 
ATOM     10  C   UNL     1       3.513   2.158  20.665  0.00  0.00    +0.000 A 
ATOM     11  C   UNL     1       3.929   2.979  19.605  0.00  0.00    +0.000 A 
ATOM     12  C   UNL     1       3.393   4.277  19.480  0.00  0.00    +0.000 A 
ATOM     13  C   UNL     1       3.521   5.392  18.601  0.00  0.00    +0.000 A 
ATOM     14  N   UNL     1       4.248   5.674  17.441  0.00  0.00    +0.000 N 
ENDROOT
BRANCH   4  15
ATOM     15  C   UNL     1       1.605   8.685  19.005  0.00  0.00    +0.000 A 
ATOM     16  C   UNL     1       1.363   8.711  20.389  0.00  0.00    +0.000 A 
ATOM     17  C   UNL     1       0.457   9.627  20.934  0.00  0.00    +0.000 A 
ATOM     18  C   UNL     1      -0.220  10.515  20.100  0.00  0.00    +0.000 A 
ATOM     19  C   UNL     1       0.018  10.498  18.726  0.00  0.00    +0.000 A 
ATOM     20  C   UNL     1       0.928   9.588  18.178  0.00  0.00    +0.000 A 
ENDBRANCH   4  15
BRANCH  14  21
ATOM     21  C   UNL     1       5.143   4.723  16.767  0.00  0.00    +0.000 C 
BRANCH  21  22
ATOM     22  C   UNL     1       6.298   5.395  15.982  0.00  0.00    +0.000 C 
BRANCH  22  23
ATOM     23  N   UNL     1       7.553   5.626  16.735  0.00  0.00    +0.000 NA
ATOM     24  C   UNL     1       7.646   4.683  17.869  0.00  0.00    +0.000 C 
ATOM     25  C   UNL     1       7.359   5.496  19.117  0.00  0.00    +0.000 C 
ATOM     26  C   UNL     1       7.994   6.825  18.778  0.00  0.00    +0.000 C 
ATOM     27  C   UNL     1       7.674   6.986  17.298  0.00  0.00    +0.000 C 
ENDBRANCH  22  23
ENDBRANCH  21  22
ENDBRANCH  14  21
TORSDOF 4
ENDMDL
MODEL 8
REMARK VINA RESULT:      -7.5      2.386      3.085
REMARK  Name = 
REMARK  4 active torsions:
REMARK  status: ('A' for Active; 'I' for Inactive)
REMARK    1  A    between atoms: C_4  and  C_5
REMARK    2  A    between atoms: N_20  and  C_21
REMARK    3  A    between atoms: C_21  and  C_22
REMARK    4  A    between atoms: C_22  and  N_23
REMARK                            x       y       z     vdW  Elec       q    Type
REMARK                         _______ _______ _______ _____ _____    ______ ____
ROOT
ATOM      1  O   UNL     1       3.652   7.988  16.491  0.00  0.00    +0.000 OA
ATOM      2  C   UNL     1       3.222   7.499  17.533  0.00  0.00    +0.000 A 
ATOM      3  N   UNL     1       2.471   8.287  18.387  0.00  0.00    +0.000 NA
ATOM      4  C   UNL     1       1.976   7.829  19.494  0.00  0.00    +0.000 A 
ATOM      5  C   UNL     1       2.205   6.456  19.813  0.00  0.00    +0.000 A 
ATOM      6  O   UNL     1       1.700   5.815  20.891  0.00  0.00    +0.000 OA
ATOM      7  C   UNL     1       2.137   4.527  20.800  0.00  0.00    +0.000 A 
ATOM      8  C   UNL     1       1.846   3.527  21.728  0.00  0.00    +0.000 A 
ATOM      9  C   UNL     1       2.373   2.259  21.472  0.00  0.00    +0.000 A 
ATOM     10  C   UNL     1       3.148   2.022  20.338  0.00  0.00    +0.000 A 
ATOM     11  C   UNL     1       3.427   3.049  19.422  0.00  0.00    +0.000 A 
ATOM     12  C   UNL     1       2.914   4.343  19.651  0.00  0.00    +0.000 A 
ATOM     13  C   UNL     1       2.943   5.618  19.015  0.00  0.00    +0.000 A 
ATOM     14  N   UNL     1       3.500   6.141  17.845  0.00  0.00    +0.000 N 
ENDROOT
BRANCH   4  15
ATOM     15  C   UNL     1       1.199   8.745  20.378  0.00  0.00    +0.000 A 
ATOM     16  C   UNL     1       1.343   8.619  21.769  0.00  0.00    +0.000 A 
ATOM     17  C   UNL     1       0.565   9.393  22.637  0.00  0.00    +0.000 A 
ATOM     18  C   UNL     1      -0.368  10.291  22.120  0.00  0.00    +0.000 A 
ATOM     19  C   UNL     1      -0.513  10.426  20.740  0.00  0.00    +0.000 A 
ATOM     20  C   UNL     1       0.267   9.657  19.870  0.00  0.00    +0.000 A 
ENDBRANCH   4  15
BRANCH  14  21
ATOM     21  C   UNL     1       4.259   5.356  16.861  0.00  0.00    +0.000 C 
BRANCH  21  22
ATOM     22  C   UNL     1       5.507   4.648  17.450  0.00  0.00    +0.000 C 
BRANCH  22  23
ATOM     23  N   UNL     1       6.815   5.277  17.156  0.00  0.00    +0.000 NA
ATOM     24  C   UNL     1       7.797   4.924  18.203  0.00  0.00    +0.000 C 
ATOM     25  C   UNL     1       7.974   6.169  19.051  0.00  0.00    +0.000 C 
ATOM     26  C   UNL     1       7.862   7.268  18.020  0.00  0.00    +0.000 C 
ATOM     27  C   UNL     1       6.771   6.752  17.091  0.00  0.00    +0.000 C 
ENDBRANCH  22  23
ENDBRANCH  21  22
ENDBRANCH  14  21
TORSDOF 4
ENDMDL
MODEL 9
REMARK VINA RESULT:      -7.5      2.087      2.960
REMARK  Name = 
REMARK  4 active torsions:
REMARK  status: ('A' for Active; 'I' for Inactive)
REMARK    1  A    between atoms: C_4  and  C_5
REMARK    2  A    between atoms: N_20  and  C_21
REMARK    3  A    between atoms: C_21  and  C_22
REMARK    4  A    between atoms: C_22  and  N_23
REMARK                            x       y       z     vdW  Elec       q    Type
REMARK                         _______ _______ _______ _____ _____    ______ ____
ROOT
ATOM      1  O   UNL     1       4.247   7.604  16.041  0.00  0.00    +0.000 OA
ATOM      2  C   UNL     1       3.730   7.231  17.092  0.00  0.00    +0.000 A 
ATOM      3  N   UNL     1       2.870   8.085  17.759  0.00  0.00    +0.000 NA
ATOM      4  C   UNL     1       2.281   7.747  18.864  0.00  0.00    +0.000 A 
ATOM      5  C   UNL     1       2.523   6.438  19.379  0.00  0.00    +0.000 A 
ATOM      6  O   UNL     1       1.933   5.915  20.477  0.00  0.00    +0.000 OA
ATOM      7  C   UNL     1       2.420   4.647  20.598  0.00  0.00    +0.000 A 
ATOM      8  C   UNL     1       2.070   3.759  21.615  0.00  0.00    +0.000 A 
ATOM      9  C   UNL     1       2.663   2.496  21.578  0.00  0.00    +0.000 A 
ATOM     10  C   UNL     1       3.556   2.154  20.564  0.00  0.00    +0.000 A 
ATOM     11  C   UNL     1       3.892   3.069  19.554  0.00  0.00    +0.000 A 
ATOM     12  C   UNL     1       3.316   4.356  19.562  0.00  0.00    +0.000 A 
ATOM     13  C   UNL     1       3.365   5.541  18.771  0.00  0.00    +0.000 A 
ATOM     14  N   UNL     1       4.021   5.937  17.602  0.00  0.00    +0.000 N 
ENDROOT
BRANCH   4  15
ATOM     15  C   UNL     1       1.388   8.730  19.542  0.00  0.00    +0.000 A 
ATOM     16  C   UNL     1       0.746   9.706  18.762  0.00  0.00    +0.000 A 
ATOM     17  C   UNL     1      -0.026  10.704  19.365  0.00  0.00    +0.000 A 
ATOM     18  C   UNL     1      -0.153  10.739  20.753  0.00  0.00    +0.000 A 
ATOM     19  C   UNL     1       0.477   9.772  21.534  0.00  0.00    +0.000 A 
ATOM     20  C   UNL     1       1.245   8.769  20.933  0.00  0.00    +0.000 A 
ENDBRANCH   4  15
BRANCH  14  21
ATOM     21  C   UNL     1       4.902   5.071  16.807  0.00  0.00    +0.000 C 
BRANCH  21  22
ATOM     22  C   UNL     1       5.971   5.841  15.990  0.00  0.00    +0.000 C 
BRANCH  22  23
ATOM     23  N   UNL     1       7.317   5.936  16.602  0.00  0.00    +0.000 NA
ATOM     24  C   UNL     1       7.504   4.855  17.592  0.00  0.00    +0.000 C 
ATOM     25  C   UNL     1       7.407   5.512  18.956  0.00  0.00    +0.000 C 
ATOM     26  C   UNL     1       8.057   6.853  18.704  0.00  0.00    +0.000 C 
ATOM     27  C   UNL     1       7.567   7.210  17.307  0.00  0.00    +0.000 C 
ENDBRANCH  22  23
ENDBRANCH  21  22
ENDBRANCH  14  21
TORSDOF 4
ENDMDL
