MODEL 1
REMARK VINA RESULT:      -8.8      0.000      0.000
REMARK  Name = 
REMARK  6 active torsions:
REMARK  status: ('A' for Active; 'I' for Inactive)
REMARK    1  A    between atoms: C_1  and  C_2
REMARK    2  A    between atoms: C_2  and  C_4
REMARK    3  A    between atoms: C_8  and  N_9
REMARK    4  A    between atoms: C_10  and  C_12
REMARK    5  A    between atoms: C_12  and  N_13
REMARK    6  A    between atoms: C_14  and  C_16
REMARK                            x       y       z     vdW  Elec       q    Type
REMARK                         _______ _______ _______ _____ _____    ______ ____
ROOT
ATOM      1  C   UNL     1       6.206   4.706  18.493  0.00  0.00    +0.000 C 
ENDROOT
BRANCH   1   3
ATOM      2  N   UNL     1       6.036   4.724  16.026  0.00  0.00    +0.000 N 
ATOM      3  C   UNL     1       6.875   4.547  17.124  0.00  0.00    +0.000 C 
ATOM      4  O   UNL     1       8.062   4.205  17.084  0.00  0.00    +0.000 OA
ATOM      5  H   UNL     1       5.047   4.867  16.229  0.00  0.00    +0.000 HD
BRANCH   2  10
ATOM      6  C   UNL     1       6.026   3.572  12.462  0.00  0.00    +0.000 A 
ATOM      7  C   UNL     1       7.135   4.251  11.947  0.00  0.00    +0.000 A 
ATOM      8  C   UNL     1       7.857   5.110  12.767  0.00  0.00    +0.000 A 
ATOM      9  C   UNL     1       7.488   5.285  14.101  0.00  0.00    +0.000 A 
ATOM     10  C   UNL     1       6.402   4.602  14.656  0.00  0.00    +0.000 A 
ATOM     11  C   UNL     1       5.659   3.754  13.816  0.00  0.00    +0.000 A 
BRANCH   6  13
ATOM     12  C   UNL     1       3.916   3.123  11.021  0.00  0.00    +0.000 C 
ATOM     13  C   UNL     1       5.232   2.646  11.594  0.00  0.00    +0.000 C 
ATOM     14  O   UNL     1       5.662   1.520  11.349  0.00  0.00    +0.000 OA
ENDBRANCH   6  13
ENDBRANCH   2  10
ENDBRANCH   1   3
BRANCH   1  15
ATOM     15  N   UNL     1       5.273   5.827  18.503  0.00  0.00    +0.000 N 
ATOM     16  C   UNL     1       4.055   5.646  19.114  0.00  0.00    +0.000 C 
ATOM     17  O   UNL     1       3.806   4.550  19.628  0.00  0.00    +0.000 OA
ATOM     18  H   UNL     1       5.587   6.758  18.255  0.00  0.00    +0.000 HD
BRANCH  16  19
ATOM     19  C   UNL     1       3.095   6.730  19.169  0.00  0.00    +0.000 A 
ATOM     20  C   UNL     1       2.767   7.544  18.103  0.00  0.00    +0.000 A 
ATOM     21  C   UNL     1       1.807   8.466  18.543  0.00  0.00    +0.000 A 
ATOM     22  C   UNL     1       1.103   9.508  17.922  0.00  0.00    +0.000 A 
ATOM     23  C   UNL     1       0.209  10.262  18.680  0.00  0.00    +0.000 A 
ATOM     24  C   UNL     1       0.025   9.985  20.038  0.00  0.00    +0.000 A 
ATOM     25  C   UNL     1       0.716   8.935  20.678  0.00  0.00    +0.000 A 
ATOM     26  C   UNL     1       1.603   8.192  19.896  0.00  0.00    +0.000 A 
ATOM     27  O   UNL     1       2.390   7.121  20.284  0.00  0.00    +0.000 OA
ENDBRANCH  16  19
ENDBRANCH   1  15
TORSDOF 5
ENDMDL
MODEL 2
REMARK VINA RESULT:      -8.4      5.757      8.001
REMARK  Name = 
REMARK  6 active torsions:
REMARK  status: ('A' for Active; 'I' for Inactive)
REMARK    1  A    between atoms: C_1  and  C_2
REMARK    2  A    between atoms: C_2  and  C_4
REMARK    3  A    between atoms: C_8  and  N_9
REMARK    4  A    between atoms: C_10  and  C_12
REMARK    5  A    between atoms: C_12  and  N_13
REMARK    6  A    between atoms: C_14  and  C_16
REMARK                            x       y       z     vdW  Elec       q    Type
REMARK                         _______ _______ _______ _____ _____    ______ ____
ROOT
ATOM      1  C   UNL     1       7.935   7.129  17.804  0.00  0.00    +0.000 C 
ENDROOT
BRANCH   1   3
ATOM      2  N   UNL     1       9.038   9.032  18.933  0.00  0.00    +0.000 N 
ATOM      3  C   UNL     1       8.055   8.639  18.027  0.00  0.00    +0.000 C 
ATOM      4  O   UNL     1       7.244   9.385  17.466  0.00  0.00    +0.000 OA
ATOM      5  H   UNL     1       9.533   8.285  19.418  0.00  0.00    +0.000 HD
BRANCH   2  10
ATOM      6  C   UNL     1      10.069  12.628  18.746  0.00  0.00    +0.000 A 
ATOM      7  C   UNL     1      10.007  13.006  20.090  0.00  0.00    +0.000 A 
ATOM      8  C   UNL     1       9.593  12.085  21.045  0.00  0.00    +0.000 A 
ATOM      9  C   UNL     1       9.254  10.785  20.668  0.00  0.00    +0.000 A 
ATOM     10  C   UNL     1       9.330  10.365  19.336  0.00  0.00    +0.000 A 
ATOM     11  C   UNL     1       9.724  11.308  18.371  0.00  0.00    +0.000 A 
BRANCH   6  13
ATOM     12  C   UNL     1      11.576  13.197  16.712  0.00  0.00    +0.000 C 
ATOM     13  C   UNL     1      10.508  13.607  17.701  0.00  0.00    +0.000 C 
ATOM     14  O   UNL     1       9.991  14.722  17.654  0.00  0.00    +0.000 OA
ENDBRANCH   6  13
ENDBRANCH   2  10
ENDBRANCH   1   3
BRANCH   1  15
ATOM     15  N   UNL     1       6.573   6.663  18.033  0.00  0.00    +0.000 N 
ATOM     16  C   UNL     1       6.399   5.384  18.506  0.00  0.00    +0.000 C 
ATOM     17  O   UNL     1       7.399   4.689  18.718  0.00  0.00    +0.000 OA
ATOM     18  H   UNL     1       5.800   7.320  18.042  0.00  0.00    +0.000 HD
BRANCH  16  19
ATOM     19  C   UNL     1       5.069   4.875  18.769  0.00  0.00    +0.000 A 
ATOM     20  C   UNL     1       4.442   3.894  18.026  0.00  0.00    +0.000 A 
ATOM     21  C   UNL     1       3.177   3.670  18.587  0.00  0.00    +0.000 A 
ATOM     22  C   UNL     1       2.118   2.803  18.282  0.00  0.00    +0.000 A 
ATOM     23  C   UNL     1       0.960   2.856  19.056  0.00  0.00    +0.000 A 
ATOM     24  C   UNL     1       0.858   3.763  20.114  0.00  0.00    +0.000 A 
ATOM     25  C   UNL     1       1.916   4.636  20.443  0.00  0.00    +0.000 A 
ATOM     26  C   UNL     1       3.066   4.561  19.655  0.00  0.00    +0.000 A 
ATOM     27  O   UNL     1       4.231   5.301  19.774  0.00  0.00    +0.000 OA
ENDBRANCH  16  19
ENDBRANCH   1  15
TORSDOF 5
ENDMDL
MODEL 3
REMARK VINA RESULT:      -8.3      5.163      7.690
REMARK  Name = 
REMARK  6 active torsions:
REMARK  status: ('A' for Active; 'I' for Inactive)
REMARK    1  A    between atoms: C_1  and  C_2
REMARK    2  A    between atoms: C_2  and  C_4
REMARK    3  A    between atoms: C_8  and  N_9
REMARK    4  A    between atoms: C_10  and  C_12
REMARK    5  A    between atoms: C_12  and  N_13
REMARK    6  A    between atoms: C_14  and  C_16
REMARK                            x       y       z     vdW  Elec       q    Type
REMARK                         _______ _______ _______ _____ _____    ______ ____
ROOT
ATOM      1  C   UNL     1       7.550   5.873  17.933  0.00  0.00    +0.000 C 
ENDROOT
BRANCH   1   3
ATOM      2  N   UNL     1       5.123   5.849  18.404  0.00  0.00    +0.000 N 
ATOM      3  C   UNL     1       6.394   5.529  18.877  0.00  0.00    +0.000 C 
ATOM      4  O   UNL     1       6.661   5.076  19.996  0.00  0.00    +0.000 OA
ATOM      5  H   UNL     1       5.081   6.346  17.516  0.00  0.00    +0.000 HD
BRANCH   2  10
ATOM      6  C   UNL     1       2.245   4.133  20.079  0.00  0.00    +0.000 A 
ATOM      7  C   UNL     1       1.419   5.216  20.391  0.00  0.00    +0.000 A 
ATOM      8  C   UNL     1       1.830   6.507  20.080  0.00  0.00    +0.000 A 
ATOM      9  C   UNL     1       3.054   6.722  19.446  0.00  0.00    +0.000 A 
ATOM     10  C   UNL     1       3.894   5.660  19.096  0.00  0.00    +0.000 A 
ATOM     11  C   UNL     1       3.485   4.359  19.436  0.00  0.00    +0.000 A 
BRANCH   6  13
ATOM     12  C   UNL     1       1.636   2.348  21.861  0.00  0.00    +0.000 C 
ATOM     13  C   UNL     1       1.822   2.735  20.410  0.00  0.00    +0.000 C 
ATOM     14  O   UNL     1       1.623   1.927  19.505  0.00  0.00    +0.000 OA
ENDBRANCH   6  13
ENDBRANCH   2  10
ENDBRANCH   1   3
BRANCH   1  15
ATOM     15  N   UNL     1       8.223   7.101  18.341  0.00  0.00    +0.000 N 
ATOM     16  C   UNL     1       7.813   8.281  17.767  0.00  0.00    +0.000 C 
ATOM     17  O   UNL     1       6.898   8.251  16.938  0.00  0.00    +0.000 OA
ATOM     18  H   UNL     1       8.820   7.112  19.160  0.00  0.00    +0.000 HD
BRANCH  16  19
ATOM     19  C   UNL     1       8.434   9.534  18.147  0.00  0.00    +0.000 A 
ATOM     20  C   UNL     1       9.297   9.692  19.213  0.00  0.00    +0.000 A 
ATOM     21  C   UNL     1       9.687  11.038  19.257  0.00  0.00    +0.000 A 
ATOM     22  C   UNL     1      10.541  11.776  20.089  0.00  0.00    +0.000 A 
ATOM     23  C   UNL     1      10.692  13.142  19.857  0.00  0.00    +0.000 A 
ATOM     24  C   UNL     1       9.998  13.763  18.815  0.00  0.00    +0.000 A 
ATOM     25  C   UNL     1       9.142  13.037  17.961  0.00  0.00    +0.000 A 
ATOM     26  C   UNL     1       9.011  11.668  18.212  0.00  0.00    +0.000 A 
ATOM     27  O   UNL     1       8.242  10.746  17.523  0.00  0.00    +0.000 OA
ENDBRANCH  16  19
ENDBRANCH   1  15
TORSDOF 5
ENDMDL
MODEL 4
REMARK VINA RESULT:      -8.2      5.564      8.253
REMARK  Name = 
REMARK  6 active torsions:
REMARK  status: ('A' for Active; 'I' for Inactive)
REMARK    1  A    between atoms: C_1  and  C_2
REMARK    2  A    between atoms: C_2  and  C_4
REMARK    3  A    between atoms: C_8  and  N_9
REMARK    4  A    between atoms: C_10  and  C_12
REMARK    5  A    between atoms: C_12  and  N_13
REMARK    6  A    between atoms: C_14  and  C_16
REMARK                            x       y       z     vdW  Elec       q    Type
REMARK                         _______ _______ _______ _____ _____    ______ ____
ROOT
ATOM      1  C   UNL     1       8.122   6.515  18.532  0.00  0.00    +0.000 C 
ENDROOT
BRANCH   1   3
ATOM      2  N   UNL     1       8.969   8.762  19.125  0.00  0.00    +0.000 N 
ATOM      3  C   UNL     1       8.167   8.022  18.258  0.00  0.00    +0.000 C 
ATOM      4  O   UNL     1       7.450   8.480  17.362  0.00  0.00    +0.000 OA
ATOM      5  H   UNL     1       9.389   8.252  19.901  0.00  0.00    +0.000 HD
BRANCH   2  10
ATOM      6  C   UNL     1       9.414  12.279  20.332  0.00  0.00    +0.000 A 
ATOM      7  C   UNL     1       9.441  12.986  19.127  0.00  0.00    +0.000 A 
ATOM      8  C   UNL     1       9.348  12.297  17.923  0.00  0.00    +0.000 A 
ATOM      9  C   UNL     1       9.214  10.908  17.916  0.00  0.00    +0.000 A 
ATOM     10  C   UNL     1       9.156  10.172  19.104  0.00  0.00    +0.000 A 
ATOM     11  C   UNL     1       9.277  10.872  20.317  0.00  0.00    +0.000 A 
BRANCH   6  13
ATOM     12  C   UNL     1      10.092  14.402  21.661  0.00  0.00    +0.000 C 
ATOM     13  C   UNL     1       9.518  13.003  21.639  0.00  0.00    +0.000 C 
ATOM     14  O   UNL     1       9.128  12.459  22.670  0.00  0.00    +0.000 OA
ENDBRANCH   6  13
ENDBRANCH   2  10
ENDBRANCH   1   3
BRANCH   1  15
ATOM     15  N   UNL     1       6.772   6.075  18.863  0.00  0.00    +0.000 N 
ATOM     16  C   UNL     1       6.291   4.947  18.241  0.00  0.00    +0.000 C 
ATOM     17  O   UNL     1       7.020   4.357  17.436  0.00  0.00    +0.000 OA
ATOM     18  H   UNL     1       6.289   6.460  19.667  0.00  0.00    +0.000 HD
BRANCH  16  19
ATOM     19  C   UNL     1       4.963   4.453  18.545  0.00  0.00    +0.000 A 
ATOM     20  C   UNL     1       4.277   3.526  17.786  0.00  0.00    +0.000 A 
ATOM     21  C   UNL     1       3.036   3.301  18.398  0.00  0.00    +0.000 A 
ATOM     22  C   UNL     1       1.943   2.474  18.103  0.00  0.00    +0.000 A 
ATOM     23  C   UNL     1       0.826   2.512  18.937  0.00  0.00    +0.000 A 
ATOM     24  C   UNL     1       0.799   3.365  20.043  0.00  0.00    +0.000 A 
ATOM     25  C   UNL     1       1.892   4.197  20.362  0.00  0.00    +0.000 A 
ATOM     26  C   UNL     1       3.000   4.138  19.514  0.00  0.00    +0.000 A 
ATOM     27  O   UNL     1       4.187   4.845  19.612  0.00  0.00    +0.000 OA
ENDBRANCH  16  19
ENDBRANCH   1  15
TORSDOF 5
ENDMDL
MODEL 5
REMARK VINA RESULT:      -8.2      5.203      7.669
REMARK  Name = 
REMARK  6 active torsions:
REMARK  status: ('A' for Active; 'I' for Inactive)
REMARK    1  A    between atoms: C_1  and  C_2
REMARK    2  A    between atoms: C_2  and  C_4
REMARK    3  A    between atoms: C_8  and  N_9
REMARK    4  A    between atoms: C_10  and  C_12
REMARK    5  A    between atoms: C_12  and  N_13
REMARK    6  A    between atoms: C_14  and  C_16
REMARK                            x       y       z     vdW  Elec       q    Type
REMARK                         _______ _______ _______ _____ _____    ______ ____
ROOT
ATOM      1  C   UNL     1       7.603   5.876  18.096  0.00  0.00    +0.000 C 
ENDROOT
BRANCH   1   3
ATOM      2  N   UNL     1       5.164   5.855  18.505  0.00  0.00    +0.000 N 
ATOM      3  C   UNL     1       6.418   5.479  18.982  0.00  0.00    +0.000 C 
ATOM      4  O   UNL     1       6.650   4.937  20.068  0.00  0.00    +0.000 OA
ATOM      5  H   UNL     1       5.152   6.421  17.657  0.00  0.00    +0.000 HD
BRANCH   2  10
ATOM      6  C   UNL     1       2.280   4.064  20.088  0.00  0.00    +0.000 A 
ATOM      7  C   UNL     1       1.406   5.123  20.353  0.00  0.00    +0.000 A 
ATOM      8  C   UNL     1       1.786   6.423  20.040  0.00  0.00    +0.000 A 
ATOM      9  C   UNL     1       3.027   6.671  19.452  0.00  0.00    +0.000 A 
ATOM     10  C   UNL     1       3.915   5.634  19.150  0.00  0.00    +0.000 A 
ATOM     11  C   UNL     1       3.536   4.324  19.492  0.00  0.00    +0.000 A 
BRANCH   6  13
ATOM     12  C   UNL     1       1.589   2.300  21.861  0.00  0.00    +0.000 C 
ATOM     13  C   UNL     1       1.891   2.658  20.422  0.00  0.00    +0.000 C 
ATOM     14  O   UNL     1       1.812   1.818  19.527  0.00  0.00    +0.000 OA
ENDBRANCH   6  13
ENDBRANCH   2  10
ENDBRANCH   1   3
BRANCH   1  15
ATOM     15  N   UNL     1       8.243   7.095  18.578  0.00  0.00    +0.000 N 
ATOM     16  C   UNL     1       8.002   8.263  17.896  0.00  0.00    +0.000 C 
ATOM     17  O   UNL     1       7.255   8.232  16.912  0.00  0.00    +0.000 OA
ATOM     18  H   UNL     1       8.677   7.119  19.494  0.00  0.00    +0.000 HD
BRANCH  16  19
ATOM     19  C   UNL     1       8.597   9.507  18.340  0.00  0.00    +0.000 A 
ATOM     20  C   UNL     1       8.533  10.701  17.649  0.00  0.00    +0.000 A 
ATOM     21  C   UNL     1       9.219  11.669  18.394  0.00  0.00    +0.000 A 
ATOM     22  C   UNL     1       9.474  13.036  18.212  0.00  0.00    +0.000 A 
ATOM     23  C   UNL     1      10.229  13.713  19.168  0.00  0.00    +0.000 A 
ATOM     24  C   UNL     1      10.727  13.037  20.284  0.00  0.00    +0.000 A 
ATOM     25  C   UNL     1      10.474  11.665  20.491  0.00  0.00    +0.000 A 
ATOM     26  C   UNL     1       9.711  11.010  19.521  0.00  0.00    +0.000 A 
ATOM     27  O   UNL     1       9.326   9.680  19.495  0.00  0.00    +0.000 OA
ENDBRANCH  16  19
ENDBRANCH   1  15
TORSDOF 5
ENDMDL
MODEL 6
REMARK VINA RESULT:      -8.2      5.749      7.930
REMARK  Name = 
REMARK  6 active torsions:
REMARK  status: ('A' for Active; 'I' for Inactive)
REMARK    1  A    between atoms: C_1  and  C_2
REMARK    2  A    between atoms: C_2  and  C_4
REMARK    3  A    between atoms: C_8  and  N_9
REMARK    4  A    between atoms: C_10  and  C_12
REMARK    5  A    between atoms: C_12  and  N_13
REMARK    6  A    between atoms: C_14  and  C_16
REMARK                            x       y       z     vdW  Elec       q    Type
REMARK                         _______ _______ _______ _____ _____    ______ ____
ROOT
ATOM      1  C   UNL     1       7.317   7.472  16.996  0.00  0.00    +0.000 C 
ENDROOT
BRANCH   1   3
ATOM      2  N   UNL     1       8.328   9.616  17.700  0.00  0.00    +0.000 N 
ATOM      3  C   UNL     1       8.158   8.266  18.000  0.00  0.00    +0.000 C 
ATOM      4  O   UNL     1       8.682   7.659  18.941  0.00  0.00    +0.000 OA
ATOM      5  H   UNL     1       7.945   9.935  16.811  0.00  0.00    +0.000 HD
BRANCH   2  10
ATOM      6  C   UNL     1      10.495  12.565  18.499  0.00  0.00    +0.000 A 
ATOM      7  C   UNL     1      10.675  12.413  19.877  0.00  0.00    +0.000 A 
ATOM      8  C   UNL     1      10.053  11.362  20.540  0.00  0.00    +0.000 A 
ATOM      9  C   UNL     1       9.265  10.452  19.834  0.00  0.00    +0.000 A 
ATOM     10  C   UNL     1       9.085  10.559  18.451  0.00  0.00    +0.000 A 
ATOM     11  C   UNL     1       9.695  11.639  17.790  0.00  0.00    +0.000 A 
BRANCH   6  13
ATOM     12  C   UNL     1      12.330  13.398  16.865  0.00  0.00    +0.000 C 
ATOM     13  C   UNL     1      11.152  13.694  17.768  0.00  0.00    +0.000 C 
ATOM     14  O   UNL     1      10.723  14.838  17.900  0.00  0.00    +0.000 OA
ENDBRANCH   6  13
ENDBRANCH   2  10
ENDBRANCH   1   3
BRANCH   1  15
ATOM     15  N   UNL     1       6.097   6.962  17.609  0.00  0.00    +0.000 N 
ATOM     16  C   UNL     1       5.820   5.622  17.476  0.00  0.00    +0.000 C 
ATOM     17  O   UNL     1       6.613   4.912  16.848  0.00  0.00    +0.000 OA
ATOM     18  H   UNL     1       5.584   7.525  18.279  0.00  0.00    +0.000 HD
BRANCH  16  19
ATOM     19  C   UNL     1       4.630   5.056  18.079  0.00  0.00    +0.000 A 
ATOM     20  C   UNL     1       3.801   4.136  17.470  0.00  0.00    +0.000 A 
ATOM     21  C   UNL     1       2.766   3.828  18.364  0.00  0.00    +0.000 A 
ATOM     22  C   UNL     1       1.660   2.968  18.311  0.00  0.00    +0.000 A 
ATOM     23  C   UNL     1       0.794   2.918  19.403  0.00  0.00    +0.000 A 
ATOM     24  C   UNL     1       1.026   3.716  20.526  0.00  0.00    +0.000 A 
ATOM     25  C   UNL     1       2.138   4.580  20.602  0.00  0.00    +0.000 A 
ATOM     26  C   UNL     1       2.993   4.609  19.497  0.00  0.00    +0.000 A 
ATOM     27  O   UNL     1       4.142   5.363  19.329  0.00  0.00    +0.000 OA
ENDBRANCH  16  19
ENDBRANCH   1  15
TORSDOF 5
ENDMDL
MODEL 7
REMARK VINA RESULT:      -8.1      0.877      1.001
REMARK  Name = 
REMARK  6 active torsions:
REMARK  status: ('A' for Active; 'I' for Inactive)
REMARK    1  A    between atoms: C_1  and  C_2
REMARK    2  A    between atoms: C_2  and  C_4
REMARK    3  A    between atoms: C_8  and  N_9
REMARK    4  A    between atoms: C_10  and  C_12
REMARK    5  A    between atoms: C_12  and  N_13
REMARK    6  A    between atoms: C_14  and  C_16
REMARK                            x       y       z     vdW  Elec       q    Type
REMARK                         _______ _______ _______ _____ _____    ______ ____
ROOT
ATOM      1  C   UNL     1       5.330   4.223  18.670  0.00  0.00    +0.000 C 
ENDROOT
BRANCH   1   3
ATOM      2  N   UNL     1       5.479   4.203  16.202  0.00  0.00    +0.000 N 
ATOM      3  C   UNL     1       6.173   4.365  17.399  0.00  0.00    +0.000 C 
ATOM      4  O   UNL     1       7.392   4.531  17.516  0.00  0.00    +0.000 OA
ATOM      5  H   UNL     1       4.499   3.932  16.279  0.00  0.00    +0.000 HD
BRANCH   2  10
ATOM      6  C   UNL     1       6.071   3.414  12.588  0.00  0.00    +0.000 A 
ATOM      7  C   UNL     1       7.149   4.254  12.293  0.00  0.00    +0.000 A 
ATOM      8  C   UNL     1       7.652   5.099  13.276  0.00  0.00    +0.000 A 
ATOM      9  C   UNL     1       7.094   5.101  14.555  0.00  0.00    +0.000 A 
ATOM     10  C   UNL     1       6.032   4.256  14.892  0.00  0.00    +0.000 A 
ATOM     11  C   UNL     1       5.511   3.422  13.888  0.00  0.00    +0.000 A 
BRANCH   6  13
ATOM     12  C   UNL     1       6.369   1.369  11.020  0.00  0.00    +0.000 C 
ATOM     13  C   UNL     1       5.512   2.500  11.543  0.00  0.00    +0.000 C 
ATOM     14  O   UNL     1       4.366   2.672  11.132  0.00  0.00    +0.000 OA
ENDBRANCH   6  13
ENDBRANCH   2  10
ENDBRANCH   1   3
BRANCH   1  15
ATOM     15  N   UNL     1       4.658   5.473  19.005  0.00  0.00    +0.000 N 
ATOM     16  C   UNL     1       3.377   5.660  18.542  0.00  0.00    +0.000 C 
ATOM     17  O   UNL     1       2.853   4.767  17.868  0.00  0.00    +0.000 OA
ATOM     18  H   UNL     1       5.037   6.085  19.719  0.00  0.00    +0.000 HD
BRANCH  16  19
ATOM     19  C   UNL     1       2.654   6.875  18.859  0.00  0.00    +0.000 A 
ATOM     20  C   UNL     1       2.389   7.889  17.959  0.00  0.00    +0.000 A 
ATOM     21  C   UNL     1       1.671   8.887  18.633  0.00  0.00    +0.000 A 
ATOM     22  C   UNL     1       1.125  10.120  18.248  0.00  0.00    +0.000 A 
ATOM     23  C   UNL     1       0.469  10.894  19.204  0.00  0.00    +0.000 A 
ATOM     24  C   UNL     1       0.366  10.448  20.525  0.00  0.00    +0.000 A 
ATOM     25  C   UNL     1       0.899   9.206  20.930  0.00  0.00    +0.000 A 
ATOM     26  C   UNL     1       1.548   8.448  19.952  0.00  0.00    +0.000 A 
ATOM     27  O   UNL     1       2.147   7.208  20.094  0.00  0.00    +0.000 OA
ENDBRANCH  16  19
ENDBRANCH   1  15
TORSDOF 5
ENDMDL
MODEL 8
REMARK VINA RESULT:      -8.0      5.607      8.363
REMARK  Name = 
REMARK  6 active torsions:
REMARK  status: ('A' for Active; 'I' for Inactive)
REMARK    1  A    between atoms: C_1  and  C_2
REMARK    2  A    between atoms: C_2  and  C_4
REMARK    3  A    between atoms: C_8  and  N_9
REMARK    4  A    between atoms: C_10  and  C_12
REMARK    5  A    between atoms: C_12  and  N_13
REMARK    6  A    between atoms: C_14  and  C_16
REMARK                            x       y       z     vdW  Elec       q    Type
REMARK                         _______ _______ _______ _____ _____    ______ ____
ROOT
ATOM      1  C   UNL     1       8.145   6.819  18.184  0.00  0.00    +0.000 C 
ENDROOT
BRANCH   1   3
ATOM      2  N   UNL     1       8.998   9.014  18.939  0.00  0.00    +0.000 N 
ATOM      3  C   UNL     1       8.103   8.348  18.104  0.00  0.00    +0.000 C 
ATOM      4  O   UNL     1       7.250   8.878  17.383  0.00  0.00    +0.000 OA
ATOM      5  H   UNL     1       9.542   8.433  19.577  0.00  0.00    +0.000 HD
BRANCH   2  10
ATOM      6  C   UNL     1       9.268  12.395  20.528  0.00  0.00    +0.000 A 
ATOM      7  C   UNL     1       9.322  13.227  19.406  0.00  0.00    +0.000 A 
ATOM      8  C   UNL     1       9.305  12.667  18.134  0.00  0.00    +0.000 A 
ATOM      9  C   UNL     1       9.220  11.283  17.975  0.00  0.00    +0.000 A 
ATOM     10  C   UNL     1       9.137  10.424  19.075  0.00  0.00    +0.000 A 
ATOM     11  C   UNL     1       9.181  10.993  20.359  0.00  0.00    +0.000 A 
BRANCH   6  13
ATOM     12  C   UNL     1       9.673  14.431  22.085  0.00  0.00    +0.000 C 
ATOM     13  C   UNL     1       9.290  12.978  21.907  0.00  0.00    +0.000 C 
ATOM     14  O   UNL     1       8.988  12.277  22.871  0.00  0.00    +0.000 OA
ENDBRANCH   6  13
ENDBRANCH   2  10
ENDBRANCH   1   3
BRANCH   1  15
ATOM     15  N   UNL     1       6.802   6.251  18.204  0.00  0.00    +0.000 N 
ATOM     16  C   UNL     1       6.481   5.392  19.228  0.00  0.00    +0.000 C 
ATOM     17  O   UNL     1       7.337   5.142  20.084  0.00  0.00    +0.000 OA
ATOM     18  H   UNL     1       6.074   6.631  17.610  0.00  0.00    +0.000 HD
BRANCH  16  19
ATOM     19  C   UNL     1       5.156   4.810  19.308  0.00  0.00    +0.000 A 
ATOM     20  C   UNL     1       4.022   5.491  19.703  0.00  0.00    +0.000 A 
ATOM     21  C   UNL     1       2.942   4.600  19.649  0.00  0.00    +0.000 A 
ATOM     22  C   UNL     1       1.570   4.717  19.915  0.00  0.00    +0.000 A 
ATOM     23  C   UNL     1       0.758   3.592  19.773  0.00  0.00    +0.000 A 
ATOM     24  C   UNL     1       1.308   2.370  19.377  0.00  0.00    +0.000 A 
ATOM     25  C   UNL     1       2.683   2.234  19.095  0.00  0.00    +0.000 A 
ATOM     26  C   UNL     1       3.474   3.376  19.241  0.00  0.00    +0.000 A 
ATOM     27  O   UNL     1       4.836   3.502  19.025  0.00  0.00    +0.000 OA
ENDBRANCH  16  19
ENDBRANCH   1  15
TORSDOF 5
ENDMDL
MODEL 9
REMARK VINA RESULT:      -8.0      1.905      9.201
REMARK  Name = 
REMARK  6 active torsions:
REMARK  status: ('A' for Active; 'I' for Inactive)
REMARK    1  A    between atoms: C_1  and  C_2
REMARK    2  A    between atoms: C_2  and  C_4
REMARK    3  A    between atoms: C_8  and  N_9
REMARK    4  A    between atoms: C_10  and  C_12
REMARK    5  A    between atoms: C_12  and  N_13
REMARK    6  A    between atoms: C_14  and  C_16
REMARK                            x       y       z     vdW  Elec       q    Type
REMARK                         _______ _______ _______ _____ _____    ______ ____
ROOT
ATOM      1  C   UNL     1       3.429   4.753  19.953  0.00  0.00    +0.000 C 
ENDROOT
BRANCH   1   3
ATOM      2  N   UNL     1       2.614   7.086  19.899  0.00  0.00    +0.000 N 
ATOM      3  C   UNL     1       2.282   5.753  20.129  0.00  0.00    +0.000 C 
ATOM      4  O   UNL     1       1.191   5.334  20.529  0.00  0.00    +0.000 OA
ATOM      5  H   UNL     1       3.596   7.284  19.710  0.00  0.00    +0.000 HD
BRANCH   2  10
ATOM      6  C   UNL     1       0.382   9.664  21.450  0.00  0.00    +0.000 A 
ATOM      7  C   UNL     1      -0.056  10.367  20.324  0.00  0.00    +0.000 A 
ATOM      8  C   UNL     1       0.414  10.011  19.066  0.00  0.00    +0.000 A 
ATOM      9  C   UNL     1       1.306   8.948  18.922  0.00  0.00    +0.000 A 
ATOM     10  C   UNL     1       1.744   8.206  20.024  0.00  0.00    +0.000 A 
ATOM     11  C   UNL     1       1.286   8.587  21.297  0.00  0.00    +0.000 A 
BRANCH   6  13
ATOM     12  C   UNL     1      -1.251  11.018  22.944  0.00  0.00    +0.000 C 
ATOM     13  C   UNL     1      -0.108  10.035  22.815  0.00  0.00    +0.000 C 
ATOM     14  O   UNL     1       0.413   9.532  23.809  0.00  0.00    +0.000 OA
ENDBRANCH   6  13
ENDBRANCH   2  10
ENDBRANCH   1   3
BRANCH   1  15
ATOM     15  N   UNL     1       3.813   4.625  18.553  0.00  0.00    +0.000 N 
ATOM     16  C   UNL     1       5.129   4.848  18.222  0.00  0.00    +0.000 C 
ATOM     17  O   UNL     1       5.925   5.142  19.121  0.00  0.00    +0.000 OA
ATOM     18  H   UNL     1       3.186   4.189  17.886  0.00  0.00    +0.000 HD
BRANCH  16  19
ATOM     19  C   UNL     1       5.571   4.718  16.849  0.00  0.00    +0.000 A 
ATOM     20  C   UNL     1       6.653   5.382  16.305  0.00  0.00    +0.000 A 
ATOM     21  C   UNL     1       6.765   4.998  14.962  0.00  0.00    +0.000 A 
ATOM     22  C   UNL     1       7.657   5.321  13.929  0.00  0.00    +0.000 A 
ATOM     23  C   UNL     1       7.462   4.756  12.670  0.00  0.00    +0.000 A 
ATOM     24  C   UNL     1       6.392   3.886  12.443  0.00  0.00    +0.000 A 
ATOM     25  C   UNL     1       5.490   3.541  13.471  0.00  0.00    +0.000 A 
ATOM     26  C   UNL     1       5.709   4.117  14.724  0.00  0.00    +0.000 A 
ATOM     27  O   UNL     1       4.975   3.938  15.885  0.00  0.00    +0.000 OA
ENDBRANCH  16  19
ENDBRANCH   1  15
TORSDOF 5
ENDMDL
