MODEL 1
REMARK VINA RESULT:      -6.4      0.000      0.000
REMARK  Name = 
REMARK  3 active torsions:
REMARK  status: ('A' for Active; 'I' for Inactive)
REMARK    1  A    between atoms: C_1  and  C_2
REMARK    2  A    between atoms: C_2  and  C_3
REMARK    3  A    between atoms: C_9  and  O_10
REMARK                            x       y       z     vdW  Elec       q    Type
REMARK                         _______ _______ _______ _____ _____    ______ ____
ROOT
ATOM      1  C   UNL     1      -1.498  10.512  18.596  0.00  0.00    +0.000 A 
ATOM      2  C   UNL     1      -1.709   9.769  17.391  0.00  0.00    +0.000 A 
ATOM      3  C   UNL     1      -2.868   9.890  16.611  0.00  0.00    +0.000 A 
ATOM      4  C   UNL     1      -3.837  10.783  16.994  0.00  0.00    +0.000 A 
ATOM      5  C   UNL     1      -3.629  11.520  18.131  0.00  0.00    +0.000 A 
ATOM      6  C   UNL     1      -2.530  11.384  18.977  0.00  0.00    +0.000 A 
ATOM      7  C   UNL     1      -2.809  12.717  19.694  0.00  0.00    +0.000 C 
ATOM      8  C   UNL     1      -3.187  13.045  21.117  0.00  0.00    +0.000 C 
ATOM      9  C   UNL     1      -4.138  12.387  21.806  0.00  0.00    +0.000 C 
ATOM     10  C   UNL     1      -5.520  13.038  21.903  0.00  0.00    +0.000 C 
ATOM     11  C   UNL     1      -6.030  13.426  20.487  0.00  0.00    +0.000 C 
ATOM     12  C   UNL     1      -5.618  12.435  19.381  0.00  0.00    +0.000 C 
ATOM     13  C   UNL     1      -4.198  12.726  18.827  0.00  0.00    +0.000 C 
ATOM     14  O   UNL     1      -5.497  14.227  22.697  0.00  0.00    +0.000 OA
ATOM     15  C   UNL     1      -5.961  13.847  23.985  0.00  0.00    +0.000 C 
ATOM     16  C   UNL     1      -6.774  12.598  23.770  0.00  0.00    +0.000 C 
ATOM     17  O   UNL     1      -6.404  12.082  22.493  0.00  0.00    +0.000 OA
ENDROOT
BRANCH   1  19
ATOM     18  C   UNL     1       0.861   9.695  18.265  0.00  0.00    +0.000 C 
ATOM     19  C   UNL     1      -0.097  10.450  19.192  0.00  0.00    +0.000 C 
ATOM     20  O   UNL     1       0.452  11.744  19.454  0.00  0.00    +0.000 OA
ATOM     21  C   UNL     1       1.001  11.687  20.777  0.00  0.00    +0.000 C 
ATOM     22  C   UNL     1       0.861  10.267  21.257  0.00  0.00    +0.000 C 
ATOM     23  O   UNL     1      -0.154   9.719  20.437  0.00  0.00    +0.000 OA
ENDBRANCH   1  19
BRANCH   7  24
ATOM     24  O   UNL     1      -1.833  13.708  19.271  0.00  0.00    +0.000 OA
ATOM     25  H   UNL     1      -1.025  13.174  19.171  0.00  0.00    +0.000 HD
ENDBRANCH   7  24
TORSDOF 2
ENDMDL
MODEL 2
REMARK VINA RESULT:      -6.3      1.624      2.007
REMARK  Name = 
REMARK  3 active torsions:
REMARK  status: ('A' for Active; 'I' for Inactive)
REMARK    1  A    between atoms: C_1  and  C_2
REMARK    2  A    between atoms: C_2  and  C_3
REMARK    3  A    between atoms: C_9  and  O_10
REMARK                            x       y       z     vdW  Elec       q    Type
REMARK                         _______ _______ _______ _____ _____    ______ ____
ROOT
ATOM      1  C   UNL     1      -0.756  10.282  18.487  0.00  0.00    +0.000 A 
ATOM      2  C   UNL     1      -1.318   9.698  17.306  0.00  0.00    +0.000 A 
ATOM      3  C   UNL     1      -2.578  10.053  16.804  0.00  0.00    +0.000 A 
ATOM      4  C   UNL     1      -3.300  11.027  17.445  0.00  0.00    +0.000 A 
ATOM      5  C   UNL     1      -2.756  11.612  18.559  0.00  0.00    +0.000 A 
ATOM      6  C   UNL     1      -1.543  11.245  19.139  0.00  0.00    +0.000 A 
ATOM      7  C   UNL     1      -1.463  12.525  19.988  0.00  0.00    +0.000 C 
ATOM      8  C   UNL     1      -1.491  12.758  21.478  0.00  0.00    +0.000 C 
ATOM      9  C   UNL     1      -2.372  12.171  22.308  0.00  0.00    +0.000 C 
ATOM     10  C   UNL     1      -3.590  12.991  22.744  0.00  0.00    +0.000 C 
ATOM     11  C   UNL     1      -4.309  13.584  21.500  0.00  0.00    +0.000 C 
ATOM     12  C   UNL     1      -4.286  12.661  20.266  0.00  0.00    +0.000 C 
ATOM     13  C   UNL     1      -2.980  12.809  19.442  0.00  0.00    +0.000 C 
ATOM     14  O   UNL     1      -3.224  14.082  23.594  0.00  0.00    +0.000 OA
ATOM     15  C   UNL     1      -3.471  13.642  24.922  0.00  0.00    +0.000 C 
ATOM     16  C   UNL     1      -4.493  12.543  24.801  0.00  0.00    +0.000 C 
ATOM     17  O   UNL     1      -4.473  12.111  23.442  0.00  0.00    +0.000 OA
ENDROOT
BRANCH   1  19
ATOM     18  C   UNL     1       1.577  11.222  18.599  0.00  0.00    +0.000 C 
ATOM     19  C   UNL     1       0.710   9.971  18.762  0.00  0.00    +0.000 C 
ATOM     20  O   UNL     1       0.928   9.435  20.071  0.00  0.00    +0.000 OA
ATOM     21  C   UNL     1       1.782   8.298  19.902  0.00  0.00    +0.000 C 
ATOM     22  C   UNL     1       2.163   8.237  18.447  0.00  0.00    +0.000 C 
ATOM     23  O   UNL     1       1.169   9.003  17.792  0.00  0.00    +0.000 OA
ENDBRANCH   1  19
BRANCH   7  24
ATOM     24  O   UNL     1      -0.452  13.411  19.435  0.00  0.00    +0.000 OA
ATOM     25  H   UNL     1       0.174  13.500  20.176  0.00  0.00    +0.000 HD
ENDBRANCH   7  24
TORSDOF 2
ENDMDL
MODEL 3
REMARK VINA RESULT:      -6.2      0.842      1.403
REMARK  Name = 
REMARK  3 active torsions:
REMARK  status: ('A' for Active; 'I' for Inactive)
REMARK    1  A    between atoms: C_1  and  C_2
REMARK    2  A    between atoms: C_2  and  C_3
REMARK    3  A    between atoms: C_9  and  O_10
REMARK                            x       y       z     vdW  Elec       q    Type
REMARK                         _______ _______ _______ _____ _____    ______ ____
ROOT
ATOM      1  C   UNL     1      -1.313  10.508  18.490  0.00  0.00    +0.000 A 
ATOM      2  C   UNL     1      -1.624   9.720  17.335  0.00  0.00    +0.000 A 
ATOM      3  C   UNL     1      -2.851   9.802  16.662  0.00  0.00    +0.000 A 
ATOM      4  C   UNL     1      -3.793  10.697  17.103  0.00  0.00    +0.000 A 
ATOM      5  C   UNL     1      -3.492  11.475  18.190  0.00  0.00    +0.000 A 
ATOM      6  C   UNL     1      -2.318  11.382  18.934  0.00  0.00    +0.000 A 
ATOM      7  C   UNL     1      -2.549  12.735  19.629  0.00  0.00    +0.000 C 
ATOM      8  C   UNL     1      -2.798  13.109  21.069  0.00  0.00    +0.000 C 
ATOM      9  C   UNL     1      -3.671  12.465  21.865  0.00  0.00    +0.000 C 
ATOM     10  C   UNL     1      -5.048  13.103  22.068  0.00  0.00    +0.000 C 
ATOM     11  C   UNL     1      -5.692  13.436  20.693  0.00  0.00    +0.000 C 
ATOM     12  C   UNL     1      -5.370  12.412  19.588  0.00  0.00    +0.000 C 
ATOM     13  C   UNL     1      -4.011  12.698  18.895  0.00  0.00    +0.000 C 
ATOM     14  O   UNL     1      -4.969  14.320  22.816  0.00  0.00    +0.000 OA
ATOM     15  C   UNL     1      -5.306  13.980  24.153  0.00  0.00    +0.000 C 
ATOM     16  C   UNL     1      -6.118  12.715  24.057  0.00  0.00    +0.000 C 
ATOM     17  O   UNL     1      -5.860  12.159  22.769  0.00  0.00    +0.000 OA
ENDROOT
BRANCH   1  19
ATOM     18  C   UNL     1       0.226  10.321  20.474  0.00  0.00    +0.000 C 
ATOM     19  C   UNL     1       0.138  10.482  18.954  0.00  0.00    +0.000 C 
ATOM     20  O   UNL     1       0.898   9.437  18.342  0.00  0.00    +0.000 OA
ATOM     21  C   UNL     1       2.124  10.035  17.903  0.00  0.00    +0.000 C 
ATOM     22  C   UNL     1       2.119  11.464  18.378  0.00  0.00    +0.000 C 
ATOM     23  O   UNL     1       0.753  11.747  18.620  0.00  0.00    +0.000 OA
ENDBRANCH   1  19
BRANCH   7  24
ATOM     24  O   UNL     1      -1.630  13.722  19.084  0.00  0.00    +0.000 OA
ATOM     25  H   UNL     1      -1.167  13.215  18.393  0.00  0.00    +0.000 HD
ENDBRANCH   7  24
TORSDOF 2
ENDMDL
MODEL 4
REMARK VINA RESULT:      -6.2      5.489      8.978
REMARK  Name = 
REMARK  3 active torsions:
REMARK  status: ('A' for Active; 'I' for Inactive)
REMARK    1  A    between atoms: C_1  and  C_2
REMARK    2  A    between atoms: C_2  and  C_3
REMARK    3  A    between atoms: C_9  and  O_10
REMARK                            x       y       z     vdW  Elec       q    Type
REMARK                         _______ _______ _______ _____ _____    ______ ____
ROOT
ATOM      1  C   UNL     1       3.667   3.810  17.793  0.00  0.00    +0.000 A 
ATOM      2  C   UNL     1       4.431   3.370  16.666  0.00  0.00    +0.000 A 
ATOM      3  C   UNL     1       5.082   4.253  15.793  0.00  0.00    +0.000 A 
ATOM      4  C   UNL     1       5.019   5.601  16.040  0.00  0.00    +0.000 A 
ATOM      5  C   UNL     1       4.314   6.028  17.135  0.00  0.00    +0.000 A 
ATOM      6  C   UNL     1       3.591   5.198  17.989  0.00  0.00    +0.000 A 
ATOM      7  C   UNL     1       3.469   6.280  19.077  0.00  0.00    +0.000 C 
ATOM      8  C   UNL     1       2.283   7.011  19.654  0.00  0.00    +0.000 C 
ATOM      9  C   UNL     1       1.300   7.544  18.906  0.00  0.00    +0.000 C 
ATOM     10  C   UNL     1       1.357   9.050  18.631  0.00  0.00    +0.000 C 
ATOM     11  C   UNL     1       2.754   9.440  18.073  0.00  0.00    +0.000 C 
ATOM     12  C   UNL     1       3.381   8.371  17.157  0.00  0.00    +0.000 C 
ATOM     13  C   UNL     1       4.132   7.274  17.958  0.00  0.00    +0.000 C 
ATOM     14  O   UNL     1       1.133   9.819  19.816  0.00  0.00    +0.000 OA
ATOM     15  C   UNL     1      -0.233  10.208  19.778  0.00  0.00    +0.000 C 
ATOM     16  C   UNL     1      -0.629  10.151  18.326  0.00  0.00    +0.000 C 
ATOM     17  O   UNL     1       0.346   9.348  17.665  0.00  0.00    +0.000 OA
ENDROOT
BRANCH   1  19
ATOM     18  C   UNL     1       3.585   1.336  18.253  0.00  0.00    +0.000 C 
ATOM     19  C   UNL     1       3.229   2.730  18.776  0.00  0.00    +0.000 C 
ATOM     20  O   UNL     1       3.811   2.891  20.073  0.00  0.00    +0.000 OA
ATOM     21  C   UNL     1       2.742   2.736  21.014  0.00  0.00    +0.000 C 
ATOM     22  C   UNL     1       1.510   2.362  20.234  0.00  0.00    +0.000 C 
ATOM     23  O   UNL     1       1.792   2.783  18.913  0.00  0.00    +0.000 OA
ENDBRANCH   1  19
BRANCH   7  24
ATOM     24  O   UNL     1       4.351   5.954  20.185  0.00  0.00    +0.000 OA
ATOM     25  H   UNL     1       4.802   6.802  20.349  0.00  0.00    +0.000 HD
ENDBRANCH   7  24
TORSDOF 2
ENDMDL
MODEL 5
REMARK VINA RESULT:      -6.1      1.836      6.635
REMARK  Name = 
REMARK  3 active torsions:
REMARK  status: ('A' for Active; 'I' for Inactive)
REMARK    1  A    between atoms: C_1  and  C_2
REMARK    2  A    between atoms: C_2  and  C_3
REMARK    3  A    between atoms: C_9  and  O_10
REMARK                            x       y       z     vdW  Elec       q    Type
REMARK                         _______ _______ _______ _____ _____    ______ ____
ROOT
ATOM      1  C   UNL     1      -5.356  12.652  21.731  0.00  0.00    +0.000 A 
ATOM      2  C   UNL     1      -5.878  12.721  23.063  0.00  0.00    +0.000 A 
ATOM      3  C   UNL     1      -5.062  12.831  24.198  0.00  0.00    +0.000 A 
ATOM      4  C   UNL     1      -3.702  12.912  24.035  0.00  0.00    +0.000 A 
ATOM      5  C   UNL     1      -3.197  12.877  22.761  0.00  0.00    +0.000 A 
ATOM      6  C   UNL     1      -3.958  12.696  21.608  0.00  0.00    +0.000 A 
ATOM      7  C   UNL     1      -2.821  13.160  20.681  0.00  0.00    +0.000 C 
ATOM      8  C   UNL     1      -2.022  12.447  19.619  0.00  0.00    +0.000 C 
ATOM      9  C   UNL     1      -1.490  11.222  19.783  0.00  0.00    +0.000 C 
ATOM     10  C   UNL     1      -0.003  11.137  20.138  0.00  0.00    +0.000 C 
ATOM     11  C   UNL     1       0.309  12.045  21.359  0.00  0.00    +0.000 C 
ATOM     12  C   UNL     1      -0.825  12.103  22.401  0.00  0.00    +0.000 C 
ATOM     13  C   UNL     1      -1.907  13.154  22.038  0.00  0.00    +0.000 C 
ATOM     14  O   UNL     1       0.830  11.562  19.056  0.00  0.00    +0.000 OA
ATOM     15  C   UNL     1       1.265  10.376  18.407  0.00  0.00    +0.000 C 
ATOM     16  C   UNL     1       1.152   9.285  19.439  0.00  0.00    +0.000 C 
ATOM     17  O   UNL     1       0.284   9.774  20.460  0.00  0.00    +0.000 OA
ENDROOT
BRANCH   1  19
ATOM     18  C   UNL     1      -7.744  13.192  21.139  0.00  0.00    +0.000 C 
ATOM     19  C   UNL     1      -6.371  12.780  20.601  0.00  0.00    +0.000 C 
ATOM     20  O   UNL     1      -5.973  13.724  19.602  0.00  0.00    +0.000 OA
ATOM     21  C   UNL     1      -6.184  13.084  18.338  0.00  0.00    +0.000 C 
ATOM     22  C   UNL     1      -6.833  11.754  18.613  0.00  0.00    +0.000 C 
ATOM     23  O   UNL     1      -6.528  11.490  19.970  0.00  0.00    +0.000 OA
ENDBRANCH   1  19
BRANCH   7  24
ATOM     24  O   UNL     1      -3.124  14.487  20.169  0.00  0.00    +0.000 OA
ATOM     25  H   UNL     1      -4.091  14.535  20.276  0.00  0.00    +0.000 HD
ENDBRANCH   7  24
TORSDOF 2
ENDMDL
MODEL 6
REMARK VINA RESULT:      -6.1     10.140     11.734
REMARK  Name = 
REMARK  3 active torsions:
REMARK  status: ('A' for Active; 'I' for Inactive)
REMARK    1  A    between atoms: C_1  and  C_2
REMARK    2  A    between atoms: C_2  and  C_3
REMARK    3  A    between atoms: C_9  and  O_10
REMARK                            x       y       z     vdW  Elec       q    Type
REMARK                         _______ _______ _______ _____ _____    ______ ____
ROOT
ATOM      1  C   UNL     1       8.799  13.407  18.938  0.00  0.00    +0.000 A 
ATOM      2  C   UNL     1       8.142  14.020  17.823  0.00  0.00    +0.000 A 
ATOM      3  C   UNL     1       7.052  14.891  17.963  0.00  0.00    +0.000 A 
ATOM      4  C   UNL     1       6.607  15.203  19.223  0.00  0.00    +0.000 A 
ATOM      5  C   UNL     1       7.250  14.644  20.296  0.00  0.00    +0.000 A 
ATOM      6  C   UNL     1       8.289  13.719  20.208  0.00  0.00    +0.000 A 
ATOM      7  C   UNL     1       8.691  13.902  21.682  0.00  0.00    +0.000 C 
ATOM      8  C   UNL     1       8.673  12.965  22.864  0.00  0.00    +0.000 C 
ATOM      9  C   UNL     1       7.632  12.169  23.168  0.00  0.00    +0.000 C 
ATOM     10  C   UNL     1       6.677  12.641  24.268  0.00  0.00    +0.000 C 
ATOM     11  C   UNL     1       6.200  14.091  23.976  0.00  0.00    +0.000 C 
ATOM     12  C   UNL     1       6.011  14.398  22.478  0.00  0.00    +0.000 C 
ATOM     13  C   UNL     1       7.337  14.815  21.788  0.00  0.00    +0.000 C 
ATOM     14  O   UNL     1       7.300  12.639  25.555  0.00  0.00    +0.000 OA
ATOM     15  C   UNL     1       6.890  11.435  26.187  0.00  0.00    +0.000 C 
ATOM     16  C   UNL     1       5.606  11.038  25.506  0.00  0.00    +0.000 C 
ATOM     17  O   UNL     1       5.556  11.753  24.274  0.00  0.00    +0.000 OA
ENDROOT
BRANCH   1  19
ATOM     18  C   UNL     1      10.076  11.248  19.160  0.00  0.00    +0.000 C 
ATOM     19  C   UNL     1      10.108  12.687  18.638  0.00  0.00    +0.000 C 
ATOM     20  O   UNL     1      10.417  12.656  17.242  0.00  0.00    +0.000 OA
ATOM     21  C   UNL     1      11.793  13.039  17.127  0.00  0.00    +0.000 C 
ATOM     22  C   UNL     1      12.333  13.193  18.524  0.00  0.00    +0.000 C 
ATOM     23  O   UNL     1      11.180  13.369  19.326  0.00  0.00    +0.000 OA
ENDBRANCH   1  19
BRANCH   7  24
ATOM     24  O   UNL     1       9.931  14.659  21.756  0.00  0.00    +0.000 OA
ATOM     25  H   UNL     1       9.846  15.269  21.001  0.00  0.00    +0.000 HD
ENDBRANCH   7  24
TORSDOF 2
ENDMDL
MODEL 7
REMARK VINA RESULT:      -6.0      0.957      1.387
REMARK  Name = 
REMARK  3 active torsions:
REMARK  status: ('A' for Active; 'I' for Inactive)
REMARK    1  A    between atoms: C_1  and  C_2
REMARK    2  A    between atoms: C_2  and  C_3
REMARK    3  A    between atoms: C_9  and  O_10
REMARK                            x       y       z     vdW  Elec       q    Type
REMARK                         _______ _______ _______ _____ _____    ______ ____
ROOT
ATOM      1  C   UNL     1      -1.007  11.170  19.478  0.00  0.00    +0.000 A 
ATOM      2  C   UNL     1      -0.892  10.285  18.358  0.00  0.00    +0.000 A 
ATOM      3  C   UNL     1      -1.941  10.052  17.458  0.00  0.00    +0.000 A 
ATOM      4  C   UNL     1      -3.126  10.722  17.629  0.00  0.00    +0.000 A 
ATOM      5  C   UNL     1      -3.234  11.593  18.682  0.00  0.00    +0.000 A 
ATOM      6  C   UNL     1      -2.248  11.805  19.643  0.00  0.00    +0.000 A 
ATOM      7  C   UNL     1      -2.908  13.095  20.160  0.00  0.00    +0.000 C 
ATOM      8  C   UNL     1      -3.525  13.460  21.487  0.00  0.00    +0.000 C 
ATOM      9  C   UNL     1      -4.382  12.665  22.153  0.00  0.00    +0.000 C 
ATOM     10  C   UNL     1      -5.877  12.974  22.031  0.00  0.00    +0.000 C 
ATOM     11  C   UNL     1      -6.279  13.092  20.534  0.00  0.00    +0.000 C 
ATOM     12  C   UNL     1      -5.519  12.126  19.605  0.00  0.00    +0.000 C 
ATOM     13  C   UNL     1      -4.142  12.691  19.165  0.00  0.00    +0.000 C 
ATOM     14  O   UNL     1      -6.222  14.206  22.671  0.00  0.00    +0.000 OA
ATOM     15  C   UNL     1      -6.746  13.852  23.944  0.00  0.00    +0.000 C 
ATOM     16  C   UNL     1      -7.224  12.431  23.803  0.00  0.00    +0.000 C 
ATOM     17  O   UNL     1      -6.590  11.897  22.643  0.00  0.00    +0.000 OA
ENDROOT
BRANCH   1  19
ATOM     18  C   UNL     1       0.630  10.414  21.236  0.00  0.00    +0.000 C 
ATOM     19  C   UNL     1       0.286  11.500  20.213  0.00  0.00    +0.000 C 
ATOM     20  O   UNL     1       1.400  11.662  19.330  0.00  0.00    +0.000 OA
ATOM     21  C   UNL     1       2.067  12.862  19.740  0.00  0.00    +0.000 C 
ATOM     22  C   UNL     1       1.372  13.358  20.980  0.00  0.00    +0.000 C 
ATOM     23  O   UNL     1       0.102  12.734  20.943  0.00  0.00    +0.000 OA
ENDBRANCH   1  19
BRANCH   7  24
ATOM     24  O   UNL     1      -2.135  14.245  19.718  0.00  0.00    +0.000 OA
ATOM     25  H   UNL     1      -2.802  14.775  19.247  0.00  0.00    +0.000 HD
ENDBRANCH   7  24
TORSDOF 2
ENDMDL
MODEL 8
REMARK VINA RESULT:      -6.0      2.347      4.292
REMARK  Name = 
REMARK  3 active torsions:
REMARK  status: ('A' for Active; 'I' for Inactive)
REMARK    1  A    between atoms: C_1  and  C_2
REMARK    2  A    between atoms: C_2  and  C_3
REMARK    3  A    between atoms: C_9  and  O_10
REMARK                            x       y       z     vdW  Elec       q    Type
REMARK                         _______ _______ _______ _____ _____    ______ ____
ROOT
ATOM      1  C   UNL     1       0.302  13.356  20.567  0.00  0.00    +0.000 A 
ATOM      2  C   UNL     1       1.255  14.414  20.407  0.00  0.00    +0.000 A 
ATOM      3  C   UNL     1       1.365  15.485  21.305  0.00  0.00    +0.000 A 
ATOM      4  C   UNL     1       0.550  15.515  22.408  0.00  0.00    +0.000 A 
ATOM      5  C   UNL     1      -0.344  14.491  22.584  0.00  0.00    +0.000 A 
ATOM      6  C   UNL     1      -0.541  13.444  21.686  0.00  0.00    +0.000 A 
ATOM      7  C   UNL     1      -1.312  12.595  22.712  0.00  0.00    +0.000 C 
ATOM      8  C   UNL     1      -2.740  12.111  22.762  0.00  0.00    +0.000 C 
ATOM      9  C   UNL     1      -3.802  12.893  22.497  0.00  0.00    +0.000 C 
ATOM     10  C   UNL     1      -4.569  13.472  23.689  0.00  0.00    +0.000 C 
ATOM     11  C   UNL     1      -3.588  14.180  24.665  0.00  0.00    +0.000 C 
ATOM     12  C   UNL     1      -2.416  14.893  23.964  0.00  0.00    +0.000 C 
ATOM     13  C   UNL     1      -1.238  13.930  23.656  0.00  0.00    +0.000 C 
ATOM     14  O   UNL     1      -5.258  12.458  24.426  0.00  0.00    +0.000 OA
ATOM     15  C   UNL     1      -6.605  12.495  23.976  0.00  0.00    +0.000 C 
ATOM     16  C   UNL     1      -6.808  13.878  23.417  0.00  0.00    +0.000 C 
ATOM     17  O   UNL     1      -5.510  14.418  23.175  0.00  0.00    +0.000 OA
ENDROOT
BRANCH   1  19
ATOM     18  C   UNL     1       1.640  12.356  18.683  0.00  0.00    +0.000 C 
ATOM     19  C   UNL     1       0.472  12.150  19.651  0.00  0.00    +0.000 C 
ATOM     20  O   UNL     1       0.688  10.933  20.371  0.00  0.00    +0.000 OA
ATOM     21  C   UNL     1      -0.187   9.960  19.787  0.00  0.00    +0.000 C 
ATOM     22  C   UNL     1      -0.858  10.614  18.609  0.00  0.00    +0.000 C 
ATOM     23  O   UNL     1      -0.725  12.001  18.855  0.00  0.00    +0.000 OA
ENDBRANCH   1  19
BRANCH   7  24
ATOM     24  O   UNL     1      -0.472  11.497  23.162  0.00  0.00    +0.000 OA
ATOM     25  H   UNL     1       0.127  11.371  22.404  0.00  0.00    +0.000 HD
ENDBRANCH   7  24
TORSDOF 2
ENDMDL
MODEL 9
REMARK VINA RESULT:      -6.0      2.207      6.808
REMARK  Name = 
REMARK  3 active torsions:
REMARK  status: ('A' for Active; 'I' for Inactive)
REMARK    1  A    between atoms: C_1  and  C_2
REMARK    2  A    between atoms: C_2  and  C_3
REMARK    3  A    between atoms: C_9  and  O_10
REMARK                            x       y       z     vdW  Elec       q    Type
REMARK                         _______ _______ _______ _____ _____    ______ ____
ROOT
ATOM      1  C   UNL     1      -3.917  12.264  19.504  0.00  0.00    +0.000 A 
ATOM      2  C   UNL     1      -4.227  13.313  20.428  0.00  0.00    +0.000 A 
ATOM      3  C   UNL     1      -3.247  14.115  21.031  0.00  0.00    +0.000 A 
ATOM      4  C   UNL     1      -1.930  13.916  20.702  0.00  0.00    +0.000 A 
ATOM      5  C   UNL     1      -1.628  12.934  19.795  0.00  0.00    +0.000 A 
ATOM      6  C   UNL     1      -2.555  12.065  19.225  0.00  0.00    +0.000 A 
ATOM      7  C   UNL     1      -1.582  11.611  18.123  0.00  0.00    +0.000 C 
ATOM      8  C   UNL     1      -0.946  10.278  17.815  0.00  0.00    +0.000 C 
ATOM      9  C   UNL     1      -0.379   9.490  18.746  0.00  0.00    +0.000 C 
ATOM     10  C   UNL     1       1.146   9.531  18.876  0.00  0.00    +0.000 C 
ATOM     11  C   UNL     1       1.631  11.001  19.023  0.00  0.00    +0.000 C 
ATOM     12  C   UNL     1       0.671  11.898  19.828  0.00  0.00    +0.000 C 
ATOM     13  C   UNL     1      -0.469  12.480  18.950  0.00  0.00    +0.000 C 
ATOM     14  O   UNL     1       1.796   8.972  17.731  0.00  0.00    +0.000 OA
ATOM     15  C   UNL     1       2.142   7.642  18.089  0.00  0.00    +0.000 C 
ATOM     16  C   UNL     1       2.204   7.630  19.594  0.00  0.00    +0.000 C 
ATOM     17  O   UNL     1       1.498   8.785  20.043  0.00  0.00    +0.000 OA
ENDROOT
BRANCH   1  19
ATOM     18  C   UNL     1      -4.701  10.327  18.099  0.00  0.00    +0.000 C 
ATOM     19  C   UNL     1      -5.096  11.652  18.757  0.00  0.00    +0.000 C 
ATOM     20  O   UNL     1      -6.228  11.421  19.600  0.00  0.00    +0.000 OA
ATOM     21  C   UNL     1      -7.366  11.927  18.893  0.00  0.00    +0.000 C 
ATOM     22  C   UNL     1      -6.887  12.372  17.537  0.00  0.00    +0.000 C 
ATOM     23  O   UNL     1      -5.493  12.553  17.700  0.00  0.00    +0.000 OA
ENDBRANCH   1  19
BRANCH   7  24
ATOM     24  O   UNL     1      -1.978  12.200  16.854  0.00  0.00    +0.000 OA
ATOM     25  H   UNL     1      -2.534  11.500  16.466  0.00  0.00    +0.000 HD
ENDBRANCH   7  24
TORSDOF 2
ENDMDL
