MODEL 1
REMARK VINA RESULT:      -8.5      0.000      0.000
REMARK  Name = 
REMARK  6 active torsions:
REMARK  status: ('A' for Active; 'I' for Inactive)
REMARK    1  A    between atoms: C_2  and  C_4
REMARK    2  A    between atoms: C_7  and  N_8
REMARK    3  A    between atoms: C_9  and  C_11
REMARK    4  A    between atoms: C_14  and  N_15
REMARK    5  A    between atoms: C_24  and  N_25
REMARK    6  A    between atoms: C_26  and  C_28
REMARK                            x       y       z     vdW  Elec       q    Type
REMARK                         _______ _______ _______ _____ _____    ______ ____
ROOT
ATOM      1  C   UNL     1      -1.869  13.629  23.363  0.00  0.00    +0.000 A 
ATOM      2  C   UNL     1      -2.193  12.285  23.439  0.00  0.00    +0.000 A 
ATOM      3  C   UNL     1      -1.441  11.359  22.730  0.00  0.00    +0.000 A 
ATOM      4  C   UNL     1      -0.331  11.729  21.950  0.00  0.00    +0.000 A 
ATOM      5  C   UNL     1       0.023  13.101  21.883  0.00  0.00    +0.000 A 
ATOM      6  C   UNL     1      -0.755  14.031  22.613  0.00  0.00    +0.000 A 
ENDROOT
BRANCH   1   8
ATOM      7  N   UNL     1      -3.705  14.199  24.858  0.00  0.00    +0.000 N 
ATOM      8  C   UNL     1      -2.684  14.651  24.066  0.00  0.00    +0.000 C 
ATOM      9  O   UNL     1      -2.473  15.848  23.917  0.00  0.00    +0.000 OA
ATOM     10  H   UNL     1      -4.305  14.894  25.279  0.00  0.00    +0.000 HD
ATOM     11  H   UNL     1      -4.027  13.242  24.859  0.00  0.00    +0.000 HD
ENDBRANCH   1   8
BRANCH   4  12
ATOM     12  N   UNL     1       0.423  10.719  21.307  0.00  0.00    +0.000 N 
ATOM     13  C   UNL     1       0.318  10.332  19.982  0.00  0.00    +0.000 C 
ATOM     14  O   UNL     1      -0.452  10.801  19.149  0.00  0.00    +0.000 OA
ATOM     15  H   UNL     1       1.030  10.177  21.915  0.00  0.00    +0.000 HD
BRANCH  13  16
ATOM     16  C   UNL     1       1.139   9.172  19.553  0.00  0.00    +0.000 A 
ATOM     17  C   UNL     1       1.536   9.143  18.206  0.00  0.00    +0.000 A 
ATOM     18  C   UNL     1       2.286   8.081  17.710  0.00  0.00    +0.000 A 
ATOM     19  C   UNL     1       2.630   7.022  18.554  0.00  0.00    +0.000 A 
ATOM     20  C   UNL     1       2.245   7.052  19.901  0.00  0.00    +0.000 A 
ATOM     21  C   UNL     1       1.531   8.139  20.411  0.00  0.00    +0.000 A 
BRANCH  19  22
ATOM     22  N   UNL     1       3.389   5.930  18.058  0.00  0.00    +0.000 N 
ATOM     23  C   UNL     1       4.759   6.056  17.870  0.00  0.00    +0.000 A 
ATOM     24  C   UNL     1       5.490   5.068  17.342  0.00  0.00    +0.000 A 
ATOM     25  C   UNL     1       4.849   3.856  16.909  0.00  0.00    +0.000 A 
ATOM     26  C   UNL     1       3.533   3.683  17.088  0.00  0.00    +0.000 A 
ATOM     27  C   UNL     1       2.706   4.747  17.723  0.00  0.00    +0.000 A 
ATOM     28  O   UNL     1       1.503   4.536  17.858  0.00  0.00    +0.000 OA
ENDBRANCH  19  22
ENDBRANCH  13  16
ENDBRANCH   4  12
BRANCH   5  29
ATOM     29  N   UNL     1       1.138  13.683  21.214  0.00  0.00    +0.000 N 
ATOM     30  C   UNL     1       1.280  14.050  19.894  0.00  0.00    +0.000 C 
ATOM     31  O   UNL     1       0.395  14.020  19.042  0.00  0.00    +0.000 OA
ATOM     32  H   UNL     1       1.936  13.843  21.813  0.00  0.00    +0.000 HD
BRANCH  30  33
ATOM     33  C   UNL     1       2.637  14.494  19.456  0.00  0.00    +0.000 A 
ATOM     34  C   UNL     1       3.625  14.625  20.445  0.00  0.00    +0.000 A 
ATOM     35  C   UNL     1       4.901  15.088  20.117  0.00  0.00    +0.000 A 
ATOM     36  C   UNL     1       5.196  15.409  18.795  0.00  0.00    +0.000 A 
ATOM     37 CL   UNL     1       6.754  16.016  18.392  0.00  0.00    +0.000 Cl
ATOM     38  C   UNL     1       4.235  15.247  17.797  0.00  0.00    +0.000 A 
ATOM     39  C   UNL     1       2.955  14.785  18.124  0.00  0.00    +0.000 A 
ENDBRANCH  30  33
ENDBRANCH   5  29
TORSDOF 6
ENDMDL
MODEL 2
REMARK VINA RESULT:      -8.2      0.801      1.138
REMARK  Name = 
REMARK  6 active torsions:
REMARK  status: ('A' for Active; 'I' for Inactive)
REMARK    1  A    between atoms: C_2  and  C_4
REMARK    2  A    between atoms: C_7  and  N_8
REMARK    3  A    between atoms: C_9  and  C_11
REMARK    4  A    between atoms: C_14  and  N_15
REMARK    5  A    between atoms: C_24  and  N_25
REMARK    6  A    between atoms: C_26  and  C_28
REMARK                            x       y       z     vdW  Elec       q    Type
REMARK                         _______ _______ _______ _____ _____    ______ ____
ROOT
ATOM      1  C   UNL     1      -1.806  13.741  23.363  0.00  0.00    +0.000 A 
ATOM      2  C   UNL     1      -2.188  12.410  23.410  0.00  0.00    +0.000 A 
ATOM      3  C   UNL     1      -1.468  11.467  22.690  0.00  0.00    +0.000 A 
ATOM      4  C   UNL     1      -0.336  11.804  21.926  0.00  0.00    +0.000 A 
ATOM      5  C   UNL     1       0.076  13.161  21.889  0.00  0.00    +0.000 A 
ATOM      6  C   UNL     1      -0.669  14.108  22.630  0.00  0.00    +0.000 A 
ENDROOT
BRANCH   1   8
ATOM      7  N   UNL     1      -3.425  14.361  25.072  0.00  0.00    +0.000 N 
ATOM      8  C   UNL     1      -2.583  14.782  24.079  0.00  0.00    +0.000 C 
ATOM      9  O   UNL     1      -2.499  15.965  23.771  0.00  0.00    +0.000 OA
ATOM     10  H   UNL     1      -4.009  15.059  25.510  0.00  0.00    +0.000 HD
ATOM     11  H   UNL     1      -3.662  13.391  25.228  0.00  0.00    +0.000 HD
ENDBRANCH   1   8
BRANCH   4  12
ATOM     12  N   UNL     1       0.380  10.775  21.270  0.00  0.00    +0.000 N 
ATOM     13  C   UNL     1       0.401  10.527  19.908  0.00  0.00    +0.000 C 
ATOM     14  O   UNL     1      -0.204  11.161  19.046  0.00  0.00    +0.000 OA
ATOM     15  H   UNL     1       0.844  10.111  21.882  0.00  0.00    +0.000 HD
BRANCH  13  16
ATOM     16  C   UNL     1       1.141   9.323  19.455  0.00  0.00    +0.000 A 
ATOM     17  C   UNL     1       1.440   9.244  18.085  0.00  0.00    +0.000 A 
ATOM     18  C   UNL     1       2.108   8.139  17.567  0.00  0.00    +0.000 A 
ATOM     19  C   UNL     1       2.466   7.086  18.414  0.00  0.00    +0.000 A 
ATOM     20  C   UNL     1       2.179   7.166  19.783  0.00  0.00    +0.000 A 
ATOM     21  C   UNL     1       1.549   8.296  20.311  0.00  0.00    +0.000 A 
BRANCH  19  22
ATOM     22  N   UNL     1       3.142   5.951  17.896  0.00  0.00    +0.000 N 
ATOM     23  C   UNL     1       2.502   4.719  17.842  0.00  0.00    +0.000 A 
ATOM     24  C   UNL     1       3.133   3.617  17.421  0.00  0.00    +0.000 A 
ATOM     25  C   UNL     1       4.523   3.682  17.060  0.00  0.00    +0.000 A 
ATOM     26  C   UNL     1       5.175   4.852  17.079  0.00  0.00    +0.000 A 
ATOM     27  C   UNL     1       4.479   6.103  17.491  0.00  0.00    +0.000 A 
ATOM     28  O   UNL     1       5.128   7.147  17.494  0.00  0.00    +0.000 OA
ENDBRANCH  19  22
ENDBRANCH  13  16
ENDBRANCH   4  12
BRANCH   5  29
ATOM     29  N   UNL     1       1.220  13.707  21.241  0.00  0.00    +0.000 N 
ATOM     30  C   UNL     1       1.342  14.261  19.986  0.00  0.00    +0.000 C 
ATOM     31  O   UNL     1       0.418  14.471  19.203  0.00  0.00    +0.000 OA
ATOM     32  H   UNL     1       2.062  13.675  21.801  0.00  0.00    +0.000 HD
BRANCH  30  33
ATOM     33  C   UNL     1       2.720  14.608  19.527  0.00  0.00    +0.000 A 
ATOM     34  C   UNL     1       3.692  14.836  20.515  0.00  0.00    +0.000 A 
ATOM     35  C   UNL     1       4.988  15.218  20.162  0.00  0.00    +0.000 A 
ATOM     36  C   UNL     1       5.319  15.359  18.817  0.00  0.00    +0.000 A 
ATOM     37 CL   UNL     1       6.903  15.866  18.378  0.00  0.00    +0.000 Cl
ATOM     38  C   UNL     1       4.374  15.098  17.825  0.00  0.00    +0.000 A 
ATOM     39  C   UNL     1       3.074  14.717  18.177  0.00  0.00    +0.000 A 
ENDBRANCH  30  33
ENDBRANCH   5  29
TORSDOF 6
ENDMDL
MODEL 3
REMARK VINA RESULT:      -8.1      3.611      4.902
REMARK  Name = 
REMARK  6 active torsions:
REMARK  status: ('A' for Active; 'I' for Inactive)
REMARK    1  A    between atoms: C_2  and  C_4
REMARK    2  A    between atoms: C_7  and  N_8
REMARK    3  A    between atoms: C_9  and  C_11
REMARK    4  A    between atoms: C_14  and  N_15
REMARK    5  A    between atoms: C_24  and  N_25
REMARK    6  A    between atoms: C_26  and  C_28
REMARK                            x       y       z     vdW  Elec       q    Type
REMARK                         _______ _______ _______ _____ _____    ______ ____
ROOT
ATOM      1  C   UNL     1      -2.348  13.925  22.288  0.00  0.00    +0.000 A 
ATOM      2  C   UNL     1      -1.441  13.297  23.125  0.00  0.00    +0.000 A 
ATOM      3  C   UNL     1      -0.807  12.138  22.698  0.00  0.00    +0.000 A 
ATOM      4  C   UNL     1      -1.028  11.583  21.425  0.00  0.00    +0.000 A 
ATOM      5  C   UNL     1      -1.939  12.231  20.553  0.00  0.00    +0.000 A 
ATOM      6  C   UNL     1      -2.575  13.411  21.004  0.00  0.00    +0.000 A 
ENDROOT
BRANCH   1   8
ATOM      7  N   UNL     1      -2.821  15.598  23.994  0.00  0.00    +0.000 N 
ATOM      8  C   UNL     1      -3.082  15.136  22.732  0.00  0.00    +0.000 C 
ATOM      9  O   UNL     1      -3.912  15.678  22.013  0.00  0.00    +0.000 OA
ATOM     10  H   UNL     1      -3.372  16.377  24.324  0.00  0.00    +0.000 HD
ATOM     11  H   UNL     1      -2.292  15.077  24.679  0.00  0.00    +0.000 HD
ENDBRANCH   1   8
BRANCH   4  12
ATOM     12  N   UNL     1      -0.296  10.434  21.041  0.00  0.00    +0.000 N 
ATOM     13  C   UNL     1       0.835  10.408  20.244  0.00  0.00    +0.000 C 
ATOM     14  O   UNL     1       1.387  11.381  19.737  0.00  0.00    +0.000 OA
ATOM     15  H   UNL     1      -0.710   9.546  21.312  0.00  0.00    +0.000 HD
BRANCH  13  16
ATOM     16  C   UNL     1       1.374   9.072  19.885  0.00  0.00    +0.000 A 
ATOM     17  C   UNL     1       1.869   8.921  18.579  0.00  0.00    +0.000 A 
ATOM     18  C   UNL     1       2.369   7.697  18.147  0.00  0.00    +0.000 A 
ATOM     19  C   UNL     1       2.360   6.600  19.013  0.00  0.00    +0.000 A 
ATOM     20  C   UNL     1       1.877   6.749  20.319  0.00  0.00    +0.000 A 
ATOM     21  C   UNL     1       1.416   7.989  20.769  0.00  0.00    +0.000 A 
BRANCH  19  22
ATOM     22  N   UNL     1       2.861   5.345  18.581  0.00  0.00    +0.000 N 
ATOM     23  C   UNL     1       2.038   4.459  17.898  0.00  0.00    +0.000 A 
ATOM     24  C   UNL     1       2.462   3.242  17.537  0.00  0.00    +0.000 A 
ATOM     25  C   UNL     1       3.783   2.807  17.900  0.00  0.00    +0.000 A 
ATOM     26  C   UNL     1       4.617   3.634  18.542  0.00  0.00    +0.000 A 
ATOM     27  C   UNL     1       4.188   5.014  18.907  0.00  0.00    +0.000 A 
ATOM     28  O   UNL     1       4.994   5.729  19.500  0.00  0.00    +0.000 OA
ENDBRANCH  19  22
ENDBRANCH  13  16
ENDBRANCH   4  12
BRANCH   5  29
ATOM     29  N   UNL     1      -2.258  11.882  19.209  0.00  0.00    +0.000 N 
ATOM     30  C   UNL     1      -3.466  11.515  18.657  0.00  0.00    +0.000 C 
ATOM     31  O   UNL     1      -4.548  11.512  19.239  0.00  0.00    +0.000 OA
ATOM     32  H   UNL     1      -1.468  11.913  18.580  0.00  0.00    +0.000 HD
BRANCH  30  33
ATOM     33  C   UNL     1      -3.451  11.054  17.237  0.00  0.00    +0.000 A 
ATOM     34  C   UNL     1      -2.481  10.104  16.877  0.00  0.00    +0.000 A 
ATOM     35  C   UNL     1      -2.372   9.667  15.554  0.00  0.00    +0.000 A 
ATOM     36  C   UNL     1      -3.243  10.170  14.591  0.00  0.00    +0.000 A 
ATOM     37 CL   UNL     1      -3.088   9.664  12.955  0.00  0.00    +0.000 Cl
ATOM     38  C   UNL     1      -4.235  11.085  14.944  0.00  0.00    +0.000 A 
ATOM     39  C   UNL     1      -4.345  11.525  16.268  0.00  0.00    +0.000 A 
ENDBRANCH  30  33
ENDBRANCH   5  29
TORSDOF 6
ENDMDL
MODEL 4
REMARK VINA RESULT:      -8.1      3.948      6.074
REMARK  Name = 
REMARK  6 active torsions:
REMARK  status: ('A' for Active; 'I' for Inactive)
REMARK    1  A    between atoms: C_2  and  C_4
REMARK    2  A    between atoms: C_7  and  N_8
REMARK    3  A    between atoms: C_9  and  C_11
REMARK    4  A    between atoms: C_14  and  N_15
REMARK    5  A    between atoms: C_24  and  N_25
REMARK    6  A    between atoms: C_26  and  C_28
REMARK                            x       y       z     vdW  Elec       q    Type
REMARK                         _______ _______ _______ _____ _____    ______ ____
ROOT
ATOM      1  C   UNL     1       0.993  15.782  18.458  0.00  0.00    +0.000 A 
ATOM      2  C   UNL     1       2.212  15.160  18.246  0.00  0.00    +0.000 A 
ATOM      3  C   UNL     1       2.292  13.775  18.304  0.00  0.00    +0.000 A 
ATOM      4  C   UNL     1       1.167  12.965  18.544  0.00  0.00    +0.000 A 
ATOM      5  C   UNL     1      -0.090  13.592  18.741  0.00  0.00    +0.000 A 
ATOM      6  C   UNL     1      -0.152  15.004  18.677  0.00  0.00    +0.000 A 
ENDROOT
BRANCH   1   8
ATOM      7  N   UNL     1       1.466  17.930  17.411  0.00  0.00    +0.000 N 
ATOM      8  C   UNL     1       0.883  17.262  18.454  0.00  0.00    +0.000 C 
ATOM      9  O   UNL     1       0.324  17.862  19.364  0.00  0.00    +0.000 OA
ATOM     10  H   UNL     1       1.456  18.939  17.445  0.00  0.00    +0.000 HD
ATOM     11  H   UNL     1       2.091  17.492  16.749  0.00  0.00    +0.000 HD
ENDBRANCH   1   8
BRANCH   4  12
ATOM     12  N   UNL     1       1.319  11.558  18.526  0.00  0.00    +0.000 N 
ATOM     13  C   UNL     1       1.208  10.705  19.611  0.00  0.00    +0.000 C 
ATOM     14  O   UNL     1       0.963  11.034  20.769  0.00  0.00    +0.000 OA
ATOM     15  H   UNL     1       1.628  11.166  17.641  0.00  0.00    +0.000 HD
BRANCH  13  16
ATOM     16  C   UNL     1       1.514   9.272  19.374  0.00  0.00    +0.000 A 
ATOM     17  C   UNL     1       1.385   8.408  20.474  0.00  0.00    +0.000 A 
ATOM     18  C   UNL     1       1.676   7.054  20.351  0.00  0.00    +0.000 A 
ATOM     19  C   UNL     1       2.122   6.550  19.126  0.00  0.00    +0.000 A 
ATOM     20  C   UNL     1       2.243   7.406  18.024  0.00  0.00    +0.000 A 
ATOM     21  C   UNL     1       1.908   8.758  18.135  0.00  0.00    +0.000 A 
BRANCH  19  22
ATOM     22  N   UNL     1       2.429   5.171  18.989  0.00  0.00    +0.000 N 
ATOM     23  C   UNL     1       1.431   4.259  18.672  0.00  0.00    +0.000 A 
ATOM     24  C   UNL     1       1.676   2.945  18.601  0.00  0.00    +0.000 A 
ATOM     25  C   UNL     1       2.988   2.445  18.906  0.00  0.00    +0.000 A 
ATOM     26  C   UNL     1       3.986   3.289  19.198  0.00  0.00    +0.000 A 
ATOM     27  C   UNL     1       3.752   4.760  19.229  0.00  0.00    +0.000 A 
ATOM     28  O   UNL     1       4.703   5.488  19.508  0.00  0.00    +0.000 OA
ENDBRANCH  19  22
ENDBRANCH  13  16
ENDBRANCH   4  12
BRANCH   5  29
ATOM     29  N   UNL     1      -1.356  12.968  18.929  0.00  0.00    +0.000 N 
ATOM     30  C   UNL     1      -2.025  12.072  18.125  0.00  0.00    +0.000 C 
ATOM     31  O   UNL     1      -1.583  11.562  17.098  0.00  0.00    +0.000 OA
ATOM     32  H   UNL     1      -1.820  13.234  19.787  0.00  0.00    +0.000 HD
BRANCH  30  33
ATOM     33  C   UNL     1      -3.419  11.713  18.521  0.00  0.00    +0.000 A 
ATOM     34  C   UNL     1      -3.960  12.364  19.642  0.00  0.00    +0.000 A 
ATOM     35  C   UNL     1      -5.237  12.040  20.104  0.00  0.00    +0.000 A 
ATOM     36  C   UNL     1      -5.983  11.072  19.437  0.00  0.00    +0.000 A 
ATOM     37 CL   UNL     1      -7.541  10.641  20.024  0.00  0.00    +0.000 Cl
ATOM     38  C   UNL     1      -5.472  10.445  18.300  0.00  0.00    +0.000 A 
ATOM     39  C   UNL     1      -4.192  10.767  17.836  0.00  0.00    +0.000 A 
ENDBRANCH  30  33
ENDBRANCH   5  29
TORSDOF 6
ENDMDL
MODEL 5
REMARK VINA RESULT:      -8.0      0.619      1.023
REMARK  Name = 
REMARK  6 active torsions:
REMARK  status: ('A' for Active; 'I' for Inactive)
REMARK    1  A    between atoms: C_2  and  C_4
REMARK    2  A    between atoms: C_7  and  N_8
REMARK    3  A    between atoms: C_9  and  C_11
REMARK    4  A    between atoms: C_14  and  N_15
REMARK    5  A    between atoms: C_24  and  N_25
REMARK    6  A    between atoms: C_26  and  C_28
REMARK                            x       y       z     vdW  Elec       q    Type
REMARK                         _______ _______ _______ _____ _____    ______ ____
ROOT
ATOM      1  C   UNL     1      -1.864  13.767  23.240  0.00  0.00    +0.000 A 
ATOM      2  C   UNL     1      -2.242  12.437  23.310  0.00  0.00    +0.000 A 
ATOM      3  C   UNL     1      -1.517  11.482  22.609  0.00  0.00    +0.000 A 
ATOM      4  C   UNL     1      -0.384  11.809  21.844  0.00  0.00    +0.000 A 
ATOM      5  C   UNL     1       0.025  13.166  21.784  0.00  0.00    +0.000 A 
ATOM      6  C   UNL     1      -0.725  14.125  22.505  0.00  0.00    +0.000 A 
ENDROOT
BRANCH   1   8
ATOM      7  N   UNL     1      -1.942  15.785  24.602  0.00  0.00    +0.000 N 
ATOM      8  C   UNL     1      -2.646  14.819  23.935  0.00  0.00    +0.000 C 
ATOM      9  O   UNL     1      -3.871  14.804  23.940  0.00  0.00    +0.000 OA
ATOM     10  H   UNL     1      -2.473  16.458  25.136  0.00  0.00    +0.000 HD
ATOM     11  H   UNL     1      -0.949  15.728  24.779  0.00  0.00    +0.000 HD
ENDBRANCH   1   8
BRANCH   4  12
ATOM     12  N   UNL     1       0.338  10.771  21.209  0.00  0.00    +0.000 N 
ATOM     13  C   UNL     1       0.470  10.576  19.845  0.00  0.00    +0.000 C 
ATOM     14  O   UNL     1      -0.022  11.274  18.962  0.00  0.00    +0.000 OA
ATOM     15  H   UNL     1       0.711  10.059  21.830  0.00  0.00    +0.000 HD
BRANCH  13  16
ATOM     16  C   UNL     1       1.188   9.353  19.406  0.00  0.00    +0.000 A 
ATOM     17  C   UNL     1       1.378   8.351  20.372  0.00  0.00    +0.000 A 
ATOM     18  C   UNL     1       2.062   7.182  20.056  0.00  0.00    +0.000 A 
ATOM     19  C   UNL     1       2.586   7.011  18.772  0.00  0.00    +0.000 A 
ATOM     20  C   UNL     1       2.390   8.003  17.803  0.00  0.00    +0.000 A 
ATOM     21  C   UNL     1       1.663   9.158  18.106  0.00  0.00    +0.000 A 
BRANCH  19  22
ATOM     22  N   UNL     1       3.292   5.826  18.440  0.00  0.00    +0.000 N 
ATOM     23  C   UNL     1       4.659   5.737  18.669  0.00  0.00    +0.000 A 
ATOM     24  C   UNL     1       5.364   4.659  18.306  0.00  0.00    +0.000 A 
ATOM     25  C   UNL     1       4.715   3.578  17.617  0.00  0.00    +0.000 A 
ATOM     26  C   UNL     1       3.395   3.612  17.391  0.00  0.00    +0.000 A 
ATOM     27  C   UNL     1       2.578   4.777  17.835  0.00  0.00    +0.000 A 
ATOM     28  O   UNL     1       1.372   4.756  17.597  0.00  0.00    +0.000 OA
ENDBRANCH  19  22
ENDBRANCH  13  16
ENDBRANCH   4  12
BRANCH   5  29
ATOM     29  N   UNL     1       1.170  13.704  21.130  0.00  0.00    +0.000 N 
ATOM     30  C   UNL     1       1.276  14.322  19.904  0.00  0.00    +0.000 C 
ATOM     31  O   UNL     1       0.339  14.610  19.163  0.00  0.00    +0.000 OA
ATOM     32  H   UNL     1       2.026  13.609  21.661  0.00  0.00    +0.000 HD
BRANCH  30  33
ATOM     33  C   UNL     1       2.652  14.641  19.421  0.00  0.00    +0.000 A 
ATOM     34  C   UNL     1       3.688  14.633  20.370  0.00  0.00    +0.000 A 
ATOM     35  C   UNL     1       4.991  14.976  20.001  0.00  0.00    +0.000 A 
ATOM     36  C   UNL     1       5.265  15.314  18.679  0.00  0.00    +0.000 A 
ATOM     37 CL   UNL     1       6.859  15.772  18.227  0.00  0.00    +0.000 Cl
ATOM     38  C   UNL     1       4.252  15.287  17.719  0.00  0.00    +0.000 A 
ATOM     39  C   UNL     1       2.945  14.946  18.086  0.00  0.00    +0.000 A 
ENDBRANCH  30  33
ENDBRANCH   5  29
TORSDOF 6
ENDMDL
MODEL 6
REMARK VINA RESULT:      -8.0      3.915      6.122
REMARK  Name = 
REMARK  6 active torsions:
REMARK  status: ('A' for Active; 'I' for Inactive)
REMARK    1  A    between atoms: C_2  and  C_4
REMARK    2  A    between atoms: C_7  and  N_8
REMARK    3  A    between atoms: C_9  and  C_11
REMARK    4  A    between atoms: C_14  and  N_15
REMARK    5  A    between atoms: C_24  and  N_25
REMARK    6  A    between atoms: C_26  and  C_28
REMARK                            x       y       z     vdW  Elec       q    Type
REMARK                         _______ _______ _______ _____ _____    ______ ____
ROOT
ATOM      1  C   UNL     1       1.368  15.923  18.516  0.00  0.00    +0.000 A 
ATOM      2  C   UNL     1       2.539  15.204  18.348  0.00  0.00    +0.000 A 
ATOM      3  C   UNL     1       2.528  13.827  18.527  0.00  0.00    +0.000 A 
ATOM      4  C   UNL     1       1.356  13.119  18.847  0.00  0.00    +0.000 A 
ATOM      5  C   UNL     1       0.146  13.844  18.999  0.00  0.00    +0.000 A 
ATOM      6  C   UNL     1       0.177  15.246  18.812  0.00  0.00    +0.000 A 
ENDROOT
BRANCH   1   8
ATOM      7  N   UNL     1       0.694  18.110  19.349  0.00  0.00    +0.000 N 
ATOM      8  C   UNL     1       1.356  17.401  18.383  0.00  0.00    +0.000 C 
ATOM      9  O   UNL     1       1.886  17.960  17.431  0.00  0.00    +0.000 OA
ATOM     10  H   UNL     1       0.622  19.109  19.221  0.00  0.00    +0.000 HD
ATOM     11  H   UNL     1       0.091  17.684  20.038  0.00  0.00    +0.000 HD
ENDBRANCH   1   8
BRANCH   4  12
ATOM     12  N   UNL     1       1.413  11.709  18.951  0.00  0.00    +0.000 N 
ATOM     13  C   UNL     1       1.179  10.958  20.090  0.00  0.00    +0.000 C 
ATOM     14  O   UNL     1       0.885  11.396  21.199  0.00  0.00    +0.000 OA
ATOM     15  H   UNL     1       1.749  11.226  18.123  0.00  0.00    +0.000 HD
BRANCH  13  16
ATOM     16  C   UNL     1       1.402   9.494  19.989  0.00  0.00    +0.000 A 
ATOM     17  C   UNL     1       1.168   8.737  21.149  0.00  0.00    +0.000 A 
ATOM     18  C   UNL     1       1.376   7.362  21.153  0.00  0.00    +0.000 A 
ATOM     19  C   UNL     1       1.844   6.728  19.998  0.00  0.00    +0.000 A 
ATOM     20  C   UNL     1       2.068   7.478  18.836  0.00  0.00    +0.000 A 
ATOM     21  C   UNL     1       1.816   8.852  18.818  0.00  0.00    +0.000 A 
BRANCH  19  22
ATOM     22  N   UNL     1       2.067   5.327  19.992  0.00  0.00    +0.000 N 
ATOM     23  C   UNL     1       1.019   4.449  20.240  0.00  0.00    +0.000 A 
ATOM     24  C   UNL     1       1.211   3.127  20.307  0.00  0.00    +0.000 A 
ATOM     25  C   UNL     1       2.536   2.588  20.169  0.00  0.00    +0.000 A 
ATOM     26  C   UNL     1       3.573   3.395  19.909  0.00  0.00    +0.000 A 
ATOM     27  C   UNL     1       3.377   4.866  19.776  0.00  0.00    +0.000 A 
ATOM     28  O   UNL     1       4.366   5.559  19.542  0.00  0.00    +0.000 OA
ENDBRANCH  19  22
ENDBRANCH  13  16
ENDBRANCH   4  12
BRANCH   5  29
ATOM     29  N   UNL     1      -1.156  13.325  19.253  0.00  0.00    +0.000 N 
ATOM     30  C   UNL     1      -1.863  12.353  18.580  0.00  0.00    +0.000 C 
ATOM     31  O   UNL     1      -1.437  11.669  17.653  0.00  0.00    +0.000 OA
ATOM     32  H   UNL     1      -1.615  13.745  20.049  0.00  0.00    +0.000 HD
BRANCH  30  33
ATOM     33  C   UNL     1      -3.281  12.135  18.996  0.00  0.00    +0.000 A 
ATOM     34  C   UNL     1      -4.092  11.365  18.147  0.00  0.00    +0.000 A 
ATOM     35  C   UNL     1      -5.442  11.166  18.444  0.00  0.00    +0.000 A 
ATOM     36  C   UNL     1      -5.981  11.724  19.600  0.00  0.00    +0.000 A 
ATOM     37 CL   UNL     1      -7.651  11.513  19.951  0.00  0.00    +0.000 Cl
ATOM     38  C   UNL     1      -5.176  12.459  20.471  0.00  0.00    +0.000 A 
ATOM     39  C   UNL     1      -3.824  12.662  20.175  0.00  0.00    +0.000 A 
ENDBRANCH  30  33
ENDBRANCH   5  29
TORSDOF 6
ENDMDL
MODEL 7
REMARK VINA RESULT:      -8.0      0.601      1.004
REMARK  Name = 
REMARK  6 active torsions:
REMARK  status: ('A' for Active; 'I' for Inactive)
REMARK    1  A    between atoms: C_2  and  C_4
REMARK    2  A    between atoms: C_7  and  N_8
REMARK    3  A    between atoms: C_9  and  C_11
REMARK    4  A    between atoms: C_14  and  N_15
REMARK    5  A    between atoms: C_24  and  N_25
REMARK    6  A    between atoms: C_26  and  C_28
REMARK                            x       y       z     vdW  Elec       q    Type
REMARK                         _______ _______ _______ _____ _____    ______ ____
ROOT
ATOM      1  C   UNL     1      -1.561  13.929  23.246  0.00  0.00    +0.000 A 
ATOM      2  C   UNL     1      -1.962  12.604  23.271  0.00  0.00    +0.000 A 
ATOM      3  C   UNL     1      -1.242  11.659  22.552  0.00  0.00    +0.000 A 
ATOM      4  C   UNL     1      -0.091  11.989  21.814  0.00  0.00    +0.000 A 
ATOM      5  C   UNL     1       0.340  13.341  21.801  0.00  0.00    +0.000 A 
ATOM      6  C   UNL     1      -0.406  14.289  22.540  0.00  0.00    +0.000 A 
ENDROOT
BRANCH   1   8
ATOM      7  N   UNL     1      -3.159  15.766  23.208  0.00  0.00    +0.000 N 
ATOM      8  C   UNL     1      -2.337  14.972  23.961  0.00  0.00    +0.000 C 
ATOM      9  O   UNL     1      -2.220  15.139  25.169  0.00  0.00    +0.000 OA
ATOM     10  H   UNL     1      -3.631  16.523  23.681  0.00  0.00    +0.000 HD
ATOM     11  H   UNL     1      -3.142  15.786  22.198  0.00  0.00    +0.000 HD
ENDBRANCH   1   8
BRANCH   4  12
ATOM     12  N   UNL     1       0.623  10.958  21.159  0.00  0.00    +0.000 N 
ATOM     13  C   UNL     1       0.250  10.312  19.993  0.00  0.00    +0.000 C 
ATOM     14  O   UNL     1      -0.767  10.527  19.338  0.00  0.00    +0.000 OA
ATOM     15  H   UNL     1       1.438  10.612  21.656  0.00  0.00    +0.000 HD
BRANCH  13  16
ATOM     16  C   UNL     1       1.105   9.184  19.546  0.00  0.00    +0.000 A 
ATOM     17  C   UNL     1       1.519   9.198  18.204  0.00  0.00    +0.000 A 
ATOM     18  C   UNL     1       2.301   8.168  17.692  0.00  0.00    +0.000 A 
ATOM     19  C   UNL     1       2.662   7.097  18.514  0.00  0.00    +0.000 A 
ATOM     20  C   UNL     1       2.259   7.084  19.856  0.00  0.00    +0.000 A 
ATOM     21  C   UNL     1       1.512   8.140  20.383  0.00  0.00    +0.000 A 
BRANCH  19  22
ATOM     22  N   UNL     1       3.453   6.037  18.001  0.00  0.00    +0.000 N 
ATOM     23  C   UNL     1       4.809   6.225  17.764  0.00  0.00    +0.000 A 
ATOM     24  C   UNL     1       5.567   5.267  17.219  0.00  0.00    +0.000 A 
ATOM     25  C   UNL     1       4.969   4.022  16.819  0.00  0.00    +0.000 A 
ATOM     26  C   UNL     1       3.670   3.789  17.046  0.00  0.00    +0.000 A 
ATOM     27  C   UNL     1       2.816   4.820  17.702  0.00  0.00    +0.000 A 
ATOM     28  O   UNL     1       1.629   4.553  17.881  0.00  0.00    +0.000 OA
ENDBRANCH  19  22
ENDBRANCH  13  16
ENDBRANCH   4  12
BRANCH   5  29
ATOM     29  N   UNL     1       1.504  13.879  21.181  0.00  0.00    +0.000 N 
ATOM     30  C   UNL     1       1.686  14.335  19.894  0.00  0.00    +0.000 C 
ATOM     31  O   UNL     1       0.807  14.445  19.042  0.00  0.00    +0.000 OA
ATOM     32  H   UNL     1       2.308  13.925  21.791  0.00  0.00    +0.000 HD
BRANCH  30  33
ATOM     33  C   UNL     1       3.077  14.698  19.493  0.00  0.00    +0.000 A 
ATOM     34  C   UNL     1       3.393  14.636  18.126  0.00  0.00    +0.000 A 
ATOM     35  C   UNL     1       4.689  14.909  17.683  0.00  0.00    +0.000 A 
ATOM     36  C   UNL     1       5.670  15.259  18.606  0.00  0.00    +0.000 A 
ATOM     37 CL   UNL     1       7.277  15.559  18.071  0.00  0.00    +0.000 Cl
ATOM     38  C   UNL     1       5.360  15.362  19.962  0.00  0.00    +0.000 A 
ATOM     39  C   UNL     1       4.062  15.087  20.409  0.00  0.00    +0.000 A 
ENDBRANCH  30  33
ENDBRANCH   5  29
TORSDOF 6
ENDMDL
MODEL 8
REMARK VINA RESULT:      -7.9      3.746      5.310
REMARK  Name = 
REMARK  6 active torsions:
REMARK  status: ('A' for Active; 'I' for Inactive)
REMARK    1  A    between atoms: C_2  and  C_4
REMARK    2  A    between atoms: C_7  and  N_8
REMARK    3  A    between atoms: C_9  and  C_11
REMARK    4  A    between atoms: C_14  and  N_15
REMARK    5  A    between atoms: C_24  and  N_25
REMARK    6  A    between atoms: C_26  and  C_28
REMARK                            x       y       z     vdW  Elec       q    Type
REMARK                         _______ _______ _______ _____ _____    ______ ____
ROOT
ATOM      1  C   UNL     1       0.538  15.336  20.284  0.00  0.00    +0.000 A 
ATOM      2  C   UNL     1       1.615  14.704  20.882  0.00  0.00    +0.000 A 
ATOM      3  C   UNL     1       1.824  13.350  20.656  0.00  0.00    +0.000 A 
ATOM      4  C   UNL     1       0.994  12.590  19.814  0.00  0.00    +0.000 A 
ATOM      5  C   UNL     1      -0.099  13.233  19.179  0.00  0.00    +0.000 A 
ATOM      6  C   UNL     1      -0.296  14.613  19.419  0.00  0.00    +0.000 A 
ENDROOT
BRANCH   1   8
ATOM      7  N   UNL     1       0.678  17.283  21.740  0.00  0.00    +0.000 N 
ATOM      8  C   UNL     1       0.256  16.769  20.544  0.00  0.00    +0.000 C 
ATOM      9  O   UNL     1      -0.360  17.455  19.736  0.00  0.00    +0.000 OA
ATOM     10  H   UNL     1       0.422  18.237  21.949  0.00  0.00    +0.000 HD
ATOM     11  H   UNL     1       1.017  16.713  22.502  0.00  0.00    +0.000 HD
ENDBRANCH   1   8
BRANCH   4  12
ATOM     12  N   UNL     1       1.310  11.229  19.586  0.00  0.00    +0.000 N 
ATOM     13  C   UNL     1       0.810  10.141  20.282  0.00  0.00    +0.000 C 
ATOM     14  O   UNL     1       0.011  10.182  21.214  0.00  0.00    +0.000 OA
ATOM     15  H   UNL     1       2.043  11.062  18.904  0.00  0.00    +0.000 HD
BRANCH  13  16
ATOM     16  C   UNL     1       1.366   8.809  19.937  0.00  0.00    +0.000 A 
ATOM     17  C   UNL     1       1.879   8.654  18.639  0.00  0.00    +0.000 A 
ATOM     18  C   UNL     1       2.397   7.433  18.221  0.00  0.00    +0.000 A 
ATOM     19  C   UNL     1       2.389   6.341  19.095  0.00  0.00    +0.000 A 
ATOM     20  C   UNL     1       1.888   6.495  20.394  0.00  0.00    +0.000 A 
ATOM     21  C   UNL     1       1.409   7.733  20.829  0.00  0.00    +0.000 A 
BRANCH  19  22
ATOM     22  N   UNL     1       2.908   5.088  18.678  0.00  0.00    +0.000 N 
ATOM     23  C   UNL     1       2.121   4.215  17.938  0.00  0.00    +0.000 A 
ATOM     24  C   UNL     1       2.559   3.000  17.588  0.00  0.00    +0.000 A 
ATOM     25  C   UNL     1       3.855   2.553  18.021  0.00  0.00    +0.000 A 
ATOM     26  C   UNL     1       4.655   3.369  18.719  0.00  0.00    +0.000 A 
ATOM     27  C   UNL     1       4.212   4.747  19.075  0.00  0.00    +0.000 A 
ATOM     28  O   UNL     1       4.987   5.450  19.721  0.00  0.00    +0.000 OA
ENDBRANCH  19  22
ENDBRANCH  13  16
ENDBRANCH   4  12
BRANCH   5  29
ATOM     29  N   UNL     1      -1.016  12.675  18.243  0.00  0.00    +0.000 N 
ATOM     30  C   UNL     1      -2.089  11.837  18.453  0.00  0.00    +0.000 C 
ATOM     31  O   UNL     1      -2.516  11.480  19.549  0.00  0.00    +0.000 OA
ATOM     32  H   UNL     1      -0.838  12.944  17.285  0.00  0.00    +0.000 HD
BRANCH  30  33
ATOM     33  C   UNL     1      -2.772  11.293  17.243  0.00  0.00    +0.000 A 
ATOM     34  C   UNL     1      -2.077  10.338  16.482  0.00  0.00    +0.000 A 
ATOM     35  C   UNL     1      -2.632   9.826  15.307  0.00  0.00    +0.000 A 
ATOM     36  C   UNL     1      -3.890  10.257  14.896  0.00  0.00    +0.000 A 
ATOM     37 CL   UNL     1      -4.561   9.658  13.431  0.00  0.00    +0.000 Cl
ATOM     38  C   UNL     1      -4.607  11.176  15.663  0.00  0.00    +0.000 A 
ATOM     39  C   UNL     1      -4.053  11.692  16.840  0.00  0.00    +0.000 A 
ENDBRANCH  30  33
ENDBRANCH   5  29
TORSDOF 6
ENDMDL
MODEL 9
REMARK VINA RESULT:      -7.9      3.542      4.756
REMARK  Name = 
REMARK  6 active torsions:
REMARK  status: ('A' for Active; 'I' for Inactive)
REMARK    1  A    between atoms: C_2  and  C_4
REMARK    2  A    between atoms: C_7  and  N_8
REMARK    3  A    between atoms: C_9  and  C_11
REMARK    4  A    between atoms: C_14  and  N_15
REMARK    5  A    between atoms: C_24  and  N_25
REMARK    6  A    between atoms: C_26  and  C_28
REMARK                            x       y       z     vdW  Elec       q    Type
REMARK                         _______ _______ _______ _____ _____    ______ ____
ROOT
ATOM      1  C   UNL     1      -2.701  13.994  22.388  0.00  0.00    +0.000 A 
ATOM      2  C   UNL     1      -1.808  13.421  23.278  0.00  0.00    +0.000 A 
ATOM      3  C   UNL     1      -1.101  12.287  22.902  0.00  0.00    +0.000 A 
ATOM      4  C   UNL     1      -1.232  11.705  21.628  0.00  0.00    +0.000 A 
ATOM      5  C   UNL     1      -2.128  12.297  20.702  0.00  0.00    +0.000 A 
ATOM      6  C   UNL     1      -2.840  13.453  21.102  0.00  0.00    +0.000 A 
ENDROOT
BRANCH   1   8
ATOM      7  N   UNL     1      -3.833  15.305  24.099  0.00  0.00    +0.000 N 
ATOM      8  C   UNL     1      -3.511  15.175  22.776  0.00  0.00    +0.000 C 
ATOM      9  O   UNL     1      -3.903  15.981  21.941  0.00  0.00    +0.000 OA
ATOM     10  H   UNL     1      -4.445  16.067  24.353  0.00  0.00    +0.000 HD
ATOM     11  H   UNL     1      -3.691  14.573  24.782  0.00  0.00    +0.000 HD
ENDBRANCH   1   8
BRANCH   4  12
ATOM     12  N   UNL     1      -0.430  10.586  21.299  0.00  0.00    +0.000 N 
ATOM     13  C   UNL     1       0.527  10.525  20.301  0.00  0.00    +0.000 C 
ATOM     14  O   UNL     1       0.833  11.435  19.535  0.00  0.00    +0.000 OA
ATOM     15  H   UNL     1      -0.658   9.728  21.794  0.00  0.00    +0.000 HD
BRANCH  13  16
ATOM     16  C   UNL     1       1.172   9.209  20.067  0.00  0.00    +0.000 A 
ATOM     17  C   UNL     1       1.655   8.964  18.771  0.00  0.00    +0.000 A 
ATOM     18  C   UNL     1       2.250   7.747  18.454  0.00  0.00    +0.000 A 
ATOM     19  C   UNL     1       2.351   6.751  19.428  0.00  0.00    +0.000 A 
ATOM     20  C   UNL     1       1.880   6.995  20.725  0.00  0.00    +0.000 A 
ATOM     21  C   UNL     1       1.323   8.232  21.056  0.00  0.00    +0.000 A 
BRANCH  19  22
ATOM     22  N   UNL     1       2.951   5.503  19.115  0.00  0.00    +0.000 N 
ATOM     23  C   UNL     1       4.289   5.441  18.747  0.00  0.00    +0.000 A 
ATOM     24  C   UNL     1       4.865   4.290  18.383  0.00  0.00    +0.000 A 
ATOM     25  C   UNL     1       4.081   3.086  18.317  0.00  0.00    +0.000 A 
ATOM     26  C   UNL     1       2.792   3.095  18.681  0.00  0.00    +0.000 A 
ATOM     27  C   UNL     1       2.142   4.354  19.143  0.00  0.00    +0.000 A 
ATOM     28  O   UNL     1       0.955   4.304  19.460  0.00  0.00    +0.000 OA
ENDBRANCH  19  22
ENDBRANCH  13  16
ENDBRANCH   4  12
BRANCH   5  29
ATOM     29  N   UNL     1      -2.363  11.915  19.350  0.00  0.00    +0.000 N 
ATOM     30  C   UNL     1      -3.531  11.518  18.737  0.00  0.00    +0.000 C 
ATOM     31  O   UNL     1      -4.645  11.509  19.255  0.00  0.00    +0.000 OA
ATOM     32  H   UNL     1      -1.538  11.947  18.766  0.00  0.00    +0.000 HD
BRANCH  30  33
ATOM     33  C   UNL     1      -3.426  11.027  17.331  0.00  0.00    +0.000 A 
ATOM     34  C   UNL     1      -2.439  10.068  17.053  0.00  0.00    +0.000 A 
ATOM     35  C   UNL     1      -2.247   9.604  15.749  0.00  0.00    +0.000 A 
ATOM     36  C   UNL     1      -3.052  10.088  14.722  0.00  0.00    +0.000 A 
ATOM     37 CL   UNL     1      -2.795   9.549  13.110  0.00  0.00    +0.000 Cl
ATOM     38  C   UNL     1      -4.062  11.012  14.992  0.00  0.00    +0.000 A 
ATOM     39  C   UNL     1      -4.255  11.480  16.297  0.00  0.00    +0.000 A 
ENDBRANCH  30  33
ENDBRANCH   5  29
TORSDOF 6
ENDMDL
