MODEL 1
REMARK VINA RESULT:      -7.8      0.000      0.000
REMARK  Name = 
REMARK  5 active torsions:
REMARK  status: ('A' for Active; 'I' for Inactive)
REMARK    1  A    between atoms: C_2  and  C_3
REMARK    2  A    between atoms: N_16  and  C_17
REMARK    3  A    between atoms: C_17  and  C_18
REMARK    4  A    between atoms: C_25  and  C_26
REMARK    5  A    between atoms: C_26  and  O_27
REMARK                            x       y       z     vdW  Elec       q    Type
REMARK                         _______ _______ _______ _____ _____    ______ ____
ROOT
ATOM      1  O   UNL     1       4.009   2.393  18.887  0.00  0.00    +0.000 OA
ATOM      2  C   UNL     1       3.910   3.561  18.524  0.00  0.00    +0.000 C 
ATOM      3  N   UNL     1       2.993   4.469  19.065  0.00  0.00    +0.000 N 
ATOM      4  C   UNL     1       2.206   4.072  20.203  0.00  0.00    +0.000 C 
ATOM      5  C   UNL     1       1.977   5.300  21.060  0.00  0.00    +0.000 C 
ATOM      6  C   UNL     1       1.576   6.558  20.233  0.00  0.00    +0.000 C 
ATOM      7  C   UNL     1       1.360   7.654  21.272  0.00  0.00    +0.000 C 
ATOM      8  N   UNL     1       1.208   8.836  20.474  0.00  0.00    +0.000 NA
ATOM      9  C   UNL     1       2.066   8.550  19.327  0.00  0.00    +0.000 C 
ATOM     10  C   UNL     1       2.663   7.021  19.093  0.00  0.00    +0.000 C 
ATOM     11  C   UNL     1       2.407   5.601  18.327  0.00  0.00    +0.000 C 
ENDROOT
BRANCH   2  12
ATOM     12  C   UNL     1       4.880   4.072  17.519  0.00  0.00    +0.000 A 
ATOM     13  C   UNL     1       4.653   3.846  16.153  0.00  0.00    +0.000 A 
ATOM     14  C   UNL     1       5.611   4.236  15.214  0.00  0.00    +0.000 A 
ATOM     15  C   UNL     1       6.756   4.904  15.639  0.00  0.00    +0.000 A 
ATOM     16  F   UNL     1       7.683   5.247  14.736  0.00  0.00    +0.000 F 
ATOM     17  C   UNL     1       6.955   5.204  16.979  0.00  0.00    +0.000 A 
ATOM     18  C   UNL     1       6.018   4.778  17.918  0.00  0.00    +0.000 A 
ATOM     19  F   UNL     1       6.256   5.031  19.212  0.00  0.00    +0.000 F 
ENDBRANCH   2  12
BRANCH   8  20
ATOM     20  C   UNL     1      -0.190   9.109  20.092  0.00  0.00    +0.000 C 
BRANCH  20  21
ATOM     21  C   UNL     1      -0.409  10.475  19.456  0.00  0.00    +0.000 A 
ATOM     22  C   UNL     1      -1.346  10.625  18.418  0.00  0.00    +0.000 A 
ATOM     23  C   UNL     1      -1.560  11.869  17.822  0.00  0.00    +0.000 A 
ATOM     24  C   UNL     1      -0.842  12.981  18.254  0.00  0.00    +0.000 A 
ATOM     25  C   UNL     1       0.097  12.847  19.277  0.00  0.00    +0.000 A 
ATOM     26  C   UNL     1       0.315  11.601  19.874  0.00  0.00    +0.000 A 
ENDBRANCH  20  21
ENDBRANCH   8  20
BRANCH  10  27
ATOM     27  C   UNL     1       3.035   7.618  17.623  0.00  0.00    +0.000 C 
BRANCH  27  28
ATOM     28  O   UNL     1       2.318   8.828  17.337  0.00  0.00    +0.000 OA
ATOM     29  H   UNL     1       1.677   8.630  16.630  0.00  0.00    +0.000 HD
ENDBRANCH  27  28
ENDBRANCH  10  27
TORSDOF 5
ENDMDL
MODEL 2
REMARK VINA RESULT:      -7.7      1.183      1.584
REMARK  Name = 
REMARK  5 active torsions:
REMARK  status: ('A' for Active; 'I' for Inactive)
REMARK    1  A    between atoms: C_2  and  C_3
REMARK    2  A    between atoms: N_16  and  C_17
REMARK    3  A    between atoms: C_17  and  C_18
REMARK    4  A    between atoms: C_25  and  C_26
REMARK    5  A    between atoms: C_26  and  O_27
REMARK                            x       y       z     vdW  Elec       q    Type
REMARK                         _______ _______ _______ _____ _____    ______ ____
ROOT
ATOM      1  O   UNL     1       3.798   2.294  18.493  0.00  0.00    +0.000 OA
ATOM      2  C   UNL     1       3.770   3.487  18.210  0.00  0.00    +0.000 C 
ATOM      3  N   UNL     1       2.897   4.407  18.802  0.00  0.00    +0.000 N 
ATOM      4  C   UNL     1       2.071   3.979  19.900  0.00  0.00    +0.000 C 
ATOM      5  C   UNL     1       1.898   5.156  20.837  0.00  0.00    +0.000 C 
ATOM      6  C   UNL     1       1.581   6.489  20.094  0.00  0.00    +0.000 C 
ATOM      7  C   UNL     1       1.411   7.522  21.204  0.00  0.00    +0.000 C 
ATOM      8  N   UNL     1       1.338   8.762  20.488  0.00  0.00    +0.000 NA
ATOM      9  C   UNL     1       2.197   8.507  19.334  0.00  0.00    +0.000 C 
ATOM     10  C   UNL     1       2.710   6.966  19.002  0.00  0.00    +0.000 C 
ATOM     11  C   UNL     1       2.387   5.618  18.137  0.00  0.00    +0.000 C 
ENDROOT
BRANCH   2  12
ATOM     12  C   UNL     1       4.783   4.009  17.255  0.00  0.00    +0.000 A 
ATOM     13  C   UNL     1       4.582   3.861  15.875  0.00  0.00    +0.000 A 
ATOM     14  C   UNL     1       5.576   4.260  14.978  0.00  0.00    +0.000 A 
ATOM     15  C   UNL     1       6.735   4.860  15.463  0.00  0.00    +0.000 A 
ATOM     16  F   UNL     1       7.697   5.212  14.600  0.00  0.00    +0.000 F 
ATOM     17  C   UNL     1       6.912   5.086  16.821  0.00  0.00    +0.000 A 
ATOM     18  C   UNL     1       5.937   4.650  17.715  0.00  0.00    +0.000 A 
ATOM     19  F   UNL     1       6.152   4.829  19.025  0.00  0.00    +0.000 F 
ENDBRANCH   2  12
BRANCH   8  20
ATOM     20  C   UNL     1      -0.036   9.140  20.109  0.00  0.00    +0.000 C 
BRANCH  20  21
ATOM     21  C   UNL     1      -0.583  10.346  20.860  0.00  0.00    +0.000 A 
ATOM     22  C   UNL     1      -0.600  10.351  22.266  0.00  0.00    +0.000 A 
ATOM     23  C   UNL     1      -1.097  11.447  22.973  0.00  0.00    +0.000 A 
ATOM     24  C   UNL     1      -1.586  12.555  22.285  0.00  0.00    +0.000 A 
ATOM     25  C   UNL     1      -1.585  12.563  20.891  0.00  0.00    +0.000 A 
ATOM     26  C   UNL     1      -1.088  11.465  20.181  0.00  0.00    +0.000 A 
ENDBRANCH  20  21
ENDBRANCH   8  20
BRANCH  10  27
ATOM     27  C   UNL     1       3.139   7.640  17.582  0.00  0.00    +0.000 C 
BRANCH  27  28
ATOM     28  O   UNL     1       2.400   8.841  17.312  0.00  0.00    +0.000 OA
ATOM     29  H   UNL     1       1.683   8.898  17.969  0.00  0.00    +0.000 HD
ENDBRANCH  27  28
ENDBRANCH  10  27
TORSDOF 5
ENDMDL
MODEL 3
REMARK VINA RESULT:      -7.2      3.214      5.169
REMARK  Name = 
REMARK  5 active torsions:
REMARK  status: ('A' for Active; 'I' for Inactive)
REMARK    1  A    between atoms: C_2  and  C_3
REMARK    2  A    between atoms: N_16  and  C_17
REMARK    3  A    between atoms: C_17  and  C_18
REMARK    4  A    between atoms: C_25  and  C_26
REMARK    5  A    between atoms: C_26  and  O_27
REMARK                            x       y       z     vdW  Elec       q    Type
REMARK                         _______ _______ _______ _____ _____    ______ ____
ROOT
ATOM      1  O   UNL     1       3.437   6.194  17.548  0.00  0.00    +0.000 OA
ATOM      2  C   UNL     1       2.712   6.455  18.502  0.00  0.00    +0.000 C 
ATOM      3  N   UNL     1       2.236   7.739  18.791  0.00  0.00    +0.000 N 
ATOM      4  C   UNL     1       2.486   8.803  17.855  0.00  0.00    +0.000 C 
ATOM      5  C   UNL     1       1.302   9.747  17.899  0.00  0.00    +0.000 C 
ATOM      6  C   UNL     1       0.834  10.075  19.348  0.00  0.00    +0.000 C 
ATOM      7  C   UNL     1      -0.323  11.053  19.170  0.00  0.00    +0.000 C 
ATOM      8  N   UNL     1      -0.864  11.163  20.493  0.00  0.00    +0.000 NA
ATOM      9  C   UNL     1      -0.611   9.835  21.046  0.00  0.00    +0.000 C 
ATOM     10  C   UNL     1       0.388   8.778  20.249  0.00  0.00    +0.000 C 
ATOM     11  C   UNL     1       1.922   8.226  20.145  0.00  0.00    +0.000 C 
ENDROOT
BRANCH   2  12
ATOM     12  C   UNL     1       2.232   5.331  19.350  0.00  0.00    +0.000 A 
ATOM     13  C   UNL     1       2.610   5.266  20.700  0.00  0.00    +0.000 A 
ATOM     14  C   UNL     1       2.245   4.161  21.473  0.00  0.00    +0.000 A 
ATOM     15  C   UNL     1       1.453   3.163  20.912  0.00  0.00    +0.000 A 
ATOM     16  F   UNL     1       1.132   2.093  21.650  0.00  0.00    +0.000 F 
ATOM     17  C   UNL     1       1.005   3.255  19.601  0.00  0.00    +0.000 A 
ATOM     18  C   UNL     1       1.406   4.338  18.820  0.00  0.00    +0.000 A 
ATOM     19  F   UNL     1       1.007   4.379  17.542  0.00  0.00    +0.000 F 
ENDBRANCH   2  12
BRANCH   8  20
ATOM     20  C   UNL     1      -0.251  12.243  21.289  0.00  0.00    +0.000 C 
BRANCH  20  21
ATOM     21  C   UNL     1      -1.178  12.859  22.328  0.00  0.00    +0.000 A 
ATOM     22  C   UNL     1      -2.421  12.262  22.603  0.00  0.00    +0.000 A 
ATOM     23  C   UNL     1      -3.285  12.812  23.551  0.00  0.00    +0.000 A 
ATOM     24  C   UNL     1      -2.920  13.967  24.238  0.00  0.00    +0.000 A 
ATOM     25  C   UNL     1      -1.695  14.577  23.971  0.00  0.00    +0.000 A 
ATOM     26  C   UNL     1      -0.828  14.028  23.020  0.00  0.00    +0.000 A 
ENDBRANCH  20  21
ENDBRANCH   8  20
BRANCH  10  27
ATOM     27  C   UNL     1       0.312   7.969  21.662  0.00  0.00    +0.000 C 
BRANCH  27  28
ATOM     28  O   UNL     1      -0.618   8.570  22.576  0.00  0.00    +0.000 OA
ATOM     29  H   UNL     1      -0.670   9.519  22.361  0.00  0.00    +0.000 HD
ENDBRANCH  27  28
ENDBRANCH  10  27
TORSDOF 5
ENDMDL
MODEL 4
REMARK VINA RESULT:      -7.2      0.897      1.277
REMARK  Name = 
REMARK  5 active torsions:
REMARK  status: ('A' for Active; 'I' for Inactive)
REMARK    1  A    between atoms: C_2  and  C_3
REMARK    2  A    between atoms: N_16  and  C_17
REMARK    3  A    between atoms: C_17  and  C_18
REMARK    4  A    between atoms: C_25  and  C_26
REMARK    5  A    between atoms: C_26  and  O_27
REMARK                            x       y       z     vdW  Elec       q    Type
REMARK                         _______ _______ _______ _____ _____    ______ ____
ROOT
ATOM      1  O   UNL     1       3.934   2.371  19.213  0.00  0.00    +0.000 OA
ATOM      2  C   UNL     1       3.857   3.523  18.797  0.00  0.00    +0.000 C 
ATOM      3  N   UNL     1       2.942   4.466  19.280  0.00  0.00    +0.000 N 
ATOM      4  C   UNL     1       2.131   4.130  20.421  0.00  0.00    +0.000 C 
ATOM      5  C   UNL     1       1.904   5.398  21.217  0.00  0.00    +0.000 C 
ATOM      6  C   UNL     1       1.534   6.623  20.328  0.00  0.00    +0.000 C 
ATOM      7  C   UNL     1       1.315   7.767  21.314  0.00  0.00    +0.000 C 
ATOM      8  N   UNL     1       1.192   8.913  20.461  0.00  0.00    +0.000 NA
ATOM      9  C   UNL     1       2.066   8.566  19.343  0.00  0.00    +0.000 C 
ATOM     10  C   UNL     1       2.646   7.020  19.188  0.00  0.00    +0.000 C 
ATOM     11  C   UNL     1       2.384   5.571  18.483  0.00  0.00    +0.000 C 
ENDROOT
BRANCH   2  12
ATOM     12  C   UNL     1       4.851   3.976  17.787  0.00  0.00    +0.000 A 
ATOM     13  C   UNL     1       6.090   4.482  18.208  0.00  0.00    +0.000 A 
ATOM     14  C   UNL     1       6.985   5.001  17.270  0.00  0.00    +0.000 A 
ATOM     15  C   UNL     1       6.664   4.953  15.916  0.00  0.00    +0.000 A 
ATOM     16  F   UNL     1       7.514   5.480  15.025  0.00  0.00    +0.000 F 
ATOM     17  C   UNL     1       5.476   4.382  15.481  0.00  0.00    +0.000 A 
ATOM     18  C   UNL     1       4.567   3.903  16.422  0.00  0.00    +0.000 A 
ATOM     19  F   UNL     1       3.404   3.405  15.983  0.00  0.00    +0.000 F 
ENDBRANCH   2  12
BRANCH   8  20
ATOM     20  C   UNL     1      -0.195   9.187  20.043  0.00  0.00    +0.000 C 
BRANCH  20  21
ATOM     21  C   UNL     1      -0.406  10.568  19.438  0.00  0.00    +0.000 A 
ATOM     22  C   UNL     1      -1.362  10.753  18.424  0.00  0.00    +0.000 A 
ATOM     23  C   UNL     1      -1.569  12.012  17.856  0.00  0.00    +0.000 A 
ATOM     24  C   UNL     1      -0.823  13.103  18.294  0.00  0.00    +0.000 A 
ATOM     25  C   UNL     1       0.136  12.935  19.292  0.00  0.00    +0.000 A 
ATOM     26  C   UNL     1       0.346  11.674  19.861  0.00  0.00    +0.000 A 
ENDBRANCH  20  21
ENDBRANCH   8  20
BRANCH  10  27
ATOM     27  C   UNL     1       3.051   7.546  17.700  0.00  0.00    +0.000 C 
BRANCH  27  28
ATOM     28  O   UNL     1       2.360   8.755  17.350  0.00  0.00    +0.000 OA
ATOM     29  H   UNL     1       1.477   8.717  17.760  0.00  0.00    +0.000 HD
ENDBRANCH  27  28
ENDBRANCH  10  27
TORSDOF 5
ENDMDL
MODEL 5
REMARK VINA RESULT:      -7.1      0.678      1.131
REMARK  Name = 
REMARK  5 active torsions:
REMARK  status: ('A' for Active; 'I' for Inactive)
REMARK    1  A    between atoms: C_2  and  C_3
REMARK    2  A    between atoms: N_16  and  C_17
REMARK    3  A    between atoms: C_17  and  C_18
REMARK    4  A    between atoms: C_25  and  C_26
REMARK    5  A    between atoms: C_26  and  O_27
REMARK                            x       y       z     vdW  Elec       q    Type
REMARK                         _______ _______ _______ _____ _____    ______ ____
ROOT
ATOM      1  O   UNL     1       4.015   2.264  18.397  0.00  0.00    +0.000 OA
ATOM      2  C   UNL     1       3.939   3.453  18.103  0.00  0.00    +0.000 C 
ATOM      3  N   UNL     1       3.043   4.347  18.701  0.00  0.00    +0.000 N 
ATOM      4  C   UNL     1       2.253   3.901  19.818  0.00  0.00    +0.000 C 
ATOM      5  C   UNL     1       2.055   5.082  20.746  0.00  0.00    +0.000 C 
ATOM      6  C   UNL     1       1.676   6.394  19.996  0.00  0.00    +0.000 C 
ATOM      7  C   UNL     1       1.488   7.431  21.098  0.00  0.00    +0.000 C 
ATOM      8  N   UNL     1       1.357   8.660  20.371  0.00  0.00    +0.000 NA
ATOM      9  C   UNL     1       2.204   8.424  19.204  0.00  0.00    +0.000 C 
ATOM     10  C   UNL     1       2.767   6.899  18.878  0.00  0.00    +0.000 C 
ATOM     11  C   UNL     1       2.478   5.531  18.033  0.00  0.00    +0.000 C 
ENDROOT
BRANCH   2  12
ATOM     12  C   UNL     1       4.915   4.001  17.124  0.00  0.00    +0.000 A 
ATOM     13  C   UNL     1       4.624   3.961  15.752  0.00  0.00    +0.000 A 
ATOM     14  C   UNL     1       5.579   4.383  14.824  0.00  0.00    +0.000 A 
ATOM     15  C   UNL     1       6.791   4.900  15.274  0.00  0.00    +0.000 A 
ATOM     16  F   UNL     1       7.713   5.274  14.379  0.00  0.00    +0.000 F 
ATOM     17  C   UNL     1       7.059   5.019  16.631  0.00  0.00    +0.000 A 
ATOM     18  C   UNL     1       6.121   4.560  17.553  0.00  0.00    +0.000 A 
ATOM     19  F   UNL     1       6.423   4.635  18.855  0.00  0.00    +0.000 F 
ENDBRANCH   2  12
BRANCH   8  20
ATOM     20  C   UNL     1      -0.037   8.984  20.014  0.00  0.00    +0.000 C 
BRANCH  20  21
ATOM     21  C   UNL     1      -0.281  10.458  19.720  0.00  0.00    +0.000 A 
ATOM     22  C   UNL     1       0.379  11.444  20.474  0.00  0.00    +0.000 A 
ATOM     23  C   UNL     1       0.168  12.800  20.221  0.00  0.00    +0.000 A 
ATOM     24  C   UNL     1      -0.707  13.191  19.210  0.00  0.00    +0.000 A 
ATOM     25  C   UNL     1      -1.377  12.226  18.459  0.00  0.00    +0.000 A 
ATOM     26  C   UNL     1      -1.167  10.866  18.712  0.00  0.00    +0.000 A 
ENDBRANCH  20  21
ENDBRANCH   8  20
BRANCH  10  27
ATOM     27  C   UNL     1       3.145   7.573  17.443  0.00  0.00    +0.000 C 
BRANCH  27  28
ATOM     28  O   UNL     1       4.525   7.373  17.102  0.00  0.00    +0.000 OA
ATOM     29  H   UNL     1       4.561   6.683  16.415  0.00  0.00    +0.000 HD
ENDBRANCH  27  28
ENDBRANCH  10  27
TORSDOF 5
ENDMDL
MODEL 6
REMARK VINA RESULT:      -7.0      3.068      4.888
REMARK  Name = 
REMARK  5 active torsions:
REMARK  status: ('A' for Active; 'I' for Inactive)
REMARK    1  A    between atoms: C_2  and  C_3
REMARK    2  A    between atoms: N_16  and  C_17
REMARK    3  A    between atoms: C_17  and  C_18
REMARK    4  A    between atoms: C_25  and  C_26
REMARK    5  A    between atoms: C_26  and  O_27
REMARK                            x       y       z     vdW  Elec       q    Type
REMARK                         _______ _______ _______ _____ _____    ______ ____
ROOT
ATOM      1  O   UNL     1       3.523   5.956  17.524  0.00  0.00    +0.000 OA
ATOM      2  C   UNL     1       2.806   6.291  18.461  0.00  0.00    +0.000 C 
ATOM      3  N   UNL     1       2.395   7.609  18.694  0.00  0.00    +0.000 N 
ATOM      4  C   UNL     1       2.708   8.621  17.719  0.00  0.00    +0.000 C 
ATOM      5  C   UNL     1       1.574   9.625  17.714  0.00  0.00    +0.000 C 
ATOM      6  C   UNL     1       1.112  10.035  19.145  0.00  0.00    +0.000 C 
ATOM      7  C   UNL     1       0.009  11.064  18.917  0.00  0.00    +0.000 C 
ATOM      8  N   UNL     1      -0.536  11.254  20.230  0.00  0.00    +0.000 NA
ATOM      9  C   UNL     1      -0.356   9.938  20.837  0.00  0.00    +0.000 C 
ATOM     10  C   UNL     1       0.592   8.799  20.092  0.00  0.00    +0.000 C 
ATOM     11  C   UNL     1       2.096   8.165  20.024  0.00  0.00    +0.000 C 
ENDROOT
BRANCH   2  12
ATOM     12  C   UNL     1       2.261   5.229  19.347  0.00  0.00    +0.000 A 
ATOM     13  C   UNL     1       2.638   5.187  20.698  0.00  0.00    +0.000 A 
ATOM     14  C   UNL     1       2.209   4.134  21.509  0.00  0.00    +0.000 A 
ATOM     15  C   UNL     1       1.356   3.166  20.983  0.00  0.00    +0.000 A 
ATOM     16  F   UNL     1       0.974   2.144  21.758  0.00  0.00    +0.000 F 
ATOM     17  C   UNL     1       0.912   3.241  19.670  0.00  0.00    +0.000 A 
ATOM     18  C   UNL     1       1.375   4.269  18.852  0.00  0.00    +0.000 A 
ATOM     19  F   UNL     1       0.976   4.291  17.574  0.00  0.00    +0.000 F 
ENDBRANCH   2  12
BRANCH   8  20
ATOM     20  C   UNL     1       0.127  12.332  20.989  0.00  0.00    +0.000 C 
BRANCH  20  21
ATOM     21  C   UNL     1       0.398  13.592  20.179  0.00  0.00    +0.000 A 
ATOM     22  C   UNL     1       1.715  13.930  19.823  0.00  0.00    +0.000 A 
ATOM     23  C   UNL     1       1.984  15.082  19.081  0.00  0.00    +0.000 A 
ATOM     24  C   UNL     1       0.939  15.913  18.686  0.00  0.00    +0.000 A 
ATOM     25  C   UNL     1      -0.373  15.598  19.039  0.00  0.00    +0.000 A 
ATOM     26  C   UNL     1      -0.643  14.445  19.783  0.00  0.00    +0.000 A 
ENDBRANCH  20  21
ENDBRANCH   8  20
BRANCH  10  27
ATOM     27  C   UNL     1       0.463   8.052  21.534  0.00  0.00    +0.000 C 
BRANCH  27  28
ATOM     28  O   UNL     1      -0.274   8.839  22.483  0.00  0.00    +0.000 OA
ATOM     29  H   UNL     1      -1.214   8.799  22.230  0.00  0.00    +0.000 HD
ENDBRANCH  27  28
ENDBRANCH  10  27
TORSDOF 5
ENDMDL
MODEL 7
REMARK VINA RESULT:      -7.0      1.375      1.883
REMARK  Name = 
REMARK  5 active torsions:
REMARK  status: ('A' for Active; 'I' for Inactive)
REMARK    1  A    between atoms: C_2  and  C_3
REMARK    2  A    between atoms: N_16  and  C_17
REMARK    3  A    between atoms: C_17  and  C_18
REMARK    4  A    between atoms: C_25  and  C_26
REMARK    5  A    between atoms: C_26  and  O_27
REMARK                            x       y       z     vdW  Elec       q    Type
REMARK                         _______ _______ _______ _____ _____    ______ ____
ROOT
ATOM      1  O   UNL     1       3.897   2.496  19.406  0.00  0.00    +0.000 OA
ATOM      2  C   UNL     1       3.819   3.624  18.932  0.00  0.00    +0.000 C 
ATOM      3  N   UNL     1       2.914   4.595  19.377  0.00  0.00    +0.000 N 
ATOM      4  C   UNL     1       2.114   4.322  20.542  0.00  0.00    +0.000 C 
ATOM      5  C   UNL     1       1.901   5.629  21.276  0.00  0.00    +0.000 C 
ATOM      6  C   UNL     1       1.525   6.809  20.330  0.00  0.00    +0.000 C 
ATOM      7  C   UNL     1       1.322   8.002  21.258  0.00  0.00    +0.000 C 
ATOM      8  N   UNL     1       1.194   9.104  20.350  0.00  0.00    +0.000 NA
ATOM      9  C   UNL     1       2.053   8.697  19.241  0.00  0.00    +0.000 C 
ATOM     10  C   UNL     1       2.626   7.143  19.158  0.00  0.00    +0.000 C 
ATOM     11  C   UNL     1       2.350   5.660  18.531  0.00  0.00    +0.000 C 
ENDROOT
BRANCH   2  12
ATOM     12  C   UNL     1       4.803   4.021  17.890  0.00  0.00    +0.000 A 
ATOM     13  C   UNL     1       6.049   4.544  18.270  0.00  0.00    +0.000 A 
ATOM     14  C   UNL     1       6.935   5.011  17.296  0.00  0.00    +0.000 A 
ATOM     15  C   UNL     1       6.598   4.894  15.950  0.00  0.00    +0.000 A 
ATOM     16  F   UNL     1       7.439   5.371  15.024  0.00  0.00    +0.000 F 
ATOM     17  C   UNL     1       5.403   4.306  15.558  0.00  0.00    +0.000 A 
ATOM     18  C   UNL     1       4.504   3.879  16.533  0.00  0.00    +0.000 A 
ATOM     19  F   UNL     1       3.334   3.363  16.133  0.00  0.00    +0.000 F 
ENDBRANCH   2  12
BRANCH   8  20
ATOM     20  C   UNL     1      -0.197   9.362  19.933  0.00  0.00    +0.000 C 
BRANCH  20  21
ATOM     21  C   UNL     1      -0.770  10.677  20.444  0.00  0.00    +0.000 A 
ATOM     22  C   UNL     1      -0.613  11.035  21.795  0.00  0.00    +0.000 A 
ATOM     23  C   UNL     1      -1.131  12.236  22.282  0.00  0.00    +0.000 A 
ATOM     24  C   UNL     1      -1.814  13.097  21.427  0.00  0.00    +0.000 A 
ATOM     25  C   UNL     1      -1.986  12.753  20.086  0.00  0.00    +0.000 A 
ATOM     26  C   UNL     1      -1.469  11.550  19.596  0.00  0.00    +0.000 A 
ENDBRANCH  20  21
ENDBRANCH   8  20
BRANCH  10  27
ATOM     27  C   UNL     1       3.016   7.590  17.641  0.00  0.00    +0.000 C 
BRANCH  27  28
ATOM     28  O   UNL     1       2.454   8.865  17.295  0.00  0.00    +0.000 OA
ATOM     29  H   UNL     1       2.960   9.548  17.772  0.00  0.00    +0.000 HD
ENDBRANCH  27  28
ENDBRANCH  10  27
TORSDOF 5
ENDMDL
MODEL 8
REMARK VINA RESULT:      -7.0      1.523      1.842
REMARK  Name = 
REMARK  5 active torsions:
REMARK  status: ('A' for Active; 'I' for Inactive)
REMARK    1  A    between atoms: C_2  and  C_3
REMARK    2  A    between atoms: N_16  and  C_17
REMARK    3  A    between atoms: C_17  and  C_18
REMARK    4  A    between atoms: C_25  and  C_26
REMARK    5  A    between atoms: C_26  and  O_27
REMARK                            x       y       z     vdW  Elec       q    Type
REMARK                         _______ _______ _______ _____ _____    ______ ____
ROOT
ATOM      1  O   UNL     1       3.528   3.073  20.092  0.00  0.00    +0.000 OA
ATOM      2  C   UNL     1       3.583   4.049  19.352  0.00  0.00    +0.000 C 
ATOM      3  N   UNL     1       2.720   5.147  19.446  0.00  0.00    +0.000 N 
ATOM      4  C   UNL     1       1.798   5.217  20.550  0.00  0.00    +0.000 C 
ATOM      5  C   UNL     1       1.622   6.677  20.914  0.00  0.00    +0.000 C 
ATOM      6  C   UNL     1       1.428   7.600  19.674  0.00  0.00    +0.000 C 
ATOM      7  C   UNL     1       1.234   8.997  20.255  0.00  0.00    +0.000 C 
ATOM      8  N   UNL     1       1.277   9.841  19.097  0.00  0.00    +0.000 NA
ATOM      9  C   UNL     1       2.199   9.123  18.221  0.00  0.00    +0.000 C 
ATOM     10  C   UNL     1       2.653   7.570  18.582  0.00  0.00    +0.000 C 
ATOM     11  C   UNL     1       2.321   5.994  18.310  0.00  0.00    +0.000 C 
ENDROOT
BRANCH   2  12
ATOM     12  C   UNL     1       4.686   4.119  18.357  0.00  0.00    +0.000 A 
ATOM     13  C   UNL     1       5.953   4.576  18.751  0.00  0.00    +0.000 A 
ATOM     14  C   UNL     1       6.962   4.738  17.799  0.00  0.00    +0.000 A 
ATOM     15  C   UNL     1       6.719   4.383  16.475  0.00  0.00    +0.000 A 
ATOM     16  F   UNL     1       7.682   4.570  15.563  0.00  0.00    +0.000 F 
ATOM     17  C   UNL     1       5.496   3.855  16.087  0.00  0.00    +0.000 A 
ATOM     18  C   UNL     1       4.478   3.733  17.030  0.00  0.00    +0.000 A 
ATOM     19  F   UNL     1       3.288   3.271  16.623  0.00  0.00    +0.000 F 
ENDBRANCH   2  12
BRANCH   8  20
ATOM     20  C   UNL     1      -0.046  10.060  18.483  0.00  0.00    +0.000 C 
BRANCH  20  21
ATOM     21  C   UNL     1      -0.876  11.146  19.153  0.00  0.00    +0.000 A 
ATOM     22  C   UNL     1      -2.241  11.279  18.846  0.00  0.00    +0.000 A 
ATOM     23  C   UNL     1      -3.018  12.269  19.450  0.00  0.00    +0.000 A 
ATOM     24  C   UNL     1      -2.441  13.142  20.370  0.00  0.00    +0.000 A 
ATOM     25  C   UNL     1      -1.086  13.030  20.679  0.00  0.00    +0.000 A 
ATOM     26  C   UNL     1      -0.306  12.039  20.074  0.00  0.00    +0.000 A 
ENDBRANCH  20  21
ENDBRANCH   8  20
BRANCH  10  27
ATOM     27  C   UNL     1       3.214   7.601  17.053  0.00  0.00    +0.000 C 
BRANCH  27  28
ATOM     28  O   UNL     1       4.610   7.274  16.985  0.00  0.00    +0.000 OA
ATOM     29  H   UNL     1       4.680   6.331  16.750  0.00  0.00    +0.000 HD
ENDBRANCH  27  28
ENDBRANCH  10  27
TORSDOF 5
ENDMDL
MODEL 9
REMARK VINA RESULT:      -6.7      3.032      4.936
REMARK  Name = 
REMARK  5 active torsions:
REMARK  status: ('A' for Active; 'I' for Inactive)
REMARK    1  A    between atoms: C_2  and  C_3
REMARK    2  A    between atoms: N_16  and  C_17
REMARK    3  A    between atoms: C_17  and  C_18
REMARK    4  A    between atoms: C_25  and  C_26
REMARK    5  A    between atoms: C_26  and  O_27
REMARK                            x       y       z     vdW  Elec       q    Type
REMARK                         _______ _______ _______ _____ _____    ______ ____
ROOT
ATOM      1  O   UNL     1       3.517   6.179  17.462  0.00  0.00    +0.000 OA
ATOM      2  C   UNL     1       2.830   6.424  18.448  0.00  0.00    +0.000 C 
ATOM      3  N   UNL     1       2.303   7.688  18.736  0.00  0.00    +0.000 N 
ATOM      4  C   UNL     1       2.449   8.743  17.767  0.00  0.00    +0.000 C 
ATOM      5  C   UNL     1       1.222   9.626  17.854  0.00  0.00    +0.000 C 
ATOM      6  C   UNL     1       0.812   9.963  19.319  0.00  0.00    +0.000 C 
ATOM      7  C   UNL     1      -0.402  10.876  19.183  0.00  0.00    +0.000 C 
ATOM      8  N   UNL     1      -0.880  10.988  20.530  0.00  0.00    +0.000 NA
ATOM      9  C   UNL     1      -0.530   9.687  21.095  0.00  0.00    +0.000 C 
ATOM     10  C   UNL     1       0.480   8.664  20.268  0.00  0.00    +0.000 C 
ATOM     11  C   UNL     1       2.033   8.189  20.094  0.00  0.00    +0.000 C 
ENDROOT
BRANCH   2  12
ATOM     12  C   UNL     1       2.452   5.296  19.342  0.00  0.00    +0.000 A 
ATOM     13  C   UNL     1       1.105   4.925  19.464  0.00  0.00    +0.000 A 
ATOM     14  C   UNL     1       0.735   3.934  20.377  0.00  0.00    +0.000 A 
ATOM     15  C   UNL     1       1.719   3.279  21.113  0.00  0.00    +0.000 A 
ATOM     16  F   UNL     1       1.354   2.352  22.008  0.00  0.00    +0.000 F 
ATOM     17  C   UNL     1       3.062   3.581  20.942  0.00  0.00    +0.000 A 
ATOM     18  C   UNL     1       3.424   4.598  20.062  0.00  0.00    +0.000 A 
ATOM     19  F   UNL     1       4.722   4.910  19.952  0.00  0.00    +0.000 F 
ENDBRANCH   2  12
BRANCH   8  20
ATOM     20  C   UNL     1      -0.283  12.115  21.272  0.00  0.00    +0.000 C 
BRANCH  20  21
ATOM     21  C   UNL     1      -1.206  12.740  22.309  0.00  0.00    +0.000 A 
ATOM     22  C   UNL     1      -2.470  12.176  22.556  0.00  0.00    +0.000 A 
ATOM     23  C   UNL     1      -3.331  12.735  23.503  0.00  0.00    +0.000 A 
ATOM     24  C   UNL     1      -2.941  13.866  24.216  0.00  0.00    +0.000 A 
ATOM     25  C   UNL     1      -1.694  14.443  23.976  0.00  0.00    +0.000 A 
ATOM     26  C   UNL     1      -0.831  13.885  23.027  0.00  0.00    +0.000 A 
ENDBRANCH  20  21
ENDBRANCH   8  20
BRANCH  10  27
ATOM     27  C   UNL     1       0.518   7.884  21.698  0.00  0.00    +0.000 C 
BRANCH  27  28
ATOM     28  O   UNL     1      -0.561   8.283  22.557  0.00  0.00    +0.000 OA
ATOM     29  H   UNL     1      -0.225   8.282  23.471  0.00  0.00    +0.000 HD
ENDBRANCH  27  28
ENDBRANCH  10  27
TORSDOF 5
ENDMDL
