MODEL 1
REMARK VINA RESULT:      -6.5      0.000      0.000
REMARK  Name = 
REMARK  11 active torsions:
REMARK  status: ('A' for Active; 'I' for Inactive)
REMARK    1  A    between atoms: C_1  and  C_2
REMARK    2  A    between atoms: C_2  and  O_3
REMARK    3  A    between atoms: O_3  and  C_4
REMARK    4  A    between atoms: C_4  and  C_6
REMARK    5  A    between atoms: C_6  and  C_7
REMARK    6  A    between atoms: C_6  and  C_12
REMARK    7  A    between atoms: C_7  and  O_9
REMARK    8  A    between atoms: O_9  and  C_10
REMARK    9  A    between atoms: C_10  and  C_11
REMARK   10  A    between atoms: C_12  and  C_13
REMARK   11  A    between atoms: C_12  and  C_15
REMARK                            x       y       z     vdW  Elec       q    Type
REMARK                         _______ _______ _______ _____ _____    ______ ____
ROOT
ATOM      1  C   UNL     1       5.588   5.015  16.517  0.00  0.00    +0.000 C 
ENDROOT
BRANCH   1   2
ATOM      2  C   UNL     1       5.513   6.518  16.703  0.00  0.00    +0.000 C 
ATOM      3  O   UNL     1       6.484   7.245  16.859  0.00  0.00    +0.000 OA
BRANCH   2   4
ATOM      4  O   UNL     1       4.229   6.964  16.620  0.00  0.00    +0.000 OA
BRANCH   4   6
ATOM      5  C   UNL     1       2.324   7.555  18.026  0.00  0.00    +0.000 C 
ATOM      6  C   UNL     1       3.808   7.743  17.755  0.00  0.00    +0.000 C 
ENDBRANCH   4   6
ENDBRANCH   2   4
ENDBRANCH   1   2
BRANCH   1   7
ATOM      7  C   UNL     1       6.875   4.696  15.798  0.00  0.00    +0.000 C 
ATOM      8  O   UNL     1       7.925   4.419  16.366  0.00  0.00    +0.000 OA
BRANCH   7   9
ATOM      9  O   UNL     1       6.754   4.843  14.451  0.00  0.00    +0.000 OA
BRANCH   9  10
ATOM     10  C   UNL     1       5.806   3.961  13.823  0.00  0.00    +0.000 C 
ATOM     11  C   UNL     1       6.323   3.534  12.463  0.00  0.00    +0.000 C 
ENDBRANCH   9  10
ENDBRANCH   7   9
ENDBRANCH   1   7
BRANCH   1  12
ATOM     12  C   UNL     1       5.448   4.263  17.860  0.00  0.00    +0.000 C 
BRANCH  12  13
ATOM     13  C   UNL     1       3.981   4.206  18.318  0.00  0.00    +0.000 A 
ATOM     14  C   UNL     1       3.648   4.474  19.653  0.00  0.00    +0.000 A 
ATOM     15  C   UNL     1       2.321   4.374  20.089  0.00  0.00    +0.000 A 
ATOM     16  C   UNL     1       1.311   4.002  19.202  0.00  0.00    +0.000 A 
ATOM     17  C   UNL     1       1.618   3.741  17.872  0.00  0.00    +0.000 A 
ATOM     18  C   UNL     1       2.940   3.847  17.435  0.00  0.00    +0.000 A 
ENDBRANCH  12  13
BRANCH  12  19
ATOM     19  C   UNL     1       6.305   4.931  18.922  0.00  0.00    +0.000 C 
ATOM     20  N   UNL     1       7.016   5.484  19.805  0.00  0.00    +0.000 NA
ENDBRANCH  12  19
ENDBRANCH   1  12
TORSDOF 9
ENDMDL
MODEL 2
REMARK VINA RESULT:      -6.4      2.078      3.021
REMARK  Name = 
REMARK  11 active torsions:
REMARK  status: ('A' for Active; 'I' for Inactive)
REMARK    1  A    between atoms: C_1  and  C_2
REMARK    2  A    between atoms: C_2  and  O_3
REMARK    3  A    between atoms: O_3  and  C_4
REMARK    4  A    between atoms: C_4  and  C_6
REMARK    5  A    between atoms: C_6  and  C_7
REMARK    6  A    between atoms: C_6  and  C_12
REMARK    7  A    between atoms: C_7  and  O_9
REMARK    8  A    between atoms: O_9  and  C_10
REMARK    9  A    between atoms: C_10  and  C_11
REMARK   10  A    between atoms: C_12  and  C_13
REMARK   11  A    between atoms: C_12  and  C_15
REMARK                            x       y       z     vdW  Elec       q    Type
REMARK                         _______ _______ _______ _____ _____    ______ ____
ROOT
ATOM      1  C   UNL     1       4.334   5.615  17.180  0.00  0.00    +0.000 C 
ENDROOT
BRANCH   1   2
ATOM      2  C   UNL     1       5.219   6.709  16.615  0.00  0.00    +0.000 C 
ATOM      3  O   UNL     1       5.221   7.061  15.443  0.00  0.00    +0.000 OA
BRANCH   2   4
ATOM      4  O   UNL     1       5.975   7.288  17.588  0.00  0.00    +0.000 OA
BRANCH   4   6
ATOM      5  C   UNL     1       8.050   8.558  17.781  0.00  0.00    +0.000 C 
ATOM      6  C   UNL     1       7.389   7.270  17.317  0.00  0.00    +0.000 C 
ENDBRANCH   4   6
ENDBRANCH   2   4
ENDBRANCH   1   2
BRANCH   1   7
ATOM      7  C   UNL     1       5.199   4.411  17.458  0.00  0.00    +0.000 C 
ATOM      8  O   UNL     1       5.825   4.243  18.497  0.00  0.00    +0.000 OA
BRANCH   7   9
ATOM      9  O   UNL     1       5.273   3.580  16.382  0.00  0.00    +0.000 OA
BRANCH   9  10
ATOM     10  C   UNL     1       6.439   3.749  15.558  0.00  0.00    +0.000 C 
ATOM     11  C   UNL     1       6.026   3.922  14.109  0.00  0.00    +0.000 C 
ENDBRANCH   9  10
ENDBRANCH   7   9
ENDBRANCH   1   7
BRANCH   1  12
ATOM     12  C   UNL     1       3.555   6.094  18.426  0.00  0.00    +0.000 C 
BRANCH  12  13
ATOM     13  C   UNL     1       2.614   4.997  18.952  0.00  0.00    +0.000 A 
ATOM     14  C   UNL     1       1.904   4.187  18.054  0.00  0.00    +0.000 A 
ATOM     15  C   UNL     1       1.007   3.220  18.526  0.00  0.00    +0.000 A 
ATOM     16  C   UNL     1       0.804   3.052  19.895  0.00  0.00    +0.000 A 
ATOM     17  C   UNL     1       1.505   3.837  20.802  0.00  0.00    +0.000 A 
ATOM     18  C   UNL     1       2.404   4.797  20.333  0.00  0.00    +0.000 A 
ENDBRANCH  12  13
BRANCH  12  19
ATOM     19  C   UNL     1       2.766   7.350  18.095  0.00  0.00    +0.000 C 
ATOM     20  N   UNL     1       2.110   8.392  17.820  0.00  0.00    +0.000 NA
ENDBRANCH  12  19
ENDBRANCH   1  12
TORSDOF 9
ENDMDL
MODEL 3
REMARK VINA RESULT:      -6.4      2.090      2.851
REMARK  Name = 
REMARK  11 active torsions:
REMARK  status: ('A' for Active; 'I' for Inactive)
REMARK    1  A    between atoms: C_1  and  C_2
REMARK    2  A    between atoms: C_2  and  O_3
REMARK    3  A    between atoms: O_3  and  C_4
REMARK    4  A    between atoms: C_4  and  C_6
REMARK    5  A    between atoms: C_6  and  C_7
REMARK    6  A    between atoms: C_6  and  C_12
REMARK    7  A    between atoms: C_7  and  O_9
REMARK    8  A    between atoms: O_9  and  C_10
REMARK    9  A    between atoms: C_10  and  C_11
REMARK   10  A    between atoms: C_12  and  C_13
REMARK   11  A    between atoms: C_12  and  C_15
REMARK                            x       y       z     vdW  Elec       q    Type
REMARK                         _______ _______ _______ _____ _____    ______ ____
ROOT
ATOM      1  C   UNL     1       4.555   5.621  17.378  0.00  0.00    +0.000 C 
ENDROOT
BRANCH   1   2
ATOM      2  C   UNL     1       5.334   6.753  16.738  0.00  0.00    +0.000 C 
ATOM      3  O   UNL     1       5.258   7.066  15.557  0.00  0.00    +0.000 OA
BRANCH   2   4
ATOM      4  O   UNL     1       6.092   7.415  17.655  0.00  0.00    +0.000 OA
BRANCH   4   6
ATOM      5  C   UNL     1       8.110   8.770  17.869  0.00  0.00    +0.000 C 
ATOM      6  C   UNL     1       7.486   7.502  17.308  0.00  0.00    +0.000 C 
ENDBRANCH   4   6
ENDBRANCH   2   4
ENDBRANCH   1   2
BRANCH   1   7
ATOM      7  C   UNL     1       5.542   4.580  17.845  0.00  0.00    +0.000 C 
ATOM      8  O   UNL     1       5.652   4.216  19.009  0.00  0.00    +0.000 OA
BRANCH   7   9
ATOM      9  O   UNL     1       6.354   4.162  16.836  0.00  0.00    +0.000 OA
BRANCH   9  10
ATOM     10  C   UNL     1       5.685   3.504  15.746  0.00  0.00    +0.000 C 
ATOM     11  C   UNL     1       6.298   3.937  14.428  0.00  0.00    +0.000 C 
ENDBRANCH   9  10
ENDBRANCH   7   9
ENDBRANCH   1   7
BRANCH   1  12
ATOM     12  C   UNL     1       3.634   6.127  18.511  0.00  0.00    +0.000 C 
BRANCH  12  13
ATOM     13  C   UNL     1       2.615   5.051  18.924  0.00  0.00    +0.000 A 
ATOM     14  C   UNL     1       2.251   4.906  20.270  0.00  0.00    +0.000 A 
ATOM     15  C   UNL     1       1.363   3.896  20.661  0.00  0.00    +0.000 A 
ATOM     16  C   UNL     1       0.831   3.017  19.718  0.00  0.00    +0.000 A 
ATOM     17  C   UNL     1       1.171   3.150  18.377  0.00  0.00    +0.000 A 
ATOM     18  C   UNL     1       2.052   4.162  17.985  0.00  0.00    +0.000 A 
ENDBRANCH  12  13
BRANCH  12  19
ATOM     19  C   UNL     1       2.915   7.392  18.072  0.00  0.00    +0.000 C 
ATOM     20  N   UNL     1       2.318   8.441  17.708  0.00  0.00    +0.000 NA
ENDBRANCH  12  19
ENDBRANCH   1  12
TORSDOF 9
ENDMDL
MODEL 4
REMARK VINA RESULT:      -6.3      0.115      1.084
REMARK  Name = 
REMARK  11 active torsions:
REMARK  status: ('A' for Active; 'I' for Inactive)
REMARK    1  A    between atoms: C_1  and  C_2
REMARK    2  A    between atoms: C_2  and  O_3
REMARK    3  A    between atoms: O_3  and  C_4
REMARK    4  A    between atoms: C_4  and  C_6
REMARK    5  A    between atoms: C_6  and  C_7
REMARK    6  A    between atoms: C_6  and  C_12
REMARK    7  A    between atoms: C_7  and  O_9
REMARK    8  A    between atoms: O_9  and  C_10
REMARK    9  A    between atoms: C_10  and  C_11
REMARK   10  A    between atoms: C_12  and  C_13
REMARK   11  A    between atoms: C_12  and  C_15
REMARK                            x       y       z     vdW  Elec       q    Type
REMARK                         _______ _______ _______ _____ _____    ______ ____
ROOT
ATOM      1  C   UNL     1       5.533   4.992  16.509  0.00  0.00    +0.000 C 
ENDROOT
BRANCH   1   2
ATOM      2  C   UNL     1       5.434   6.490  16.718  0.00  0.00    +0.000 C 
ATOM      3  O   UNL     1       6.387   7.221  16.953  0.00  0.00    +0.000 OA
BRANCH   2   4
ATOM      4  O   UNL     1       4.156   6.930  16.559  0.00  0.00    +0.000 OA
BRANCH   4   6
ATOM      5  C   UNL     1       2.425   7.464  18.195  0.00  0.00    +0.000 C 
ATOM      6  C   UNL     1       3.737   7.883  17.553  0.00  0.00    +0.000 C 
ENDBRANCH   4   6
ENDBRANCH   2   4
ENDBRANCH   1   2
BRANCH   1   7
ATOM      7  C   UNL     1       6.799   4.710  15.737  0.00  0.00    +0.000 C 
ATOM      8  O   UNL     1       7.871   4.430  16.260  0.00  0.00    +0.000 OA
BRANCH   7   9
ATOM      9  O   UNL     1       6.628   4.894  14.399  0.00  0.00    +0.000 OA
BRANCH   9  10
ATOM     10  C   UNL     1       5.777   3.930  13.754  0.00  0.00    +0.000 C 
ATOM     11  C   UNL     1       6.359   3.550  12.406  0.00  0.00    +0.000 C 
ENDBRANCH   9  10
ENDBRANCH   7   9
ENDBRANCH   1   7
BRANCH   1  12
ATOM     12  C   UNL     1       5.461   4.219  17.846  0.00  0.00    +0.000 C 
BRANCH  12  13
ATOM     13  C   UNL     1       4.011   4.102  18.345  0.00  0.00    +0.000 A 
ATOM     14  C   UNL     1       2.980   3.789  17.449  0.00  0.00    +0.000 A 
ATOM     15  C   UNL     1       1.651   3.730  17.886  0.00  0.00    +0.000 A 
ATOM     16  C   UNL     1       1.333   3.987  19.220  0.00  0.00    +0.000 A 
ATOM     17  C   UNL     1       2.341   4.289  20.127  0.00  0.00    +0.000 A 
ATOM     18  C   UNL     1       3.668   4.342  19.693  0.00  0.00    +0.000 A 
ENDBRANCH  12  13
BRANCH  12  19
ATOM     19  C   UNL     1       6.324   4.906  18.891  0.00  0.00    +0.000 C 
ATOM     20  N   UNL     1       7.041   5.475  19.759  0.00  0.00    +0.000 NA
ENDBRANCH  12  19
ENDBRANCH   1  12
TORSDOF 9
ENDMDL
MODEL 5
REMARK VINA RESULT:      -6.2      2.712      4.487
REMARK  Name = 
REMARK  11 active torsions:
REMARK  status: ('A' for Active; 'I' for Inactive)
REMARK    1  A    between atoms: C_1  and  C_2
REMARK    2  A    between atoms: C_2  and  O_3
REMARK    3  A    between atoms: O_3  and  C_4
REMARK    4  A    between atoms: C_4  and  C_6
REMARK    5  A    between atoms: C_6  and  C_7
REMARK    6  A    between atoms: C_6  and  C_12
REMARK    7  A    between atoms: C_7  and  O_9
REMARK    8  A    between atoms: O_9  and  C_10
REMARK    9  A    between atoms: C_10  and  C_11
REMARK   10  A    between atoms: C_12  and  C_13
REMARK   11  A    between atoms: C_12  and  C_15
REMARK                            x       y       z     vdW  Elec       q    Type
REMARK                         _______ _______ _______ _____ _____    ______ ____
ROOT
ATOM      1  C   UNL     1       4.251   5.364  19.296  0.00  0.00    +0.000 C 
ENDROOT
BRANCH   1   2
ATOM      2  C   UNL     1       3.899   3.932  19.649  0.00  0.00    +0.000 C 
ATOM      3  O   UNL     1       4.467   2.947  19.196  0.00  0.00    +0.000 OA
BRANCH   2   4
ATOM      4  O   UNL     1       2.905   3.880  20.577  0.00  0.00    +0.000 OA
BRANCH   4   6
ATOM      5  C   UNL     1       1.381   2.491  21.884  0.00  0.00    +0.000 C 
ATOM      6  C   UNL     1       2.204   2.623  20.612  0.00  0.00    +0.000 C 
ENDBRANCH   4   6
ENDBRANCH   2   4
ENDBRANCH   1   2
BRANCH   1   7
ATOM      7  C   UNL     1       5.715   5.409  18.930  0.00  0.00    +0.000 C 
ATOM      8  O   UNL     1       6.626   5.338  19.746  0.00  0.00    +0.000 OA
BRANCH   7   9
ATOM      9  O   UNL     1       5.898   5.628  17.600  0.00  0.00    +0.000 OA
BRANCH   9  10
ATOM     10  C   UNL     1       6.605   4.588  16.901  0.00  0.00    +0.000 C 
ATOM     11  C   UNL     1       5.682   3.920  15.901  0.00  0.00    +0.000 C 
ENDBRANCH   9  10
ENDBRANCH   7   9
ENDBRANCH   1   7
BRANCH   1  12
ATOM     12  C   UNL     1       3.337   5.922  18.183  0.00  0.00    +0.000 C 
BRANCH  12  13
ATOM     13  C   UNL     1       2.585   7.178  18.655  0.00  0.00    +0.000 A 
ATOM     14  C   UNL     1       2.134   7.274  19.979  0.00  0.00    +0.000 A 
ATOM     15  C   UNL     1       1.405   8.392  20.402  0.00  0.00    +0.000 A 
ATOM     16  C   UNL     1       1.113   9.426  19.512  0.00  0.00    +0.000 A 
ATOM     17  C   UNL     1       1.561   9.356  18.199  0.00  0.00    +0.000 A 
ATOM     18  C   UNL     1       2.293   8.244  17.777  0.00  0.00    +0.000 A 
ENDBRANCH  12  13
BRANCH  12  19
ATOM     19  C   UNL     1       2.351   4.856  17.736  0.00  0.00    +0.000 C 
ATOM     20  N   UNL     1       1.532   3.971  17.366  0.00  0.00    +0.000 NA
ENDBRANCH  12  19
ENDBRANCH   1  12
TORSDOF 9
ENDMDL
MODEL 6
REMARK VINA RESULT:      -6.1      1.835      3.654
REMARK  Name = 
REMARK  11 active torsions:
REMARK  status: ('A' for Active; 'I' for Inactive)
REMARK    1  A    between atoms: C_1  and  C_2
REMARK    2  A    between atoms: C_2  and  O_3
REMARK    3  A    between atoms: O_3  and  C_4
REMARK    4  A    between atoms: C_4  and  C_6
REMARK    5  A    between atoms: C_6  and  C_7
REMARK    6  A    between atoms: C_6  and  C_12
REMARK    7  A    between atoms: C_7  and  O_9
REMARK    8  A    between atoms: O_9  and  C_10
REMARK    9  A    between atoms: C_10  and  C_11
REMARK   10  A    between atoms: C_12  and  C_13
REMARK   11  A    between atoms: C_12  and  C_15
REMARK                            x       y       z     vdW  Elec       q    Type
REMARK                         _______ _______ _______ _____ _____    ______ ____
ROOT
ATOM      1  C   UNL     1       5.744   4.592  17.084  0.00  0.00    +0.000 C 
ENDROOT
BRANCH   1   2
ATOM      2  C   UNL     1       5.666   5.223  15.707  0.00  0.00    +0.000 C 
ATOM      3  O   UNL     1       6.037   6.359  15.444  0.00  0.00    +0.000 OA
BRANCH   2   4
ATOM      4  O   UNL     1       5.181   4.346  14.786  0.00  0.00    +0.000 OA
BRANCH   4   6
ATOM      5  C   UNL     1       5.556   3.464  12.542  0.00  0.00    +0.000 C 
ATOM      6  C   UNL     1       6.177   3.844  13.876  0.00  0.00    +0.000 C 
ENDBRANCH   4   6
ENDBRANCH   2   4
ENDBRANCH   1   2
BRANCH   1   7
ATOM      7  C   UNL     1       7.138   4.808  17.619  0.00  0.00    +0.000 C 
ATOM      8  O   UNL     1       8.137   4.263  17.164  0.00  0.00    +0.000 OA
BRANCH   7   9
ATOM      9  O   UNL     1       7.141   5.606  18.721  0.00  0.00    +0.000 OA
BRANCH   9  10
ATOM     10  C   UNL     1       8.142   6.639  18.724  0.00  0.00    +0.000 C 
ATOM     11  C   UNL     1       7.722   7.767  17.802  0.00  0.00    +0.000 C 
ENDBRANCH   9  10
ENDBRANCH   7   9
ENDBRANCH   1   7
BRANCH   1  12
ATOM     12  C   UNL     1       4.648   5.137  18.028  0.00  0.00    +0.000 C 
BRANCH  12  13
ATOM     13  C   UNL     1       3.476   4.148  18.151  0.00  0.00    +0.000 A 
ATOM     14  C   UNL     1       2.259   4.563  18.711  0.00  0.00    +0.000 A 
ATOM     15  C   UNL     1       1.205   3.656  18.874  0.00  0.00    +0.000 A 
ATOM     16  C   UNL     1       1.351   2.325  18.484  0.00  0.00    +0.000 A 
ATOM     17  C   UNL     1       2.544   1.895  17.917  0.00  0.00    +0.000 A 
ATOM     18  C   UNL     1       3.594   2.801  17.749  0.00  0.00    +0.000 A 
ENDBRANCH  12  13
BRANCH  12  19
ATOM     19  C   UNL     1       4.151   6.483  17.527  0.00  0.00    +0.000 C 
ATOM     20  N   UNL     1       3.740   7.601  17.112  0.00  0.00    +0.000 NA
ENDBRANCH  12  19
ENDBRANCH   1  12
TORSDOF 9
ENDMDL
MODEL 7
REMARK VINA RESULT:      -6.1      1.012      1.710
REMARK  Name = 
REMARK  11 active torsions:
REMARK  status: ('A' for Active; 'I' for Inactive)
REMARK    1  A    between atoms: C_1  and  C_2
REMARK    2  A    between atoms: C_2  and  O_3
REMARK    3  A    between atoms: O_3  and  C_4
REMARK    4  A    between atoms: C_4  and  C_6
REMARK    5  A    between atoms: C_6  and  C_7
REMARK    6  A    between atoms: C_6  and  C_12
REMARK    7  A    between atoms: C_7  and  O_9
REMARK    8  A    between atoms: O_9  and  C_10
REMARK    9  A    between atoms: C_10  and  C_11
REMARK   10  A    between atoms: C_12  and  C_13
REMARK   11  A    between atoms: C_12  and  C_15
REMARK                            x       y       z     vdW  Elec       q    Type
REMARK                         _______ _______ _______ _____ _____    ______ ____
ROOT
ATOM      1  C   UNL     1       5.620   5.073  16.593  0.00  0.00    +0.000 C 
ENDROOT
BRANCH   1   2
ATOM      2  C   UNL     1       5.593   6.574  16.807  0.00  0.00    +0.000 C 
ATOM      3  O   UNL     1       4.587   7.217  17.074  0.00  0.00    +0.000 OA
BRANCH   2   4
ATOM      4  O   UNL     1       6.841   7.110  16.719  0.00  0.00    +0.000 OA
BRANCH   4   6
ATOM      5  C   UNL     1       8.366   8.361  18.158  0.00  0.00    +0.000 C 
ATOM      6  C   UNL     1       7.009   8.325  17.472  0.00  0.00    +0.000 C 
ENDBRANCH   4   6
ENDBRANCH   2   4
ENDBRANCH   1   2
BRANCH   1   7
ATOM      7  C   UNL     1       6.893   4.728  15.860  0.00  0.00    +0.000 C 
ATOM      8  O   UNL     1       7.935   4.401  16.415  0.00  0.00    +0.000 OA
BRANCH   7   9
ATOM      9  O   UNL     1       6.770   4.912  14.516  0.00  0.00    +0.000 OA
BRANCH   9  10
ATOM     10  C   UNL     1       5.882   3.996  13.853  0.00  0.00    +0.000 C 
ATOM     11  C   UNL     1       6.453   3.612  12.501  0.00  0.00    +0.000 C 
ENDBRANCH   9  10
ENDBRANCH   7   9
ENDBRANCH   1   7
BRANCH   1  12
ATOM     12  C   UNL     1       5.465   4.300  17.922  0.00  0.00    +0.000 C 
BRANCH  12  13
ATOM     13  C   UNL     1       3.997   4.263  18.378  0.00  0.00    +0.000 A 
ATOM     14  C   UNL     1       3.661   4.578  19.703  0.00  0.00    +0.000 A 
ATOM     15  C   UNL     1       2.333   4.497  20.139  0.00  0.00    +0.000 A 
ATOM     16  C   UNL     1       1.324   4.098  19.263  0.00  0.00    +0.000 A 
ATOM     17  C   UNL     1       1.633   3.791  17.943  0.00  0.00    +0.000 A 
ATOM     18  C   UNL     1       2.957   3.878  17.506  0.00  0.00    +0.000 A 
ENDBRANCH  12  13
BRANCH  12  19
ATOM     19  C   UNL     1       6.334   4.933  18.996  0.00  0.00    +0.000 C 
ATOM     20  N   UNL     1       7.057   5.457  19.887  0.00  0.00    +0.000 NA
ENDBRANCH  12  19
ENDBRANCH   1  12
TORSDOF 9
ENDMDL
MODEL 8
REMARK VINA RESULT:      -6.1      2.597      5.359
REMARK  Name = 
REMARK  11 active torsions:
REMARK  status: ('A' for Active; 'I' for Inactive)
REMARK    1  A    between atoms: C_1  and  C_2
REMARK    2  A    between atoms: C_2  and  O_3
REMARK    3  A    between atoms: O_3  and  C_4
REMARK    4  A    between atoms: C_4  and  C_6
REMARK    5  A    between atoms: C_6  and  C_7
REMARK    6  A    between atoms: C_6  and  C_12
REMARK    7  A    between atoms: C_7  and  O_9
REMARK    8  A    between atoms: O_9  and  C_10
REMARK    9  A    between atoms: C_10  and  C_11
REMARK   10  A    between atoms: C_12  and  C_13
REMARK   11  A    between atoms: C_12  and  C_15
REMARK                            x       y       z     vdW  Elec       q    Type
REMARK                         _______ _______ _______ _____ _____    ______ ____
ROOT
ATOM      1  C   UNL     1       2.510   4.521  18.346  0.00  0.00    +0.000 C 
ENDROOT
BRANCH   1   2
ATOM      2  C   UNL     1       3.590   3.605  17.803  0.00  0.00    +0.000 C 
ATOM      3  O   UNL     1       4.108   2.695  18.435  0.00  0.00    +0.000 OA
BRANCH   2   4
ATOM      4  O   UNL     1       3.873   3.889  16.502  0.00  0.00    +0.000 OA
BRANCH   4   6
ATOM      5  C   UNL     1       5.662   5.264  15.571  0.00  0.00    +0.000 C 
ATOM      6  C   UNL     1       5.282   3.937  16.208  0.00  0.00    +0.000 C 
ENDBRANCH   4   6
ENDBRANCH   2   4
ENDBRANCH   1   2
BRANCH   1   7
ATOM      7  C   UNL     1       1.387   3.660  18.869  0.00  0.00    +0.000 C 
ATOM      8  O   UNL     1       0.769   2.853  18.186  0.00  0.00    +0.000 OA
BRANCH   7   9
ATOM      9  O   UNL     1       1.085   3.952  20.164  0.00  0.00    +0.000 OA
BRANCH   9  10
ATOM     10  C   UNL     1       1.135   2.837  21.070  0.00  0.00    +0.000 C 
ATOM     11  C   UNL     1       2.534   2.698  21.640  0.00  0.00    +0.000 C 
ENDBRANCH   9  10
ENDBRANCH   7   9
ENDBRANCH   1   7
BRANCH   1  12
ATOM     12  C   UNL     1       3.065   5.496  19.408  0.00  0.00    +0.000 C 
BRANCH  12  13
ATOM     13  C   UNL     1       2.505   6.915  19.211  0.00  0.00    +0.000 A 
ATOM     14  C   UNL     1       1.838   7.562  20.260  0.00  0.00    +0.000 A 
ATOM     15  C   UNL     1       1.281   8.833  20.072  0.00  0.00    +0.000 A 
ATOM     16  C   UNL     1       1.378   9.472  18.836  0.00  0.00    +0.000 A 
ATOM     17  C   UNL     1       2.044   8.853  17.786  0.00  0.00    +0.000 A 
ATOM     18  C   UNL     1       2.606   7.588  17.975  0.00  0.00    +0.000 A 
ENDBRANCH  12  13
BRANCH  12  19
ATOM     19  C   UNL     1       4.584   5.517  19.353  0.00  0.00    +0.000 C 
ATOM     20  N   UNL     1       5.844   5.533  19.307  0.00  0.00    +0.000 NA
ENDBRANCH  12  19
ENDBRANCH   1  12
TORSDOF 9
ENDMDL
MODEL 9
REMARK VINA RESULT:      -6.1      2.752      4.693
REMARK  Name = 
REMARK  11 active torsions:
REMARK  status: ('A' for Active; 'I' for Inactive)
REMARK    1  A    between atoms: C_1  and  C_2
REMARK    2  A    between atoms: C_2  and  O_3
REMARK    3  A    between atoms: O_3  and  C_4
REMARK    4  A    between atoms: C_4  and  C_6
REMARK    5  A    between atoms: C_6  and  C_7
REMARK    6  A    between atoms: C_6  and  C_12
REMARK    7  A    between atoms: C_7  and  O_9
REMARK    8  A    between atoms: O_9  and  C_10
REMARK    9  A    between atoms: C_10  and  C_11
REMARK   10  A    between atoms: C_12  and  C_13
REMARK   11  A    between atoms: C_12  and  C_15
REMARK                            x       y       z     vdW  Elec       q    Type
REMARK                         _______ _______ _______ _____ _____    ______ ____
ROOT
ATOM      1  C   UNL     1       4.299   5.334  19.314  0.00  0.00    +0.000 C 
ENDROOT
BRANCH   1   2
ATOM      2  C   UNL     1       3.917   3.912  19.674  0.00  0.00    +0.000 C 
ATOM      3  O   UNL     1       4.471   2.913  19.236  0.00  0.00    +0.000 OA
BRANCH   2   4
ATOM      4  O   UNL     1       2.911   3.885  20.592  0.00  0.00    +0.000 OA
BRANCH   4   6
ATOM      5  C   UNL     1       1.422   2.486  21.927  0.00  0.00    +0.000 C 
ATOM      6  C   UNL     1       2.175   2.648  20.617  0.00  0.00    +0.000 C 
ENDBRANCH   4   6
ENDBRANCH   2   4
ENDBRANCH   1   2
BRANCH   1   7
ATOM      7  C   UNL     1       5.775   5.356  19.003  0.00  0.00    +0.000 C 
ATOM      8  O   UNL     1       6.654   5.300  19.854  0.00  0.00    +0.000 OA
BRANCH   7   9
ATOM      9  O   UNL     1       6.011   5.538  17.675  0.00  0.00    +0.000 OA
BRANCH   9  10
ATOM     10  C   UNL     1       7.319   6.041  17.350  0.00  0.00    +0.000 C 
ATOM     11  C   UNL     1       7.333   7.553  17.466  0.00  0.00    +0.000 C 
ENDBRANCH   9  10
ENDBRANCH   7   9
ENDBRANCH   1   7
BRANCH   1  12
ATOM     12  C   UNL     1       3.434   5.886  18.159  0.00  0.00    +0.000 C 
BRANCH  12  13
ATOM     13  C   UNL     1       2.690   7.165  18.580  0.00  0.00    +0.000 A 
ATOM     14  C   UNL     1       2.160   7.278  19.873  0.00  0.00    +0.000 A 
ATOM     15  C   UNL     1       1.438   8.418  20.247  0.00  0.00    +0.000 A 
ATOM     16  C   UNL     1       1.231   9.456  19.338  0.00  0.00    +0.000 A 
ATOM     17  C   UNL     1       1.757   9.367  18.055  0.00  0.00    +0.000 A 
ATOM     18  C   UNL     1       2.483   8.234  17.683  0.00  0.00    +0.000 A 
ENDBRANCH  12  13
BRANCH  12  19
ATOM     19  C   UNL     1       2.444   4.829  17.699  0.00  0.00    +0.000 C 
ATOM     20  N   UNL     1       1.624   3.950  17.316  0.00  0.00    +0.000 NA
ENDBRANCH  12  19
ENDBRANCH   1  12
TORSDOF 9
ENDMDL
