MODEL 1
REMARK VINA RESULT:      -8.0      0.000      0.000
REMARK  Name = 
REMARK  17 active torsions:
REMARK  status: ('A' for Active; 'I' for Inactive)
REMARK    1  A    between atoms: C_1  and  O_2
REMARK    2  A    between atoms: O_2  and  C_3
REMARK    3  A    between atoms: C_5  and  N_6
REMARK    4  A    between atoms: N_6  and  C_19
REMARK    5  A    between atoms: N_9  and  C_10
REMARK    6  A    between atoms: C_10  and  C_11
REMARK    7  A    between atoms: C_11  and  C_12
REMARK    8  A    between atoms: C_12  and  N_13
REMARK    9  A    between atoms: C_17  and  C_18
REMARK   10  A    between atoms: C_19  and  C_20
REMARK   11  A    between atoms: C_19  and  C_21
REMARK   12  A    between atoms: C_24  and  O_25
REMARK   13  A    between atoms: O_25  and  C_26
REMARK   14  A    between atoms: C_26  and  C_27
REMARK   15  A    between atoms: C_27  and  C_28
REMARK   16  A    between atoms: C_28  and  C_29
REMARK   17  A    between atoms: C_29  and  C_30
REMARK                            x       y       z     vdW  Elec       q    Type
REMARK                         _______ _______ _______ _____ _____    ______ ____
ROOT
ATOM      1  C   UNL     1       5.253   5.216  16.906  0.00  0.00    +0.000 A 
ATOM      2  C   UNL     1       4.192   4.659  17.630  0.00  0.00    +0.000 A 
ATOM      3  C   UNL     1       4.252   4.496  19.024  0.00  0.00    +0.000 A 
ATOM      4  C   UNL     1       5.435   4.807  19.694  0.00  0.00    +0.000 A 
ATOM      5  C   UNL     1       6.496   5.395  18.973  0.00  0.00    +0.000 A 
ATOM      6  C   UNL     1       6.390   5.653  17.599  0.00  0.00    +0.000 A 
ENDROOT
BRANCH   3   7
ATOM      7  N   UNL     1       3.044   4.143  19.707  0.00  0.00    +0.000 N 
ATOM      8  C   UNL     1       1.966   5.000  19.936  0.00  0.00    +0.000 C 
ATOM      9  O   UNL     1       0.874   4.618  20.353  0.00  0.00    +0.000 OA
ATOM     10  N   UNL     1       2.217   6.342  19.751  0.00  0.00    +0.000 N 
ATOM     11  H   UNL     1       3.180   6.603  19.908  0.00  0.00    +0.000 HD
BRANCH   7  12
ATOM     12  C   UNL     1       2.918   2.697  20.055  0.00  0.00    +0.000 C 
ATOM     13  C   UNL     1       2.476   2.466  21.502  0.00  0.00    +0.000 C 
ATOM     14  C   UNL     1       2.024   1.916  19.088  0.00  0.00    +0.000 C 
ENDBRANCH   7  12
BRANCH  10  15
ATOM     15  C   UNL     1       1.194   7.304  20.129  0.00  0.00    +0.000 C 
BRANCH  15  16
ATOM     16  C   UNL     1       1.789   8.519  20.826  0.00  0.00    +0.000 C 
BRANCH  16  17
ATOM     17  C   UNL     1       1.064   9.802  20.423  0.00  0.00    +0.000 C 
BRANCH  17  18
ATOM     18  N   UNL     1       0.242  10.319  21.503  0.00  0.00    +0.000 N 
ATOM     19  C   UNL     1      -0.063   9.634  22.646  0.00  0.00    +0.000 A 
ATOM     20  N   UNL     1      -0.810  10.350  23.454  0.00  0.00    +0.000 NA
ATOM     21  C   UNL     1      -1.000  11.541  22.806  0.00  0.00    +0.000 A 
ATOM     22  C   UNL     1      -0.361  11.551  21.582  0.00  0.00    +0.000 A 
ATOM     23  C   UNL     1      -0.291  12.600  20.541  0.00  0.00    +0.000 C 
ENDBRANCH  17  18
ENDBRANCH  16  17
ENDBRANCH  15  16
ENDBRANCH  10  15
ENDBRANCH   3   7
BRANCH   1  25
ATOM     24  C   UNL     1       5.802   4.360  14.709  0.00  0.00    +0.000 C 
ATOM     25  O   UNL     1       5.226   5.350  15.550  0.00  0.00    +0.000 OA
ENDBRANCH   1  25
BRANCH   6  26
ATOM     26  O   UNL     1       7.479   6.319  17.052  0.00  0.00    +0.000 OA
BRANCH  26  27
ATOM     27  C   UNL     1       7.438   7.751  17.129  0.00  0.00    +0.000 C 
BRANCH  27  28
ATOM     28  C   UNL     1       8.356   8.292  18.230  0.00  0.00    +0.000 C 
BRANCH  28  29
ATOM     29  C   UNL     1       8.560   9.804  18.098  0.00  0.00    +0.000 C 
BRANCH  29  30
ATOM     30  C   UNL     1       9.400  10.375  19.244  0.00  0.00    +0.000 C 
BRANCH  30  31
ATOM     31  C   UNL     1      10.138  11.615  18.814  0.00  0.00    +0.000 A 
ATOM     32  C   UNL     1      11.532  11.661  18.850  0.00  0.00    +0.000 A 
ATOM     33  C   UNL     1      12.166  12.812  18.412  0.00  0.00    +0.000 A 
ATOM     34  N   UNL     1      11.518  13.902  17.947  0.00  0.00    +0.000 NA
ATOM     35  C   UNL     1      10.177  13.847  17.911  0.00  0.00    +0.000 A 
ATOM     36  N   UNL     1       9.527  14.966  17.392  0.00  0.00    +0.000 N 
ATOM     37  C   UNL     1       9.455  12.734  18.322  0.00  0.00    +0.000 A 
ATOM     38  H   UNL     1      10.248  15.658  17.210  0.00  0.00    +0.000 HD
ATOM     39  H   UNL     1       8.821  15.313  18.032  0.00  0.00    +0.000 HD
ENDBRANCH  30  31
ENDBRANCH  29  30
ENDBRANCH  28  29
ENDBRANCH  27  28
ENDBRANCH  26  27
ENDBRANCH   6  26
TORSDOF 13
ENDMDL
MODEL 2
REMARK VINA RESULT:      -8.0      1.057      1.619
REMARK  Name = 
REMARK  17 active torsions:
REMARK  status: ('A' for Active; 'I' for Inactive)
REMARK    1  A    between atoms: C_1  and  O_2
REMARK    2  A    between atoms: O_2  and  C_3
REMARK    3  A    between atoms: C_5  and  N_6
REMARK    4  A    between atoms: N_6  and  C_19
REMARK    5  A    between atoms: N_9  and  C_10
REMARK    6  A    between atoms: C_10  and  C_11
REMARK    7  A    between atoms: C_11  and  C_12
REMARK    8  A    between atoms: C_12  and  N_13
REMARK    9  A    between atoms: C_17  and  C_18
REMARK   10  A    between atoms: C_19  and  C_20
REMARK   11  A    between atoms: C_19  and  C_21
REMARK   12  A    between atoms: C_24  and  O_25
REMARK   13  A    between atoms: O_25  and  C_26
REMARK   14  A    between atoms: C_26  and  C_27
REMARK   15  A    between atoms: C_27  and  C_28
REMARK   16  A    between atoms: C_28  and  C_29
REMARK   17  A    between atoms: C_29  and  C_30
REMARK                            x       y       z     vdW  Elec       q    Type
REMARK                         _______ _______ _______ _____ _____    ______ ____
ROOT
ATOM      1  C   UNL     1       5.454   5.610  16.799  0.00  0.00    +0.000 A 
ATOM      2  C   UNL     1       4.483   4.829  17.438  0.00  0.00    +0.000 A 
ATOM      3  C   UNL     1       4.539   4.557  18.815  0.00  0.00    +0.000 A 
ATOM      4  C   UNL     1       5.641   4.995  19.549  0.00  0.00    +0.000 A 
ATOM      5  C   UNL     1       6.608   5.806  18.917  0.00  0.00    +0.000 A 
ATOM      6  C   UNL     1       6.490   6.161  17.566  0.00  0.00    +0.000 A 
ENDROOT
BRANCH   3   7
ATOM      7  N   UNL     1       3.390   3.958  19.424  0.00  0.00    +0.000 N 
ATOM      8  C   UNL     1       2.273   4.649  19.896  0.00  0.00    +0.000 C 
ATOM      9  O   UNL     1       1.228   4.095  20.236  0.00  0.00    +0.000 OA
ATOM     10  N   UNL     1       2.430   6.009  20.049  0.00  0.00    +0.000 N 
ATOM     11  H   UNL     1       3.381   6.292  20.236  0.00  0.00    +0.000 HD
BRANCH   7  12
ATOM     12  C   UNL     1       3.372   2.465  19.399  0.00  0.00    +0.000 C 
ATOM     13  C   UNL     1       3.197   1.892  17.990  0.00  0.00    +0.000 C 
ATOM     14  C   UNL     1       4.584   1.833  20.090  0.00  0.00    +0.000 C 
ENDBRANCH   7  12
BRANCH  10  15
ATOM     15  C   UNL     1       1.368   6.768  20.689  0.00  0.00    +0.000 C 
BRANCH  15  16
ATOM     16  C   UNL     1       1.745   8.232  20.865  0.00  0.00    +0.000 C 
BRANCH  16  17
ATOM     17  C   UNL     1       0.726   8.969  21.733  0.00  0.00    +0.000 C 
BRANCH  17  18
ATOM     18  N   UNL     1       0.038  10.009  20.990  0.00  0.00    +0.000 N 
ATOM     19  C   UNL     1       0.089  10.162  19.632  0.00  0.00    +0.000 A 
ATOM     20  N   UNL     1      -0.642  11.175  19.232  0.00  0.00    +0.000 NA
ATOM     21  C   UNL     1      -1.182  11.703  20.375  0.00  0.00    +0.000 A 
ATOM     22  C   UNL     1      -0.771  11.002  21.491  0.00  0.00    +0.000 A 
ATOM     23  C   UNL     1      -1.083  11.203  22.923  0.00  0.00    +0.000 C 
ENDBRANCH  17  18
ENDBRANCH  16  17
ENDBRANCH  15  16
ENDBRANCH  10  15
ENDBRANCH   3   7
BRANCH   1  25
ATOM     24  C   UNL     1       5.642   4.804  14.524  0.00  0.00    +0.000 C 
ATOM     25  O   UNL     1       5.435   5.854  15.459  0.00  0.00    +0.000 OA
ENDBRANCH   1  25
BRANCH   6  26
ATOM     26  O   UNL     1       7.468   7.038  17.114  0.00  0.00    +0.000 OA
BRANCH  26  27
ATOM     27  C   UNL     1       7.304   8.409  17.503  0.00  0.00    +0.000 C 
BRANCH  27  28
ATOM     28  C   UNL     1       8.649   9.112  17.708  0.00  0.00    +0.000 C 
BRANCH  28  29
ATOM     29  C   UNL     1       8.564  10.181  18.801  0.00  0.00    +0.000 C 
BRANCH  29  30
ATOM     30  C   UNL     1       9.946  10.589  19.318  0.00  0.00    +0.000 C 
BRANCH  30  31
ATOM     31  C   UNL     1      10.309  11.979  18.866  0.00  0.00    +0.000 A 
ATOM     32  C   UNL     1      10.354  13.035  19.778  0.00  0.00    +0.000 A 
ATOM     33  C   UNL     1      10.728  14.287  19.319  0.00  0.00    +0.000 A 
ATOM     34  N   UNL     1      11.055  14.557  18.036  0.00  0.00    +0.000 NA
ATOM     35  C   UNL     1      11.014  13.534  17.168  0.00  0.00    +0.000 A 
ATOM     36  N   UNL     1      11.392  13.823  15.857  0.00  0.00    +0.000 N 
ATOM     37  C   UNL     1      10.659  12.243  17.536  0.00  0.00    +0.000 A 
ATOM     38  H   UNL     1      11.556  14.825  15.820  0.00  0.00    +0.000 HD
ATOM     39  H   UNL     1      10.682  13.529  15.195  0.00  0.00    +0.000 HD
ENDBRANCH  30  31
ENDBRANCH  29  30
ENDBRANCH  28  29
ENDBRANCH  27  28
ENDBRANCH  26  27
ENDBRANCH   6  26
TORSDOF 13
ENDMDL
MODEL 3
REMARK VINA RESULT:      -7.7      2.314      9.605
REMARK  Name = 
REMARK  17 active torsions:
REMARK  status: ('A' for Active; 'I' for Inactive)
REMARK    1  A    between atoms: C_1  and  O_2
REMARK    2  A    between atoms: O_2  and  C_3
REMARK    3  A    between atoms: C_5  and  N_6
REMARK    4  A    between atoms: N_6  and  C_19
REMARK    5  A    between atoms: N_9  and  C_10
REMARK    6  A    between atoms: C_10  and  C_11
REMARK    7  A    between atoms: C_11  and  C_12
REMARK    8  A    between atoms: C_12  and  N_13
REMARK    9  A    between atoms: C_17  and  C_18
REMARK   10  A    between atoms: C_19  and  C_20
REMARK   11  A    between atoms: C_19  and  C_21
REMARK   12  A    between atoms: C_24  and  O_25
REMARK   13  A    between atoms: O_25  and  C_26
REMARK   14  A    between atoms: C_26  and  C_27
REMARK   15  A    between atoms: C_27  and  C_28
REMARK   16  A    between atoms: C_28  and  C_29
REMARK   17  A    between atoms: C_29  and  C_30
REMARK                            x       y       z     vdW  Elec       q    Type
REMARK                         _______ _______ _______ _____ _____    ______ ____
ROOT
ATOM      1  C   UNL     1       2.637   6.433  19.586  0.00  0.00    +0.000 A 
ATOM      2  C   UNL     1       3.643   5.759  18.884  0.00  0.00    +0.000 A 
ATOM      3  C   UNL     1       4.214   6.289  17.715  0.00  0.00    +0.000 A 
ATOM      4  C   UNL     1       3.699   7.471  17.184  0.00  0.00    +0.000 A 
ATOM      5  C   UNL     1       2.704   8.169  17.901  0.00  0.00    +0.000 A 
ATOM      6  C   UNL     1       2.213   7.687  19.123  0.00  0.00    +0.000 A 
ENDROOT
BRANCH   3   7
ATOM      7  N   UNL     1       5.391   5.655  17.201  0.00  0.00    +0.000 N 
ATOM      8  C   UNL     1       6.701   6.071  17.438  0.00  0.00    +0.000 C 
ATOM      9  O   UNL     1       7.689   5.399  17.143  0.00  0.00    +0.000 OA
ATOM     10  N   UNL     1       6.844   7.340  17.955  0.00  0.00    +0.000 N 
ATOM     11  H   UNL     1       6.096   7.971  17.701  0.00  0.00    +0.000 HD
BRANCH   7  12
ATOM     12  C   UNL     1       5.148   4.372  16.477  0.00  0.00    +0.000 C 
ATOM     13  C   UNL     1       3.855   3.676  16.910  0.00  0.00    +0.000 C 
ATOM     14  C   UNL     1       5.198   4.516  14.953  0.00  0.00    +0.000 C 
ENDBRANCH   7  12
BRANCH  10  15
ATOM     15  C   UNL     1       8.179   7.902  18.073  0.00  0.00    +0.000 C 
BRANCH  15  16
ATOM     16  C   UNL     1       8.169   9.419  17.955  0.00  0.00    +0.000 C 
BRANCH  16  17
ATOM     17  C   UNL     1       9.176  10.059  18.909  0.00  0.00    +0.000 C 
BRANCH  17  18
ATOM     18  N   UNL     1       9.538  11.401  18.490  0.00  0.00    +0.000 N 
ATOM     19  C   UNL     1       8.723  12.245  17.789  0.00  0.00    +0.000 A 
ATOM     20  N   UNL     1       9.303  13.400  17.561  0.00  0.00    +0.000 NA
ATOM     21  C   UNL     1      10.544  13.297  18.131  0.00  0.00    +0.000 A 
ATOM     22  C   UNL     1      10.724  12.058  18.713  0.00  0.00    +0.000 A 
ATOM     23  C   UNL     1      11.888  11.491  19.431  0.00  0.00    +0.000 C 
ENDBRANCH  17  18
ENDBRANCH  16  17
ENDBRANCH  15  16
ENDBRANCH  10  15
ENDBRANCH   3   7
BRANCH   1  25
ATOM     24  C   UNL     1       2.235   4.557  21.062  0.00  0.00    +0.000 C 
ATOM     25  O   UNL     1       2.048   5.918  20.701  0.00  0.00    +0.000 OA
ENDBRANCH   1  25
BRANCH   6  26
ATOM     26  O   UNL     1       1.308   8.531  19.753  0.00  0.00    +0.000 OA
BRANCH  26  27
ATOM     27  C   UNL     1       1.011   9.753  19.063  0.00  0.00    +0.000 C 
BRANCH  27  28
ATOM     28  C   UNL     1       0.843  10.930  20.030  0.00  0.00    +0.000 C 
BRANCH  28  29
ATOM     29  C   UNL     1      -0.622  11.123  20.433  0.00  0.00    +0.000 C 
BRANCH  29  30
ATOM     30  C   UNL     1      -0.768  11.513  21.906  0.00  0.00    +0.000 C 
BRANCH  30  31
ATOM     31  C   UNL     1      -2.120  12.118  22.178  0.00  0.00    +0.000 A 
ATOM     32  C   UNL     1      -2.803  12.813  21.180  0.00  0.00    +0.000 A 
ATOM     33  C   UNL     1      -4.058  13.321  21.470  0.00  0.00    +0.000 A 
ATOM     34  N   UNL     1      -4.672  13.186  22.666  0.00  0.00    +0.000 NA
ATOM     35  C   UNL     1      -4.010  12.510  23.619  0.00  0.00    +0.000 A 
ATOM     36  N   UNL     1      -4.674  12.347  24.834  0.00  0.00    +0.000 N 
ATOM     37  C   UNL     1      -2.751  11.959  23.418  0.00  0.00    +0.000 A 
ATOM     38  H   UNL     1      -5.540  12.871  24.759  0.00  0.00    +0.000 HD
ATOM     39  H   UNL     1      -4.105  12.663  25.611  0.00  0.00    +0.000 HD
ENDBRANCH  30  31
ENDBRANCH  29  30
ENDBRANCH  28  29
ENDBRANCH  27  28
ENDBRANCH  26  27
ENDBRANCH   6  26
TORSDOF 13
ENDMDL
MODEL 4
REMARK VINA RESULT:      -7.6      3.420      7.182
REMARK  Name = 
REMARK  17 active torsions:
REMARK  status: ('A' for Active; 'I' for Inactive)
REMARK    1  A    between atoms: C_1  and  O_2
REMARK    2  A    between atoms: O_2  and  C_3
REMARK    3  A    between atoms: C_5  and  N_6
REMARK    4  A    between atoms: N_6  and  C_19
REMARK    5  A    between atoms: N_9  and  C_10
REMARK    6  A    between atoms: C_10  and  C_11
REMARK    7  A    between atoms: C_11  and  C_12
REMARK    8  A    between atoms: C_12  and  N_13
REMARK    9  A    between atoms: C_17  and  C_18
REMARK   10  A    between atoms: C_19  and  C_20
REMARK   11  A    between atoms: C_19  and  C_21
REMARK   12  A    between atoms: C_24  and  O_25
REMARK   13  A    between atoms: O_25  and  C_26
REMARK   14  A    between atoms: C_26  and  C_27
REMARK   15  A    between atoms: C_27  and  C_28
REMARK   16  A    between atoms: C_28  and  C_29
REMARK   17  A    between atoms: C_29  and  C_30
REMARK                            x       y       z     vdW  Elec       q    Type
REMARK                         _______ _______ _______ _____ _____    ______ ____
ROOT
ATOM      1  C   UNL     1       1.575   8.000  20.366  0.00  0.00    +0.000 A 
ATOM      2  C   UNL     1       2.053   6.684  20.363  0.00  0.00    +0.000 A 
ATOM      3  C   UNL     1       2.537   6.074  19.195  0.00  0.00    +0.000 A 
ATOM      4  C   UNL     1       2.452   6.761  17.985  0.00  0.00    +0.000 A 
ATOM      5  C   UNL     1       1.998   8.097  17.985  0.00  0.00    +0.000 A 
ATOM      6  C   UNL     1       1.614   8.736  19.173  0.00  0.00    +0.000 A 
ENDROOT
BRANCH   3   7
ATOM      7  N   UNL     1       3.222   4.823  19.331  0.00  0.00    +0.000 N 
ATOM      8  C   UNL     1       4.601   4.668  19.470  0.00  0.00    +0.000 C 
ATOM      9  O   UNL     1       5.136   3.602  19.774  0.00  0.00    +0.000 OA
ATOM     10  N   UNL     1       5.363   5.773  19.158  0.00  0.00    +0.000 N 
ATOM     11  H   UNL     1       4.937   6.384  18.476  0.00  0.00    +0.000 HD
BRANCH   7  12
ATOM     12  C   UNL     1       2.332   3.632  19.471  0.00  0.00    +0.000 C 
ATOM     13  C   UNL     1       1.674   3.535  20.849  0.00  0.00    +0.000 C 
ATOM     14  C   UNL     1       1.279   3.528  18.363  0.00  0.00    +0.000 C 
ENDBRANCH   7  12
BRANCH  10  15
ATOM     15  C   UNL     1       6.810   5.637  19.121  0.00  0.00    +0.000 C 
BRANCH  15  16
ATOM     16  C   UNL     1       7.295   5.097  17.782  0.00  0.00    +0.000 C 
BRANCH  16  17
ATOM     17  C   UNL     1       6.812   5.967  16.623  0.00  0.00    +0.000 C 
BRANCH  17  18
ATOM     18  N   UNL     1       6.573   5.184  15.424  0.00  0.00    +0.000 N 
ATOM     19  C   UNL     1       7.373   5.192  14.316  0.00  0.00    +0.000 A 
ATOM     20  N   UNL     1       6.925   4.377  13.390  0.00  0.00    +0.000 NA
ATOM     21  C   UNL     1       5.787   3.825  13.918  0.00  0.00    +0.000 A 
ATOM     22  C   UNL     1       5.537   4.314  15.184  0.00  0.00    +0.000 A 
ATOM     23  C   UNL     1       4.436   4.020  16.129  0.00  0.00    +0.000 C 
ENDBRANCH  17  18
ENDBRANCH  16  17
ENDBRANCH  15  16
ENDBRANCH  10  15
ENDBRANCH   3   7
BRANCH   1  25
ATOM     24  C   UNL     1      -0.328   8.576  21.748  0.00  0.00    +0.000 C 
ATOM     25  O   UNL     1       1.068   8.596  21.481  0.00  0.00    +0.000 OA
ENDBRANCH   1  25
BRANCH   6  26
ATOM     26  O   UNL     1       1.280  10.076  19.024  0.00  0.00    +0.000 OA
BRANCH  26  27
ATOM     27  C   UNL     1       2.282  10.904  18.417  0.00  0.00    +0.000 C 
BRANCH  27  28
ATOM     28  C   UNL     1       2.056  12.389  18.716  0.00  0.00    +0.000 C 
BRANCH  28  29
ATOM     29  C   UNL     1       2.952  13.280  17.851  0.00  0.00    +0.000 C 
BRANCH  29  30
ATOM     30  C   UNL     1       2.999  14.722  18.362  0.00  0.00    +0.000 C 
BRANCH  30  31
ATOM     31  C   UNL     1       4.407  15.257  18.359  0.00  0.00    +0.000 A 
ATOM     32  C   UNL     1       4.696  16.504  18.913  0.00  0.00    +0.000 A 
ATOM     33  C   UNL     1       6.012  16.936  18.917  0.00  0.00    +0.000 A 
ATOM     34  N   UNL     1       7.044  16.223  18.416  0.00  0.00    +0.000 NA
ATOM     35  C   UNL     1       6.757  15.021  17.890  0.00  0.00    +0.000 A 
ATOM     36  N   UNL     1       7.840  14.283  17.413  0.00  0.00    +0.000 N 
ATOM     37  C   UNL     1       5.470  14.502  17.849  0.00  0.00    +0.000 A 
ATOM     38  H   UNL     1       8.656  14.881  17.503  0.00  0.00    +0.000 HD
ATOM     39  H   UNL     1       7.690  13.985  16.455  0.00  0.00    +0.000 HD
ENDBRANCH  30  31
ENDBRANCH  29  30
ENDBRANCH  28  29
ENDBRANCH  27  28
ENDBRANCH  26  27
ENDBRANCH   6  26
TORSDOF 13
ENDMDL
MODEL 5
REMARK VINA RESULT:      -7.5      4.096      9.532
REMARK  Name = 
REMARK  17 active torsions:
REMARK  status: ('A' for Active; 'I' for Inactive)
REMARK    1  A    between atoms: C_1  and  O_2
REMARK    2  A    between atoms: O_2  and  C_3
REMARK    3  A    between atoms: C_5  and  N_6
REMARK    4  A    between atoms: N_6  and  C_19
REMARK    5  A    between atoms: N_9  and  C_10
REMARK    6  A    between atoms: C_10  and  C_11
REMARK    7  A    between atoms: C_11  and  C_12
REMARK    8  A    between atoms: C_12  and  N_13
REMARK    9  A    between atoms: C_17  and  C_18
REMARK   10  A    between atoms: C_19  and  C_20
REMARK   11  A    between atoms: C_19  and  C_21
REMARK   12  A    between atoms: C_24  and  O_25
REMARK   13  A    between atoms: O_25  and  C_26
REMARK   14  A    between atoms: C_26  and  C_27
REMARK   15  A    between atoms: C_27  and  C_28
REMARK   16  A    between atoms: C_28  and  C_29
REMARK   17  A    between atoms: C_29  and  C_30
REMARK                            x       y       z     vdW  Elec       q    Type
REMARK                         _______ _______ _______ _____ _____    ______ ____
ROOT
ATOM      1  C   UNL     1       1.537   7.772  20.469  0.00  0.00    +0.000 A 
ATOM      2  C   UNL     1       1.941   6.433  20.412  0.00  0.00    +0.000 A 
ATOM      3  C   UNL     1       2.472   5.868  19.241  0.00  0.00    +0.000 A 
ATOM      4  C   UNL     1       2.510   6.632  18.075  0.00  0.00    +0.000 A 
ATOM      5  C   UNL     1       2.131   7.991  18.134  0.00  0.00    +0.000 A 
ATOM      6  C   UNL     1       1.701   8.577  19.333  0.00  0.00    +0.000 A 
ENDROOT
BRANCH   3   7
ATOM      7  N   UNL     1       3.074   4.572  19.339  0.00  0.00    +0.000 N 
ATOM      8  C   UNL     1       4.445   4.323  19.409  0.00  0.00    +0.000 C 
ATOM      9  O   UNL     1       4.920   3.221  19.684  0.00  0.00    +0.000 OA
ATOM     10  N   UNL     1       5.265   5.374  19.063  0.00  0.00    +0.000 N 
ATOM     11  H   UNL     1       4.849   6.018  18.405  0.00  0.00    +0.000 HD
BRANCH   7  12
ATOM     12  C   UNL     1       2.113   3.444  19.520  0.00  0.00    +0.000 C 
ATOM     13  C   UNL     1       1.536   3.370  20.935  0.00  0.00    +0.000 C 
ATOM     14  C   UNL     1       0.989   3.433  18.479  0.00  0.00    +0.000 C 
ENDBRANCH   7  12
BRANCH  10  15
ATOM     15  C   UNL     1       6.696   5.140  18.954  0.00  0.00    +0.000 C 
BRANCH  15  16
ATOM     16  C   UNL     1       7.460   6.424  18.665  0.00  0.00    +0.000 C 
BRANCH  16  17
ATOM     17  C   UNL     1       7.463   6.746  17.171  0.00  0.00    +0.000 C 
BRANCH  17  18
ATOM     18  N   UNL     1       6.825   5.700  16.393  0.00  0.00    +0.000 N 
ATOM     19  C   UNL     1       7.301   4.425  16.262  0.00  0.00    +0.000 A 
ATOM     20  N   UNL     1       6.513   3.688  15.514  0.00  0.00    +0.000 NA
ATOM     21  C   UNL     1       5.491   4.521  15.141  0.00  0.00    +0.000 A 
ATOM     22  C   UNL     1       5.661   5.786  15.668  0.00  0.00    +0.000 A 
ATOM     23  C   UNL     1       4.829   7.003  15.536  0.00  0.00    +0.000 C 
ENDBRANCH  17  18
ENDBRANCH  16  17
ENDBRANCH  15  16
ENDBRANCH  10  15
ENDBRANCH   3   7
BRANCH   1  25
ATOM     24  C   UNL     1       1.743   9.199  22.414  0.00  0.00    +0.000 C 
ATOM     25  O   UNL     1       0.987   8.327  21.585  0.00  0.00    +0.000 OA
ENDBRANCH   1  25
BRANCH   6  26
ATOM     26  O   UNL     1       1.453   9.941  19.251  0.00  0.00    +0.000 OA
BRANCH  26  27
ATOM     27  C   UNL     1       0.409  10.331  18.348  0.00  0.00    +0.000 C 
BRANCH  27  28
ATOM     28  C   UNL     1      -0.942  10.464  19.058  0.00  0.00    +0.000 C 
BRANCH  28  29
ATOM     29  C   UNL     1      -0.797  11.150  20.420  0.00  0.00    +0.000 C 
BRANCH  29  30
ATOM     30  C   UNL     1      -1.391  12.560  20.422  0.00  0.00    +0.000 C 
BRANCH  30  31
ATOM     31  C   UNL     1      -2.717  12.593  21.137  0.00  0.00    +0.000 A 
ATOM     32  C   UNL     1      -3.907  12.729  20.422  0.00  0.00    +0.000 A 
ATOM     33  C   UNL     1      -5.102  12.718  21.123  0.00  0.00    +0.000 A 
ATOM     34  N   UNL     1      -5.192  12.583  22.464  0.00  0.00    +0.000 NA
ATOM     35  C   UNL     1      -4.042  12.448  23.142  0.00  0.00    +0.000 A 
ATOM     36  N   UNL     1      -4.156  12.271  24.521  0.00  0.00    +0.000 N 
ATOM     37  C   UNL     1      -2.797  12.439  22.526  0.00  0.00    +0.000 A 
ATOM     38  H   UNL     1      -5.143  12.363  24.741  0.00  0.00    +0.000 HD
ATOM     39  H   UNL     1      -3.589  12.942  25.027  0.00  0.00    +0.000 HD
ENDBRANCH  30  31
ENDBRANCH  29  30
ENDBRANCH  28  29
ENDBRANCH  27  28
ENDBRANCH  26  27
ENDBRANCH   6  26
TORSDOF 13
ENDMDL
MODEL 6
REMARK VINA RESULT:      -7.5      3.612      8.109
REMARK  Name = 
REMARK  17 active torsions:
REMARK  status: ('A' for Active; 'I' for Inactive)
REMARK    1  A    between atoms: C_1  and  O_2
REMARK    2  A    between atoms: O_2  and  C_3
REMARK    3  A    between atoms: C_5  and  N_6
REMARK    4  A    between atoms: N_6  and  C_19
REMARK    5  A    between atoms: N_9  and  C_10
REMARK    6  A    between atoms: C_10  and  C_11
REMARK    7  A    between atoms: C_11  and  C_12
REMARK    8  A    between atoms: C_12  and  N_13
REMARK    9  A    between atoms: C_17  and  C_18
REMARK   10  A    between atoms: C_19  and  C_20
REMARK   11  A    between atoms: C_19  and  C_21
REMARK   12  A    between atoms: C_24  and  O_25
REMARK   13  A    between atoms: O_25  and  C_26
REMARK   14  A    between atoms: C_26  and  C_27
REMARK   15  A    between atoms: C_27  and  C_28
REMARK   16  A    between atoms: C_28  and  C_29
REMARK   17  A    between atoms: C_29  and  C_30
REMARK                            x       y       z     vdW  Elec       q    Type
REMARK                         _______ _______ _______ _____ _____    ______ ____
ROOT
ATOM      1  C   UNL     1       1.435   8.551  20.488  0.00  0.00    +0.000 A 
ATOM      2  C   UNL     1       0.707   9.693  20.134  0.00  0.00    +0.000 A 
ATOM      3  C   UNL     1       0.637  10.145  18.806  0.00  0.00    +0.000 A 
ATOM      4  C   UNL     1       1.391   9.497  17.828  0.00  0.00    +0.000 A 
ATOM      5  C   UNL     1       2.104   8.330  18.173  0.00  0.00    +0.000 A 
ATOM      6  C   UNL     1       2.084   7.823  19.481  0.00  0.00    +0.000 A 
ENDROOT
BRANCH   3   7
ATOM      7  N   UNL     1      -0.315  11.170  18.500  0.00  0.00    +0.000 N 
ATOM      8  C   UNL     1      -0.013  12.516  18.291  0.00  0.00    +0.000 C 
ATOM      9  O   UNL     1      -0.820  13.330  17.844  0.00  0.00    +0.000 OA
ATOM     10  N   UNL     1       1.239  12.921  18.699  0.00  0.00    +0.000 N 
ATOM     11  H   UNL     1       1.615  12.377  19.463  0.00  0.00    +0.000 HD
BRANCH   7  12
ATOM     12  C   UNL     1      -1.705  10.684  18.256  0.00  0.00    +0.000 C 
ATOM     13  C   UNL     1      -2.773  11.594  18.867  0.00  0.00    +0.000 C 
ATOM     14  C   UNL     1      -2.005  10.419  16.778  0.00  0.00    +0.000 C 
ENDBRANCH   7  12
BRANCH  10  15
ATOM     15  C   UNL     1       1.563  14.338  18.665  0.00  0.00    +0.000 C 
BRANCH  15  16
ATOM     16  C   UNL     1       2.978  14.584  18.163  0.00  0.00    +0.000 C 
BRANCH  16  17
ATOM     17  C   UNL     1       3.980  14.618  19.316  0.00  0.00    +0.000 C 
BRANCH  17  18
ATOM     18  N   UNL     1       4.895  15.740  19.203  0.00  0.00    +0.000 N 
ATOM     19  C   UNL     1       4.677  16.980  19.734  0.00  0.00    +0.000 A 
ATOM     20  N   UNL     1       5.678  17.794  19.491  0.00  0.00    +0.000 NA
ATOM     21  C   UNL     1       6.576  17.052  18.769  0.00  0.00    +0.000 A 
ATOM     22  C   UNL     1       6.112  15.768  18.566  0.00  0.00    +0.000 A 
ATOM     23  C   UNL     1       6.722  14.627  17.846  0.00  0.00    +0.000 C 
ENDBRANCH  17  18
ENDBRANCH  16  17
ENDBRANCH  15  16
ENDBRANCH  10  15
ENDBRANCH   3   7
BRANCH   1  25
ATOM     24  C   UNL     1       1.257   8.987  22.863  0.00  0.00    +0.000 C 
ATOM     25  O   UNL     1       1.543   8.119  21.776  0.00  0.00    +0.000 OA
ENDBRANCH   1  25
BRANCH   6  26
ATOM     26  O   UNL     1       2.757   6.619  19.642  0.00  0.00    +0.000 OA
BRANCH  26  27
ATOM     27  C   UNL     1       1.944   5.439  19.588  0.00  0.00    +0.000 C 
BRANCH  27  28
ATOM     28  C   UNL     1       2.043   4.736  18.230  0.00  0.00    +0.000 C 
BRANCH  28  29
ATOM     29  C   UNL     1       3.172   3.701  18.214  0.00  0.00    +0.000 C 
BRANCH  29  30
ATOM     30  C   UNL     1       4.135   3.916  17.043  0.00  0.00    +0.000 C 
BRANCH  30  31
ATOM     31  C   UNL     1       5.204   4.917  17.393  0.00  0.00    +0.000 A 
ATOM     32  C   UNL     1       5.288   6.134  16.715  0.00  0.00    +0.000 A 
ATOM     33  C   UNL     1       6.267   7.036  17.097  0.00  0.00    +0.000 A 
ATOM     34  N   UNL     1       7.154   6.814  18.091  0.00  0.00    +0.000 NA
ATOM     35  C   UNL     1       7.062   5.643  18.742  0.00  0.00    +0.000 A 
ATOM     36  N   UNL     1       7.960   5.448  19.790  0.00  0.00    +0.000 N 
ATOM     37  C   UNL     1       6.109   4.681  18.434  0.00  0.00    +0.000 A 
ATOM     38  H   UNL     1       8.580   6.252  19.790  0.00  0.00    +0.000 HD
ATOM     39  H   UNL     1       8.468   4.576  19.684  0.00  0.00    +0.000 HD
ENDBRANCH  30  31
ENDBRANCH  29  30
ENDBRANCH  28  29
ENDBRANCH  27  28
ENDBRANCH  26  27
ENDBRANCH   6  26
TORSDOF 13
ENDMDL
MODEL 7
REMARK VINA RESULT:      -7.5      4.127      7.895
REMARK  Name = 
REMARK  17 active torsions:
REMARK  status: ('A' for Active; 'I' for Inactive)
REMARK    1  A    between atoms: C_1  and  O_2
REMARK    2  A    between atoms: O_2  and  C_3
REMARK    3  A    between atoms: C_5  and  N_6
REMARK    4  A    between atoms: N_6  and  C_19
REMARK    5  A    between atoms: N_9  and  C_10
REMARK    6  A    between atoms: C_10  and  C_11
REMARK    7  A    between atoms: C_11  and  C_12
REMARK    8  A    between atoms: C_12  and  N_13
REMARK    9  A    between atoms: C_17  and  C_18
REMARK   10  A    between atoms: C_19  and  C_20
REMARK   11  A    between atoms: C_19  and  C_21
REMARK   12  A    between atoms: C_24  and  O_25
REMARK   13  A    between atoms: O_25  and  C_26
REMARK   14  A    between atoms: C_26  and  C_27
REMARK   15  A    between atoms: C_27  and  C_28
REMARK   16  A    between atoms: C_28  and  C_29
REMARK   17  A    between atoms: C_29  and  C_30
REMARK                            x       y       z     vdW  Elec       q    Type
REMARK                         _______ _______ _______ _____ _____    ______ ____
ROOT
ATOM      1  C   UNL     1       1.430   7.754  20.364  0.00  0.00    +0.000 A 
ATOM      2  C   UNL     1       1.900   6.436  20.412  0.00  0.00    +0.000 A 
ATOM      3  C   UNL     1       2.564   5.846  19.324  0.00  0.00    +0.000 A 
ATOM      4  C   UNL     1       2.673   6.556  18.129  0.00  0.00    +0.000 A 
ATOM      5  C   UNL     1       2.227   7.894  18.084  0.00  0.00    +0.000 A 
ATOM      6  C   UNL     1       1.660   8.512  19.207  0.00  0.00    +0.000 A 
ENDROOT
BRANCH   3   7
ATOM      7  N   UNL     1       3.216   4.589  19.542  0.00  0.00    +0.000 N 
ATOM      8  C   UNL     1       4.596   4.399  19.622  0.00  0.00    +0.000 C 
ATOM      9  O   UNL     1       5.114   3.348  19.998  0.00  0.00    +0.000 OA
ATOM     10  N   UNL     1       5.373   5.441  19.166  0.00  0.00    +0.000 N 
ATOM     11  H   UNL     1       4.928   6.001  18.453  0.00  0.00    +0.000 HD
BRANCH   7  12
ATOM     12  C   UNL     1       2.299   3.450  19.842  0.00  0.00    +0.000 C 
ATOM     13  C   UNL     1       2.465   2.277  18.873  0.00  0.00    +0.000 C 
ATOM     14  C   UNL     1       2.386   2.967  21.292  0.00  0.00    +0.000 C 
ENDBRANCH   7  12
BRANCH  10  15
ATOM     15  C   UNL     1       6.811   5.251  19.066  0.00  0.00    +0.000 C 
BRANCH  15  16
ATOM     16  C   UNL     1       7.382   5.900  17.814  0.00  0.00    +0.000 C 
BRANCH  16  17
ATOM     17  C   UNL     1       6.282   6.237  16.809  0.00  0.00    +0.000 C 
BRANCH  17  18
ATOM     18  N   UNL     1       6.328   5.369  15.647  0.00  0.00    +0.000 N 
ATOM     19  C   UNL     1       7.253   5.457  14.644  0.00  0.00    +0.000 A 
ATOM     20  N   UNL     1       7.065   4.535  13.729  0.00  0.00    +0.000 NA
ATOM     21  C   UNL     1       5.972   3.827  14.153  0.00  0.00    +0.000 A 
ATOM     22  C   UNL     1       5.484   4.327  15.344  0.00  0.00    +0.000 A 
ATOM     23  C   UNL     1       4.332   3.899  16.168  0.00  0.00    +0.000 C 
ENDBRANCH  17  18
ENDBRANCH  16  17
ENDBRANCH  15  16
ENDBRANCH  10  15
ENDBRANCH   3   7
BRANCH   1  25
ATOM     24  C   UNL     1       1.422   9.165  22.331  0.00  0.00    +0.000 C 
ATOM     25  O   UNL     1       0.753   8.330  21.396  0.00  0.00    +0.000 OA
ENDBRANCH   1  25
BRANCH   6  26
ATOM     26  O   UNL     1       1.356   9.856  19.034  0.00  0.00    +0.000 OA
BRANCH  26  27
ATOM     27  C   UNL     1       0.100  10.134  18.400  0.00  0.00    +0.000 C 
BRANCH  27  28
ATOM     28  C   UNL     1      -0.881  10.828  19.351  0.00  0.00    +0.000 C 
BRANCH  28  29
ATOM     29  C   UNL     1      -0.416  12.244  19.703  0.00  0.00    +0.000 C 
BRANCH  29  30
ATOM     30  C   UNL     1      -0.151  13.092  18.456  0.00  0.00    +0.000 C 
BRANCH  30  31
ATOM     31  C   UNL     1       1.126  13.878  18.591  0.00  0.00    +0.000 A 
ATOM     32  C   UNL     1       2.348  13.321  18.213  0.00  0.00    +0.000 A 
ATOM     33  C   UNL     1       3.489  14.098  18.324  0.00  0.00    +0.000 A 
ATOM     34  N   UNL     1       3.498  15.370  18.777  0.00  0.00    +0.000 NA
ATOM     35  C   UNL     1       2.317  15.900  19.132  0.00  0.00    +0.000 A 
ATOM     36  N   UNL     1       2.340  17.226  19.561  0.00  0.00    +0.000 N 
ATOM     37  C   UNL     1       1.119  15.201  19.049  0.00  0.00    +0.000 A 
ATOM     38  H   UNL     1       3.316  17.503  19.585  0.00  0.00    +0.000 HD
ATOM     39  H   UNL     1       1.893  17.330  20.466  0.00  0.00    +0.000 HD
ENDBRANCH  30  31
ENDBRANCH  29  30
ENDBRANCH  28  29
ENDBRANCH  27  28
ENDBRANCH  26  27
ENDBRANCH   6  26
TORSDOF 13
ENDMDL
MODEL 8
REMARK VINA RESULT:      -7.4      2.761      9.231
REMARK  Name = 
REMARK  17 active torsions:
REMARK  status: ('A' for Active; 'I' for Inactive)
REMARK    1  A    between atoms: C_1  and  O_2
REMARK    2  A    between atoms: O_2  and  C_3
REMARK    3  A    between atoms: C_5  and  N_6
REMARK    4  A    between atoms: N_6  and  C_19
REMARK    5  A    between atoms: N_9  and  C_10
REMARK    6  A    between atoms: C_10  and  C_11
REMARK    7  A    between atoms: C_11  and  C_12
REMARK    8  A    between atoms: C_12  and  N_13
REMARK    9  A    between atoms: C_17  and  C_18
REMARK   10  A    between atoms: C_19  and  C_20
REMARK   11  A    between atoms: C_19  and  C_21
REMARK   12  A    between atoms: C_24  and  O_25
REMARK   13  A    between atoms: O_25  and  C_26
REMARK   14  A    between atoms: C_26  and  C_27
REMARK   15  A    between atoms: C_27  and  C_28
REMARK   16  A    between atoms: C_28  and  C_29
REMARK   17  A    between atoms: C_29  and  C_30
REMARK                            x       y       z     vdW  Elec       q    Type
REMARK                         _______ _______ _______ _____ _____    ______ ____
ROOT
ATOM      1  C   UNL     1       3.046   5.371  19.515  0.00  0.00    +0.000 A 
ATOM      2  C   UNL     1       3.978   5.119  18.502  0.00  0.00    +0.000 A 
ATOM      3  C   UNL     1       4.314   6.090  17.545  0.00  0.00    +0.000 A 
ATOM      4  C   UNL     1       3.632   7.306  17.543  0.00  0.00    +0.000 A 
ATOM      5  C   UNL     1       2.711   7.577  18.578  0.00  0.00    +0.000 A 
ATOM      6  C   UNL     1       2.458   6.642  19.592  0.00  0.00    +0.000 A 
ENDROOT
BRANCH   3   7
ATOM      7  N   UNL     1       5.441   5.832  16.699  0.00  0.00    +0.000 N 
ATOM      8  C   UNL     1       6.730   6.328  16.897  0.00  0.00    +0.000 C 
ATOM      9  O   UNL     1       7.711   5.937  16.266  0.00  0.00    +0.000 OA
ATOM     10  N   UNL     1       6.841   7.367  17.795  0.00  0.00    +0.000 N 
ATOM     11  H   UNL     1       6.008   7.933  17.871  0.00  0.00    +0.000 HD
BRANCH   7  12
ATOM     12  C   UNL     1       5.198   4.833  15.616  0.00  0.00    +0.000 C 
ATOM     13  C   UNL     1       5.623   5.334  14.234  0.00  0.00    +0.000 C 
ATOM     14  C   UNL     1       5.814   3.462  15.906  0.00  0.00    +0.000 C 
ENDBRANCH   7  12
BRANCH  10  15
ATOM     15  C   UNL     1       8.122   8.042  17.929  0.00  0.00    +0.000 C 
BRANCH  15  16
ATOM     16  C   UNL     1       7.955   9.546  18.097  0.00  0.00    +0.000 C 
BRANCH  16  17
ATOM     17  C   UNL     1       9.267  10.284  17.839  0.00  0.00    +0.000 C 
BRANCH  17  18
ATOM     18  N   UNL     1       9.749  10.961  19.029  0.00  0.00    +0.000 N 
ATOM     19  C   UNL     1       9.116  10.951  20.241  0.00  0.00    +0.000 A 
ATOM     20  N   UNL     1       9.785  11.632  21.142  0.00  0.00    +0.000 NA
ATOM     21  C   UNL     1      10.890  12.107  20.485  0.00  0.00    +0.000 A 
ATOM     22  C   UNL     1      10.892  11.711  19.163  0.00  0.00    +0.000 A 
ATOM     23  C   UNL     1      11.862  11.983  18.078  0.00  0.00    +0.000 C 
ENDBRANCH  17  18
ENDBRANCH  16  17
ENDBRANCH  15  16
ENDBRANCH  10  15
ENDBRANCH   3   7
BRANCH   1  25
ATOM     24  C   UNL     1       1.591   3.553  20.179  0.00  0.00    +0.000 C 
ATOM     25  O   UNL     1       2.681   4.430  20.430  0.00  0.00    +0.000 OA
ENDBRANCH   1  25
BRANCH   6  26
ATOM     26  O   UNL     1       1.600   7.090  20.588  0.00  0.00    +0.000 OA
BRANCH  26  27
ATOM     27  C   UNL     1       1.656   8.496  20.872  0.00  0.00    +0.000 C 
BRANCH  27  28
ATOM     28  C   UNL     1       0.313   9.186  20.614  0.00  0.00    +0.000 C 
BRANCH  28  29
ATOM     29  C   UNL     1       0.468  10.381  19.669  0.00  0.00    +0.000 C 
BRANCH  29  30
ATOM     30  C   UNL     1      -0.351  10.213  18.386  0.00  0.00    +0.000 C 
BRANCH  30  31
ATOM     31  C   UNL     1      -1.708  10.855  18.516  0.00  0.00    +0.000 A 
ATOM     32  C   UNL     1      -1.965  11.774  19.534  0.00  0.00    +0.000 A 
ATOM     33  C   UNL     1      -3.217  12.363  19.590  0.00  0.00    +0.000 A 
ATOM     34  N   UNL     1      -4.215  12.104  18.717  0.00  0.00    +0.000 NA
ATOM     35  C   UNL     1      -3.957  11.222  17.738  0.00  0.00    +0.000 A 
ATOM     36  N   UNL     1      -4.985  10.996  16.824  0.00  0.00    +0.000 N 
ATOM     37  C   UNL     1      -2.729  10.588  17.597  0.00  0.00    +0.000 A 
ATOM     38  H   UNL     1      -5.786  11.524  17.158  0.00  0.00    +0.000 HD
ATOM     39  H   UNL     1      -5.191  10.007  16.737  0.00  0.00    +0.000 HD
ENDBRANCH  30  31
ENDBRANCH  29  30
ENDBRANCH  28  29
ENDBRANCH  27  28
ENDBRANCH  26  27
ENDBRANCH   6  26
TORSDOF 13
ENDMDL
MODEL 9
REMARK VINA RESULT:      -7.4      4.166      9.914
REMARK  Name = 
REMARK  17 active torsions:
REMARK  status: ('A' for Active; 'I' for Inactive)
REMARK    1  A    between atoms: C_1  and  O_2
REMARK    2  A    between atoms: O_2  and  C_3
REMARK    3  A    between atoms: C_5  and  N_6
REMARK    4  A    between atoms: N_6  and  C_19
REMARK    5  A    between atoms: N_9  and  C_10
REMARK    6  A    between atoms: C_10  and  C_11
REMARK    7  A    between atoms: C_11  and  C_12
REMARK    8  A    between atoms: C_12  and  N_13
REMARK    9  A    between atoms: C_17  and  C_18
REMARK   10  A    between atoms: C_19  and  C_20
REMARK   11  A    between atoms: C_19  and  C_21
REMARK   12  A    between atoms: C_24  and  O_25
REMARK   13  A    between atoms: O_25  and  C_26
REMARK   14  A    between atoms: C_26  and  C_27
REMARK   15  A    between atoms: C_27  and  C_28
REMARK   16  A    between atoms: C_28  and  C_29
REMARK   17  A    between atoms: C_29  and  C_30
REMARK                            x       y       z     vdW  Elec       q    Type
REMARK                         _______ _______ _______ _____ _____    ______ ____
ROOT
ATOM      1  C   UNL     1       1.762   8.806  18.774  0.00  0.00    +0.000 A 
ATOM      2  C   UNL     1       2.303   7.540  18.520  0.00  0.00    +0.000 A 
ATOM      3  C   UNL     1       2.394   6.558  19.520  0.00  0.00    +0.000 A 
ATOM      4  C   UNL     1       2.024   6.882  20.825  0.00  0.00    +0.000 A 
ATOM      5  C   UNL     1       1.452   8.146  21.082  0.00  0.00    +0.000 A 
ATOM      6  C   UNL     1       1.267   9.084  20.057  0.00  0.00    +0.000 A 
ENDROOT
BRANCH   3   7
ATOM      7  N   UNL     1       2.736   5.227  19.118  0.00  0.00    +0.000 N 
ATOM      8  C   UNL     1       4.021   4.683  19.136  0.00  0.00    +0.000 C 
ATOM      9  O   UNL     1       4.252   3.486  18.968  0.00  0.00    +0.000 OA
ATOM     10  N   UNL     1       5.053   5.586  19.269  0.00  0.00    +0.000 N 
ATOM     11  H   UNL     1       4.841   6.504  18.905  0.00  0.00    +0.000 HD
BRANCH   7  12
ATOM     12  C   UNL     1       1.572   4.349  18.798  0.00  0.00    +0.000 C 
ATOM     13  C   UNL     1       1.725   3.613  17.465  0.00  0.00    +0.000 C 
ATOM     14  C   UNL     1       1.228   3.365  19.921  0.00  0.00    +0.000 C 
ENDBRANCH   7  12
BRANCH  10  15
ATOM     15  C   UNL     1       6.420   5.111  19.130  0.00  0.00    +0.000 C 
BRANCH  15  16
ATOM     16  C   UNL     1       7.391   6.251  18.860  0.00  0.00    +0.000 C 
BRANCH  16  17
ATOM     17  C   UNL     1       7.385   6.651  17.386  0.00  0.00    +0.000 C 
BRANCH  17  18
ATOM     18  N   UNL     1       6.743   5.647  16.557  0.00  0.00    +0.000 N 
ATOM     19  C   UNL     1       7.243   4.397  16.318  0.00  0.00    +0.000 A 
ATOM     20  N   UNL     1       6.445   3.695  15.548  0.00  0.00    +0.000 NA
ATOM     21  C   UNL     1       5.390   4.525  15.273  0.00  0.00    +0.000 A 
ATOM     22  C   UNL     1       5.550   5.753  15.883  0.00  0.00    +0.000 A 
ATOM     23  C   UNL     1       4.686   6.955  15.869  0.00  0.00    +0.000 C 
ENDBRANCH  17  18
ENDBRANCH  16  17
ENDBRANCH  15  16
ENDBRANCH  10  15
ENDBRANCH   3   7
BRANCH   1  25
ATOM     24  C   UNL     1       2.388  11.013  18.000  0.00  0.00    +0.000 C 
ATOM     25  O   UNL     1       1.698   9.782  17.826  0.00  0.00    +0.000 OA
ENDBRANCH   1  25
BRANCH   6  26
ATOM     26  O   UNL     1       0.607  10.243  20.447  0.00  0.00    +0.000 OA
BRANCH  26  27
ATOM     27  C   UNL     1      -0.686  10.054  21.039  0.00  0.00    +0.000 C 
BRANCH  27  28
ATOM     28  C   UNL     1      -0.710  10.480  22.510  0.00  0.00    +0.000 C 
BRANCH  28  29
ATOM     29  C   UNL     1      -0.887  11.995  22.654  0.00  0.00    +0.000 C 
BRANCH  29  30
ATOM     30  C   UNL     1      -2.020  12.530  21.774  0.00  0.00    +0.000 C 
BRANCH  30  31
ATOM     31  C   UNL     1      -3.330  12.540  22.517  0.00  0.00    +0.000 A 
ATOM     32  C   UNL     1      -3.361  12.410  23.906  0.00  0.00    +0.000 A 
ATOM     33  C   UNL     1      -4.589  12.461  24.546  0.00  0.00    +0.000 A 
ATOM     34  N   UNL     1      -5.768  12.630  23.909  0.00  0.00    +0.000 NA
ATOM     35  C   UNL     1      -5.727  12.760  22.573  0.00  0.00    +0.000 A 
ATOM     36  N   UNL     1      -6.949  12.972  21.936  0.00  0.00    +0.000 N 
ATOM     37  C   UNL     1      -4.544  12.729  21.846  0.00  0.00    +0.000 A 
ATOM     38  H   UNL     1      -7.663  12.905  22.656  0.00  0.00    +0.000 HD
ATOM     39  H   UNL     1      -7.098  12.302  21.190  0.00  0.00    +0.000 HD
ENDBRANCH  30  31
ENDBRANCH  29  30
ENDBRANCH  28  29
ENDBRANCH  27  28
ENDBRANCH  26  27
ENDBRANCH   6  26
TORSDOF 13
ENDMDL
