MODEL 1
REMARK VINA RESULT:      -8.0      0.000      0.000
REMARK  Name = 
REMARK  7 active torsions:
REMARK  status: ('A' for Active; 'I' for Inactive)
REMARK    1  A    between atoms: N_2  and  C_4
REMARK    2  A    between atoms: C_7  and  C_8
REMARK    3  A    between atoms: C_8  and  C_9
REMARK    4  A    between atoms: C_9  and  N_10
REMARK    5  A    between atoms: N_13  and  C_14
REMARK    6  A    between atoms: C_14  and  C_15
REMARK    7  A    between atoms: C_15  and  C_16
REMARK                            x       y       z     vdW  Elec       q    Type
REMARK                         _______ _______ _______ _____ _____    ______ ____
ROOT
ATOM      1  N   UNL     1       7.356   6.831  16.973  0.00  0.00    +0.000 NA
ATOM      2  C   UNL     1       7.448   5.779  18.009  0.00  0.00    +0.000 C 
ATOM      3  C   UNL     1       6.213   5.715  18.936  0.00  0.00    +0.000 C 
ATOM      4  N   UNL     1       4.945   5.476  18.212  0.00  0.00    +0.000 NA
ATOM      5  C   UNL     1       4.821   6.504  17.146  0.00  0.00    +0.000 C 
ATOM      6  C   UNL     1       6.076   6.656  16.239  0.00  0.00    +0.000 C 
ENDROOT
BRANCH   1   7
ATOM      7  C   UNL     1       7.417   8.193  17.539  0.00  0.00    +0.000 C 
BRANCH   7   8
ATOM      8  C   UNL     1       8.554   8.406  18.547  0.00  0.00    +0.000 C 
BRANCH   8  12
ATOM      9  C   UNL     1       9.413  12.595  18.968  0.00  0.00    +0.000 A 
ATOM     10  C   UNL     1       9.786  11.705  19.983  0.00  0.00    +0.000 A 
ATOM     11  C   UNL     1       9.510  10.348  19.836  0.00  0.00    +0.000 A 
ATOM     12  C   UNL     1       8.871   9.874  18.680  0.00  0.00    +0.000 A 
ATOM     13  C   UNL     1       8.486  10.774  17.678  0.00  0.00    +0.000 A 
ATOM     14  C   UNL     1       8.758  12.135  17.818  0.00  0.00    +0.000 A 
BRANCH   9  16
ATOM     15  O   UNL     1      10.727  14.459  18.551  0.00  0.00    +0.000 OA
ATOM     16  N   UNL     1       9.712  14.023  19.111  0.00  0.00    +0.000 N 
ATOM     17  O   UNL     1       8.929  14.711  19.782  0.00  0.00    +0.000 OA
ENDBRANCH   9  16
ENDBRANCH   8  12
ENDBRANCH   7   8
ENDBRANCH   1   7
BRANCH   4  18
ATOM     18  C   UNL     1       4.886   4.130  17.609  0.00  0.00    +0.000 C 
BRANCH  18  19
ATOM     19  C   UNL     1       3.464   3.612  17.339  0.00  0.00    +0.000 C 
BRANCH  19  20
ATOM     20  C   UNL     1       2.774   3.294  18.642  0.00  0.00    +0.000 A 
ATOM     21  C   UNL     1       1.419   3.624  18.818  0.00  0.00    +0.000 A 
ATOM     22  C   UNL     1       0.800   3.402  20.045  0.00  0.00    +0.000 A 
ATOM     23  C   UNL     1       1.533   2.857  21.093  0.00  0.00    +0.000 A 
ATOM     24  F   UNL     1       0.942   2.660  22.277  0.00  0.00    +0.000 F 
ATOM     25  C   UNL     1       2.873   2.521  20.933  0.00  0.00    +0.000 A 
ATOM     26  C   UNL     1       3.498   2.740  19.706  0.00  0.00    +0.000 A 
ENDBRANCH  19  20
ENDBRANCH  18  19
ENDBRANCH   4  18
TORSDOF 7
ENDMDL
MODEL 2
REMARK VINA RESULT:      -7.9      0.860      1.442
REMARK  Name = 
REMARK  7 active torsions:
REMARK  status: ('A' for Active; 'I' for Inactive)
REMARK    1  A    between atoms: N_2  and  C_4
REMARK    2  A    between atoms: C_7  and  C_8
REMARK    3  A    between atoms: C_8  and  C_9
REMARK    4  A    between atoms: C_9  and  N_10
REMARK    5  A    between atoms: N_13  and  C_14
REMARK    6  A    between atoms: C_14  and  C_15
REMARK    7  A    between atoms: C_15  and  C_16
REMARK                            x       y       z     vdW  Elec       q    Type
REMARK                         _______ _______ _______ _____ _____    ______ ____
ROOT
ATOM      1  N   UNL     1       7.896   6.542  17.701  0.00  0.00    +0.000 NA
ATOM      2  C   UNL     1       7.558   5.390  18.565  0.00  0.00    +0.000 C 
ATOM      3  C   UNL     1       6.167   5.502  19.228  0.00  0.00    +0.000 C 
ATOM      4  N   UNL     1       5.060   5.630  18.255  0.00  0.00    +0.000 NA
ATOM      5  C   UNL     1       5.369   6.769  17.352  0.00  0.00    +0.000 C 
ATOM      6  C   UNL     1       6.793   6.736  16.725  0.00  0.00    +0.000 C 
ENDROOT
BRANCH   1   7
ATOM      7  C   UNL     1       8.100   7.787  18.467  0.00  0.00    +0.000 C 
BRANCH   7   8
ATOM      8  C   UNL     1       8.086   9.062  17.613  0.00  0.00    +0.000 C 
BRANCH   8  12
ATOM      9  C   UNL     1       9.953  12.292  19.744  0.00  0.00    +0.000 A 
ATOM     10  C   UNL     1       9.873  11.026  20.336  0.00  0.00    +0.000 A 
ATOM     11  C   UNL     1       9.273   9.982  19.636  0.00  0.00    +0.000 A 
ATOM     12  C   UNL     1       8.757  10.195  18.348  0.00  0.00    +0.000 A 
ATOM     13  C   UNL     1       8.826  11.469  17.771  0.00  0.00    +0.000 A 
ATOM     14  C   UNL     1       9.426  12.520  18.466  0.00  0.00    +0.000 A 
BRANCH   9  16
ATOM     15  O   UNL     1      10.086  13.751  21.542  0.00  0.00    +0.000 OA
ATOM     16  N   UNL     1      10.595  13.392  20.471  0.00  0.00    +0.000 N 
ATOM     17  O   UNL     1      11.612  13.894  19.972  0.00  0.00    +0.000 OA
ENDBRANCH   9  16
ENDBRANCH   8  12
ENDBRANCH   7   8
ENDBRANCH   1   7
BRANCH   4  18
ATOM     18  C   UNL     1       4.868   4.404  17.455  0.00  0.00    +0.000 C 
BRANCH  18  19
ATOM     19  C   UNL     1       3.401   3.978  17.280  0.00  0.00    +0.000 C 
BRANCH  19  20
ATOM     20  C   UNL     1       2.789   3.671  18.624  0.00  0.00    +0.000 A 
ATOM     21  C   UNL     1       3.464   2.833  19.527  0.00  0.00    +0.000 A 
ATOM     22  C   UNL     1       2.868   2.484  20.737  0.00  0.00    +0.000 A 
ATOM     23  C   UNL     1       1.602   2.970  21.040  0.00  0.00    +0.000 A 
ATOM     24  F   UNL     1       1.022   2.622  22.194  0.00  0.00    +0.000 F 
ATOM     25  C   UNL     1       0.922   3.804  20.158  0.00  0.00    +0.000 A 
ATOM     26  C   UNL     1       1.515   4.156  18.946  0.00  0.00    +0.000 A 
ENDBRANCH  19  20
ENDBRANCH  18  19
ENDBRANCH   4  18
TORSDOF 7
ENDMDL
MODEL 3
REMARK VINA RESULT:      -7.6      0.380      1.450
REMARK  Name = 
REMARK  7 active torsions:
REMARK  status: ('A' for Active; 'I' for Inactive)
REMARK    1  A    between atoms: N_2  and  C_4
REMARK    2  A    between atoms: C_7  and  C_8
REMARK    3  A    between atoms: C_8  and  C_9
REMARK    4  A    between atoms: C_9  and  N_10
REMARK    5  A    between atoms: N_13  and  C_14
REMARK    6  A    between atoms: C_14  and  C_15
REMARK    7  A    between atoms: C_15  and  C_16
REMARK                            x       y       z     vdW  Elec       q    Type
REMARK                         _______ _______ _______ _____ _____    ______ ____
ROOT
ATOM      1  N   UNL     1       7.241   6.833  16.884  0.00  0.00    +0.000 NA
ATOM      2  C   UNL     1       7.378   5.736  17.867  0.00  0.00    +0.000 C 
ATOM      3  C   UNL     1       6.201   5.653  18.866  0.00  0.00    +0.000 C 
ATOM      4  N   UNL     1       4.887   5.465  18.214  0.00  0.00    +0.000 NA
ATOM      5  C   UNL     1       4.717   6.540  17.202  0.00  0.00    +0.000 C 
ATOM      6  C   UNL     1       5.916   6.711  16.225  0.00  0.00    +0.000 C 
ENDROOT
BRANCH   1   7
ATOM      7  C   UNL     1       7.363   8.168  17.502  0.00  0.00    +0.000 C 
BRANCH   7   8
ATOM      8  C   UNL     1       8.541   8.307  18.476  0.00  0.00    +0.000 C 
BRANCH   8  12
ATOM      9  C   UNL     1       9.566  12.445  19.014  0.00  0.00    +0.000 A 
ATOM     10  C   UNL     1       8.886  12.044  17.858  0.00  0.00    +0.000 A 
ATOM     11  C   UNL     1       8.551  10.702  17.694  0.00  0.00    +0.000 A 
ATOM     12  C   UNL     1       8.886   9.761  18.680  0.00  0.00    +0.000 A 
ATOM     13  C   UNL     1       9.581  10.169  19.825  0.00  0.00    +0.000 A 
ATOM     14  C   UNL     1       9.920  11.511  19.997  0.00  0.00    +0.000 A 
BRANCH   9  16
ATOM     15  O   UNL     1       9.559  14.404  20.254  0.00  0.00    +0.000 OA
ATOM     16  N   UNL     1       9.909  13.858  19.199  0.00  0.00    +0.000 N 
ATOM     17  O   UNL     1      10.534  14.423  18.289  0.00  0.00    +0.000 OA
ENDBRANCH   9  16
ENDBRANCH   8  12
ENDBRANCH   7   8
ENDBRANCH   1   7
BRANCH   4  18
ATOM     18  C   UNL     1       4.765   4.148  17.559  0.00  0.00    +0.000 C 
BRANCH  18  19
ATOM     19  C   UNL     1       3.320   3.653  17.381  0.00  0.00    +0.000 C 
BRANCH  19  20
ATOM     20  C   UNL     1       2.681   3.432  18.729  0.00  0.00    +0.000 A 
ATOM     21  C   UNL     1       3.007   2.291  19.482  0.00  0.00    +0.000 A 
ATOM     22  C   UNL     1       2.362   2.044  20.691  0.00  0.00    +0.000 A 
ATOM     23  C   UNL     1       1.394   2.933  21.144  0.00  0.00    +0.000 A 
ATOM     24  F   UNL     1       0.763   2.686  22.298  0.00  0.00    +0.000 F 
ATOM     25  C   UNL     1       1.064   4.069  20.414  0.00  0.00    +0.000 A 
ATOM     26  C   UNL     1       1.707   4.321  19.202  0.00  0.00    +0.000 A 
ENDBRANCH  19  20
ENDBRANCH  18  19
ENDBRANCH   4  18
TORSDOF 7
ENDMDL
MODEL 4
REMARK VINA RESULT:      -7.5      0.815      1.392
REMARK  Name = 
REMARK  7 active torsions:
REMARK  status: ('A' for Active; 'I' for Inactive)
REMARK    1  A    between atoms: N_2  and  C_4
REMARK    2  A    between atoms: C_7  and  C_8
REMARK    3  A    between atoms: C_8  and  C_9
REMARK    4  A    between atoms: C_9  and  N_10
REMARK    5  A    between atoms: N_13  and  C_14
REMARK    6  A    between atoms: C_14  and  C_15
REMARK    7  A    between atoms: C_15  and  C_16
REMARK                            x       y       z     vdW  Elec       q    Type
REMARK                         _______ _______ _______ _____ _____    ______ ____
ROOT
ATOM      1  N   UNL     1       7.515   6.177  17.310  0.00  0.00    +0.000 NA
ATOM      2  C   UNL     1       6.749   5.576  18.423  0.00  0.00    +0.000 C 
ATOM      3  C   UNL     1       5.257   5.979  18.434  0.00  0.00    +0.000 C 
ATOM      4  N   UNL     1       4.540   5.616  17.192  0.00  0.00    +0.000 NA
ATOM      5  C   UNL     1       5.289   6.187  16.042  0.00  0.00    +0.000 C 
ATOM      6  C   UNL     1       6.813   5.871  16.037  0.00  0.00    +0.000 C 
ENDROOT
BRANCH   1   7
ATOM      7  C   UNL     1       7.668   7.639  17.449  0.00  0.00    +0.000 C 
BRANCH   7   8
ATOM      8  C   UNL     1       8.466   8.074  18.685  0.00  0.00    +0.000 C 
BRANCH   8  12
ATOM      9  C   UNL     1       9.261  12.293  18.518  0.00  0.00    +0.000 A 
ATOM     10  C   UNL     1       8.433  11.705  17.554  0.00  0.00    +0.000 A 
ATOM     11  C   UNL     1       8.174  10.338  17.619  0.00  0.00    +0.000 A 
ATOM     12  C   UNL     1       8.733   9.557  18.644  0.00  0.00    +0.000 A 
ATOM     13  C   UNL     1       9.573  10.152  19.593  0.00  0.00    +0.000 A 
ATOM     14  C   UNL     1       9.837  11.520  19.535  0.00  0.00    +0.000 A 
BRANCH   9  16
ATOM     15  O   UNL     1       8.579  14.504  18.679  0.00  0.00    +0.000 OA
ATOM     16  N   UNL     1       9.526  13.734  18.463  0.00  0.00    +0.000 N 
ATOM     17  O   UNL     1      10.683  14.097  18.207  0.00  0.00    +0.000 OA
ENDBRANCH   9  16
ENDBRANCH   8  12
ENDBRANCH   7   8
ENDBRANCH   1   7
BRANCH   4  18
ATOM     18  C   UNL     1       4.412   4.155  17.020  0.00  0.00    +0.000 C 
BRANCH  18  19
ATOM     19  C   UNL     1       2.970   3.657  16.832  0.00  0.00    +0.000 C 
BRANCH  19  20
ATOM     20  C   UNL     1       2.348   3.359  18.174  0.00  0.00    +0.000 A 
ATOM     21  C   UNL     1       1.706   4.381  18.892  0.00  0.00    +0.000 A 
ATOM     22  C   UNL     1       1.199   4.130  20.165  0.00  0.00    +0.000 A 
ATOM     23  C   UNL     1       1.336   2.861  20.717  0.00  0.00    +0.000 A 
ATOM     24  F   UNL     1       0.864   2.624  21.946  0.00  0.00    +0.000 F 
ATOM     25  C   UNL     1       1.965   1.837  20.017  0.00  0.00    +0.000 A 
ATOM     26  C   UNL     1       2.474   2.084  18.743  0.00  0.00    +0.000 A 
ENDBRANCH  19  20
ENDBRANCH  18  19
ENDBRANCH   4  18
TORSDOF 7
ENDMDL
MODEL 5
REMARK VINA RESULT:      -7.4      1.103      1.548
REMARK  Name = 
REMARK  7 active torsions:
REMARK  status: ('A' for Active; 'I' for Inactive)
REMARK    1  A    between atoms: N_2  and  C_4
REMARK    2  A    between atoms: C_7  and  C_8
REMARK    3  A    between atoms: C_8  and  C_9
REMARK    4  A    between atoms: C_9  and  N_10
REMARK    5  A    between atoms: N_13  and  C_14
REMARK    6  A    between atoms: C_14  and  C_15
REMARK    7  A    between atoms: C_15  and  C_16
REMARK                            x       y       z     vdW  Elec       q    Type
REMARK                         _______ _______ _______ _____ _____    ______ ____
ROOT
ATOM      1  N   UNL     1       7.143   6.273  18.266  0.00  0.00    +0.000 NA
ATOM      2  C   UNL     1       5.676   6.400  18.127  0.00  0.00    +0.000 C 
ATOM      3  C   UNL     1       5.162   6.109  16.699  0.00  0.00    +0.000 C 
ATOM      4  N   UNL     1       5.510   4.755  16.213  0.00  0.00    +0.000 NA
ATOM      5  C   UNL     1       6.979   4.578  16.352  0.00  0.00    +0.000 C 
ATOM      6  C   UNL     1       7.549   4.939  17.755  0.00  0.00    +0.000 C 
ENDROOT
BRANCH   1   7
ATOM      7  C   UNL     1       7.876   7.324  17.534  0.00  0.00    +0.000 C 
BRANCH   7   8
ATOM      8  C   UNL     1       7.193   8.699  17.554  0.00  0.00    +0.000 C 
BRANCH   8  12
ATOM      9  C   UNL     1       9.890  11.714  19.000  0.00  0.00    +0.000 A 
ATOM     10  C   UNL     1       9.892  10.443  19.588  0.00  0.00    +0.000 A 
ATOM     11  C   UNL     1       9.019   9.469  19.109  0.00  0.00    +0.000 A 
ATOM     12  C   UNL     1       8.151   9.755  18.044  0.00  0.00    +0.000 A 
ATOM     13  C   UNL     1       8.145  11.034  17.474  0.00  0.00    +0.000 A 
ATOM     14  C   UNL     1       9.015  12.016  17.947  0.00  0.00    +0.000 A 
BRANCH   9  16
ATOM     15  O   UNL     1      10.511  13.927  19.308  0.00  0.00    +0.000 OA
ATOM     16  N   UNL     1      10.816  12.740  19.491  0.00  0.00    +0.000 N 
ATOM     17  O   UNL     1      11.847  12.359  20.063  0.00  0.00    +0.000 OA
ENDBRANCH   9  16
ENDBRANCH   8  12
ENDBRANCH   7   8
ENDBRANCH   1   7
BRANCH   4  18
ATOM     18  C   UNL     1       4.812   3.691  16.961  0.00  0.00    +0.000 C 
BRANCH  18  19
ATOM     19  C   UNL     1       3.278   3.792  16.936  0.00  0.00    +0.000 C 
BRANCH  19  20
ATOM     20  C   UNL     1       2.716   3.435  18.290  0.00  0.00    +0.000 A 
ATOM     21  C   UNL     1       1.378   3.734  18.595  0.00  0.00    +0.000 A 
ATOM     22  C   UNL     1       0.877   3.477  19.868  0.00  0.00    +0.000 A 
ATOM     23  C   UNL     1       1.712   2.925  20.833  0.00  0.00    +0.000 A 
ATOM     24  F   UNL     1       1.235   2.693  22.061  0.00  0.00    +0.000 F 
ATOM     25  C   UNL     1       3.037   2.618  20.545  0.00  0.00    +0.000 A 
ATOM     26  C   UNL     1       3.543   2.874  19.271  0.00  0.00    +0.000 A 
ENDBRANCH  19  20
ENDBRANCH  18  19
ENDBRANCH   4  18
TORSDOF 7
ENDMDL
MODEL 6
REMARK VINA RESULT:      -7.4      0.927      1.323
REMARK  Name = 
REMARK  7 active torsions:
REMARK  status: ('A' for Active; 'I' for Inactive)
REMARK    1  A    between atoms: N_2  and  C_4
REMARK    2  A    between atoms: C_7  and  C_8
REMARK    3  A    between atoms: C_8  and  C_9
REMARK    4  A    between atoms: C_9  and  N_10
REMARK    5  A    between atoms: N_13  and  C_14
REMARK    6  A    between atoms: C_14  and  C_15
REMARK    7  A    between atoms: C_15  and  C_16
REMARK                            x       y       z     vdW  Elec       q    Type
REMARK                         _______ _______ _______ _____ _____    ______ ____
ROOT
ATOM      1  N   UNL     1       7.406   7.038  17.169  0.00  0.00    +0.000 NA
ATOM      2  C   UNL     1       7.579   5.873  18.063  0.00  0.00    +0.000 C 
ATOM      3  C   UNL     1       6.411   5.678  19.056  0.00  0.00    +0.000 C 
ATOM      4  N   UNL     1       5.099   5.504  18.395  0.00  0.00    +0.000 NA
ATOM      5  C   UNL     1       4.892   6.648  17.470  0.00  0.00    +0.000 C 
ATOM      6  C   UNL     1       6.081   6.929  16.506  0.00  0.00    +0.000 C 
ENDROOT
BRANCH   1   7
ATOM      7  C   UNL     1       7.492   8.324  17.888  0.00  0.00    +0.000 C 
BRANCH   7   8
ATOM      8  C   UNL     1       8.536   9.295  17.319  0.00  0.00    +0.000 C 
BRANCH   8  12
ATOM      9  C   UNL     1       9.529  12.350  20.173  0.00  0.00    +0.000 A 
ATOM     10  C   UNL     1       9.194  12.709  18.861  0.00  0.00    +0.000 A 
ATOM     11  C   UNL     1       8.867  11.713  17.944  0.00  0.00    +0.000 A 
ATOM     12  C   UNL     1       8.866  10.364  18.330  0.00  0.00    +0.000 A 
ATOM     13  C   UNL     1       9.218  10.014  19.640  0.00  0.00    +0.000 A 
ATOM     14  C   UNL     1       9.547  11.005  20.565  0.00  0.00    +0.000 A 
BRANCH   9  16
ATOM     15  O   UNL     1      10.730  14.220  20.833  0.00  0.00    +0.000 OA
ATOM     16  N   UNL     1       9.861  13.394  21.147  0.00  0.00    +0.000 N 
ATOM     17  O   UNL     1       9.251  13.392  22.225  0.00  0.00    +0.000 OA
ENDBRANCH   9  16
ENDBRANCH   8  12
ENDBRANCH   7   8
ENDBRANCH   1   7
BRANCH   4  18
ATOM     18  C   UNL     1       5.011   4.238  17.641  0.00  0.00    +0.000 C 
BRANCH  18  19
ATOM     19  C   UNL     1       3.578   3.777  17.329  0.00  0.00    +0.000 C 
BRANCH  19  20
ATOM     20  C   UNL     1       2.862   3.418  18.607  0.00  0.00    +0.000 A 
ATOM     21  C   UNL     1       1.501   3.731  18.760  0.00  0.00    +0.000 A 
ATOM     22  C   UNL     1       0.855   3.472  19.966  0.00  0.00    +0.000 A 
ATOM     23  C   UNL     1       1.569   2.904  21.015  0.00  0.00    +0.000 A 
ATOM     24  F   UNL     1       0.953   2.671  22.180  0.00  0.00    +0.000 F 
ATOM     25  C   UNL     1       2.915   2.584  20.878  0.00  0.00    +0.000 A 
ATOM     26  C   UNL     1       3.566   2.841  19.672  0.00  0.00    +0.000 A 
ENDBRANCH  19  20
ENDBRANCH  18  19
ENDBRANCH   4  18
TORSDOF 7
ENDMDL
MODEL 7
REMARK VINA RESULT:      -7.4      1.275      1.662
REMARK  Name = 
REMARK  7 active torsions:
REMARK  status: ('A' for Active; 'I' for Inactive)
REMARK    1  A    between atoms: N_2  and  C_4
REMARK    2  A    between atoms: C_7  and  C_8
REMARK    3  A    between atoms: C_8  and  C_9
REMARK    4  A    between atoms: C_9  and  N_10
REMARK    5  A    between atoms: N_13  and  C_14
REMARK    6  A    between atoms: C_14  and  C_15
REMARK    7  A    between atoms: C_15  and  C_16
REMARK                            x       y       z     vdW  Elec       q    Type
REMARK                         _______ _______ _______ _____ _____    ______ ____
ROOT
ATOM      1  N   UNL     1       7.858   7.261  17.250  0.00  0.00    +0.000 NA
ATOM      2  C   UNL     1       7.997   6.214  18.286  0.00  0.00    +0.000 C 
ATOM      3  C   UNL     1       6.700   5.963  19.088  0.00  0.00    +0.000 C 
ATOM      4  N   UNL     1       5.554   5.562  18.243  0.00  0.00    +0.000 NA
ATOM      5  C   UNL     1       5.390   6.581  17.174  0.00  0.00    +0.000 C 
ATOM      6  C   UNL     1       6.693   6.923  16.394  0.00  0.00    +0.000 C 
ENDROOT
BRANCH   1   7
ATOM      7  C   UNL     1       7.673   8.607  17.825  0.00  0.00    +0.000 C 
BRANCH   7   8
ATOM      8  C   UNL     1       8.753   9.014  18.837  0.00  0.00    +0.000 C 
BRANCH   8  12
ATOM      9  C   UNL     1       9.959  13.080  18.143  0.00  0.00    +0.000 A 
ATOM     10  C   UNL     1       8.793  12.590  17.541  0.00  0.00    +0.000 A 
ATOM     11  C   UNL     1       8.405  11.273  17.777  0.00  0.00    +0.000 A 
ATOM     12  C   UNL     1       9.170  10.446  18.614  0.00  0.00    +0.000 A 
ATOM     13  C   UNL     1      10.343  10.940  19.197  0.00  0.00    +0.000 A 
ATOM     14  C   UNL     1      10.739  12.257  18.967  0.00  0.00    +0.000 A 
BRANCH   9  16
ATOM     15  O   UNL     1      11.025  14.713  16.890  0.00  0.00    +0.000 OA
ATOM     16  N   UNL     1      10.365  14.469  17.910  0.00  0.00    +0.000 N 
ATOM     17  O   UNL     1      10.021  15.318  18.745  0.00  0.00    +0.000 OA
ENDBRANCH   9  16
ENDBRANCH   8  12
ENDBRANCH   7   8
ENDBRANCH   1   7
BRANCH   4  18
ATOM     18  C   UNL     1       5.742   4.232  17.631  0.00  0.00    +0.000 C 
BRANCH  18  19
ATOM     19  C   UNL     1       4.648   3.828  16.628  0.00  0.00    +0.000 C 
BRANCH  19  20
ATOM     20  C   UNL     1       3.394   3.430  17.365  0.00  0.00    +0.000 A 
ATOM     21  C   UNL     1       2.344   4.352  17.513  0.00  0.00    +0.000 A 
ATOM     22  C   UNL     1       1.217   4.015  18.258  0.00  0.00    +0.000 A 
ATOM     23  C   UNL     1       1.142   2.762  18.855  0.00  0.00    +0.000 A 
ATOM     24  F   UNL     1       0.067   2.444  19.586  0.00  0.00    +0.000 F 
ATOM     25  C   UNL     1       2.171   1.836  18.715  0.00  0.00    +0.000 A 
ATOM     26  C   UNL     1       3.301   2.169  17.969  0.00  0.00    +0.000 A 
ENDBRANCH  19  20
ENDBRANCH  18  19
ENDBRANCH   4  18
TORSDOF 7
ENDMDL
MODEL 8
REMARK VINA RESULT:      -7.3      1.389      1.830
REMARK  Name = 
REMARK  7 active torsions:
REMARK  status: ('A' for Active; 'I' for Inactive)
REMARK    1  A    between atoms: N_2  and  C_4
REMARK    2  A    between atoms: C_7  and  C_8
REMARK    3  A    between atoms: C_8  and  C_9
REMARK    4  A    between atoms: C_9  and  N_10
REMARK    5  A    between atoms: N_13  and  C_14
REMARK    6  A    between atoms: C_14  and  C_15
REMARK    7  A    between atoms: C_15  and  C_16
REMARK                            x       y       z     vdW  Elec       q    Type
REMARK                         _______ _______ _______ _____ _____    ______ ____
ROOT
ATOM      1  N   UNL     1       8.253   6.921  17.898  0.00  0.00    +0.000 NA
ATOM      2  C   UNL     1       8.032   5.754  18.779  0.00  0.00    +0.000 C 
ATOM      3  C   UNL     1       6.569   5.610  19.258  0.00  0.00    +0.000 C 
ATOM      4  N   UNL     1       5.597   5.484  18.149  0.00  0.00    +0.000 NA
ATOM      5  C   UNL     1       5.799   6.631  17.226  0.00  0.00    +0.000 C 
ATOM      6  C   UNL     1       7.273   6.861  16.784  0.00  0.00    +0.000 C 
ENDROOT
BRANCH   1   7
ATOM      7  C   UNL     1       8.111   8.206  18.610  0.00  0.00    +0.000 C 
BRANCH   7   8
ATOM      8  C   UNL     1       8.180   9.441  17.700  0.00  0.00    +0.000 C 
BRANCH   8  12
ATOM      9  C   UNL     1      10.079  12.693  19.769  0.00  0.00    +0.000 A 
ATOM     10  C   UNL     1      10.021  11.429  20.369  0.00  0.00    +0.000 A 
ATOM     11  C   UNL     1       9.410  10.378  19.689  0.00  0.00    +0.000 A 
ATOM     12  C   UNL     1       8.862  10.581  18.413  0.00  0.00    +0.000 A 
ATOM     13  C   UNL     1       8.910  11.853  17.828  0.00  0.00    +0.000 A 
ATOM     14  C   UNL     1       9.520  12.910  18.502  0.00  0.00    +0.000 A 
BRANCH   9  16
ATOM     15  O   UNL     1      10.318  14.088  21.606  0.00  0.00    +0.000 OA
ATOM     16  N   UNL     1      10.732  13.800  20.474  0.00  0.00    +0.000 N 
ATOM     17  O   UNL     1      11.664  14.379  19.898  0.00  0.00    +0.000 OA
ENDBRANCH   9  16
ENDBRANCH   8  12
ENDBRANCH   7   8
ENDBRANCH   1   7
BRANCH   4  18
ATOM     18  C   UNL     1       5.752   4.219  17.404  0.00  0.00    +0.000 C 
BRANCH  18  19
ATOM     19  C   UNL     1       4.557   3.853  16.509  0.00  0.00    +0.000 C 
BRANCH  19  20
ATOM     20  C   UNL     1       3.368   3.486  17.362  0.00  0.00    +0.000 A 
ATOM     21  C   UNL     1       3.256   2.187  17.888  0.00  0.00    +0.000 A 
ATOM     22  C   UNL     1       2.123   1.821  18.611  0.00  0.00    +0.000 A 
ATOM     23  C   UNL     1       1.106   2.749  18.804  0.00  0.00    +0.000 A 
ATOM     24  F   UNL     1       0.010   2.391  19.484  0.00  0.00    +0.000 F 
ATOM     25  C   UNL     1       1.204   4.039  18.294  0.00  0.00    +0.000 A 
ATOM     26  C   UNL     1       2.336   4.410  17.570  0.00  0.00    +0.000 A 
ENDBRANCH  19  20
ENDBRANCH  18  19
ENDBRANCH   4  18
TORSDOF 7
ENDMDL
MODEL 9
REMARK VINA RESULT:      -7.2      1.346      2.114
REMARK  Name = 
REMARK  7 active torsions:
REMARK  status: ('A' for Active; 'I' for Inactive)
REMARK    1  A    between atoms: N_2  and  C_4
REMARK    2  A    between atoms: C_7  and  C_8
REMARK    3  A    between atoms: C_8  and  C_9
REMARK    4  A    between atoms: C_9  and  N_10
REMARK    5  A    between atoms: N_13  and  C_14
REMARK    6  A    between atoms: C_14  and  C_15
REMARK    7  A    between atoms: C_15  and  C_16
REMARK                            x       y       z     vdW  Elec       q    Type
REMARK                         _______ _______ _______ _____ _____    ______ ____
ROOT
ATOM      1  N   UNL     1       6.975   6.683  18.485  0.00  0.00    +0.000 NA
ATOM      2  C   UNL     1       5.840   6.669  17.536  0.00  0.00    +0.000 C 
ATOM      3  C   UNL     1       6.163   5.968  16.197  0.00  0.00    +0.000 C 
ATOM      4  N   UNL     1       6.587   4.560  16.358  0.00  0.00    +0.000 NA
ATOM      5  C   UNL     1       7.718   4.526  17.321  0.00  0.00    +0.000 C 
ATOM      6  C   UNL     1       7.464   5.290  18.652  0.00  0.00    +0.000 C 
ENDROOT
BRANCH   1   7
ATOM      7  C   UNL     1       8.085   7.543  18.030  0.00  0.00    +0.000 C 
BRANCH   7   8
ATOM      8  C   UNL     1       7.653   8.945  17.580  0.00  0.00    +0.000 C 
BRANCH   8  12
ATOM      9  C   UNL     1      10.079  11.938  19.480  0.00  0.00    +0.000 A 
ATOM     10  C   UNL     1       9.456  12.224  18.258  0.00  0.00    +0.000 A 
ATOM     11  C   UNL     1       8.666  11.250  17.652  0.00  0.00    +0.000 A 
ATOM     12  C   UNL     1       8.489   9.998  18.261  0.00  0.00    +0.000 A 
ATOM     13  C   UNL     1       9.130   9.716  19.474  0.00  0.00    +0.000 A 
ATOM     14  C   UNL     1       9.924  10.686  20.088  0.00  0.00    +0.000 A 
BRANCH   9  16
ATOM     15  O   UNL     1      10.413  13.572  21.091  0.00  0.00    +0.000 OA
ATOM     16  N   UNL     1      10.902  12.963  20.129  0.00  0.00    +0.000 N 
ATOM     17  O   UNL     1      12.041  13.158  19.680  0.00  0.00    +0.000 OA
ENDBRANCH   9  16
ENDBRANCH   8  12
ENDBRANCH   7   8
ENDBRANCH   1   7
BRANCH   4  18
ATOM     18  C   UNL     1       5.496   3.694  16.847  0.00  0.00    +0.000 C 
BRANCH  18  19
ATOM     19  C   UNL     1       4.085   4.152  16.443  0.00  0.00    +0.000 C 
BRANCH  19  20
ATOM     20  C   UNL     1       3.093   3.770  17.513  0.00  0.00    +0.000 A 
ATOM     21  C   UNL     1       2.379   4.769  18.197  0.00  0.00    +0.000 A 
ATOM     22  C   UNL     1       1.519   4.426  19.237  0.00  0.00    +0.000 A 
ATOM     23  C   UNL     1       1.377   3.090  19.594  0.00  0.00    +0.000 A 
ATOM     24  F   UNL     1       0.564   2.762  20.605  0.00  0.00    +0.000 F 
ATOM     25  C   UNL     1       2.072   2.090  18.924  0.00  0.00    +0.000 A 
ATOM     26  C   UNL     1       2.934   2.428  17.881  0.00  0.00    +0.000 A 
ENDBRANCH  19  20
ENDBRANCH  18  19
ENDBRANCH   4  18
TORSDOF 7
ENDMDL
