MODEL 1
REMARK VINA RESULT:      -6.2      0.000      0.000
REMARK  Name = 
REMARK  9 active torsions:
REMARK  status: ('A' for Active; 'I' for Inactive)
REMARK    1  A    between atoms: C_1  and  C_2
REMARK    2  A    between atoms: C_2  and  C_3
REMARK    3  A    between atoms: C_2  and  N_4
REMARK    4  A    between atoms: N_4  and  C_5
REMARK    5  A    between atoms: C_5  and  C_6
REMARK    6  A    between atoms: C_6  and  O_7
REMARK    7  A    between atoms: C_6  and  C_8
REMARK    8  A    between atoms: C_12  and  O_13
REMARK    9  A    between atoms: C_14  and  O_15
REMARK                            x       y       z     vdW  Elec       q    Type
REMARK                         _______ _______ _______ _____ _____    ______ ____
ROOT
ATOM      1  C   UNL     1       3.020   3.452  18.807  0.00  0.00    +0.000 A 
ATOM      2  C   UNL     1       1.705   3.946  18.793  0.00  0.00    +0.000 A 
ATOM      3  C   UNL     1       0.870   3.804  19.909  0.00  0.00    +0.000 A 
ATOM      4  C   UNL     1       1.330   3.168  21.064  0.00  0.00    +0.000 A 
ATOM      5  C   UNL     1       2.626   2.671  21.082  0.00  0.00    +0.000 A 
ATOM      6  C   UNL     1       3.453   2.805  19.966  0.00  0.00    +0.000 A 
ENDROOT
BRANCH   5   7
ATOM      7  O   UNL     1       3.144   2.036  22.176  0.00  0.00    +0.000 OA
ATOM      8  H   UNL     1       4.106   2.192  22.188  0.00  0.00    +0.000 HD
ENDBRANCH   5   7
BRANCH   6   9
ATOM      9  O   UNL     1       4.710   2.263  20.022  0.00  0.00    +0.000 OA
ATOM     10  H   UNL     1       4.587   1.331  19.744  0.00  0.00    +0.000 HD
ENDBRANCH   6   9
BRANCH   1  11
ATOM     11  C   UNL     1       3.922   3.646  17.601  0.00  0.00    +0.000 C 
BRANCH  11  12
ATOM     12  O   UNL     1       4.565   2.411  17.267  0.00  0.00    +0.000 OA
ATOM     13  H   UNL     1       5.128   2.608  16.496  0.00  0.00    +0.000 HD
ENDBRANCH  11  12
BRANCH  11  14
ATOM     14  C   UNL     1       4.987   4.747  17.851  0.00  0.00    +0.000 C 
BRANCH  14  15
ATOM     15  N   UNL     1       6.302   4.180  18.208  0.00  0.00    +0.000 NA
ATOM     16  H   UNL     1       6.419   4.301  19.219  0.00  0.00    +0.000 HD
BRANCH  15  18
ATOM     17  C   UNL     1       7.154   4.714  15.985  0.00  0.00    +0.000 C 
ATOM     18  C   UNL     1       7.409   4.826  17.490  0.00  0.00    +0.000 C 
ATOM     19  C   UNL     1       7.552   6.301  17.874  0.00  0.00    +0.000 C 
ENDBRANCH  15  18
ENDBRANCH  14  15
ENDBRANCH  11  14
ENDBRANCH   1  11
TORSDOF 7
ENDMDL
MODEL 2
REMARK VINA RESULT:      -6.2      3.566      5.155
REMARK  Name = 
REMARK  9 active torsions:
REMARK  status: ('A' for Active; 'I' for Inactive)
REMARK    1  A    between atoms: C_1  and  C_2
REMARK    2  A    between atoms: C_2  and  C_3
REMARK    3  A    between atoms: C_2  and  N_4
REMARK    4  A    between atoms: N_4  and  C_5
REMARK    5  A    between atoms: C_5  and  C_6
REMARK    6  A    between atoms: C_6  and  O_7
REMARK    7  A    between atoms: C_6  and  C_8
REMARK    8  A    between atoms: C_12  and  O_13
REMARK    9  A    between atoms: C_14  and  O_15
REMARK                            x       y       z     vdW  Elec       q    Type
REMARK                         _______ _______ _______ _____ _____    ______ ____
ROOT
ATOM      1  C   UNL     1       6.155   4.663  16.381  0.00  0.00    +0.000 A 
ATOM      2  C   UNL     1       4.819   5.099  16.404  0.00  0.00    +0.000 A 
ATOM      3  C   UNL     1       4.216   5.509  17.601  0.00  0.00    +0.000 A 
ATOM      4  C   UNL     1       4.932   5.495  18.799  0.00  0.00    +0.000 A 
ATOM      5  C   UNL     1       6.250   5.058  18.785  0.00  0.00    +0.000 A 
ATOM      6  C   UNL     1       6.847   4.641  17.594  0.00  0.00    +0.000 A 
ENDROOT
BRANCH   5   7
ATOM      7  O   UNL     1       7.013   5.015  19.919  0.00  0.00    +0.000 OA
ATOM      8  H   UNL     1       7.949   4.985  19.651  0.00  0.00    +0.000 HD
ENDBRANCH   5   7
BRANCH   6   9
ATOM      9  O   UNL     1       8.137   4.183  17.640  0.00  0.00    +0.000 OA
ATOM     10  H   UNL     1       8.408   4.123  16.699  0.00  0.00    +0.000 HD
ENDBRANCH   6   9
BRANCH   1  11
ATOM     11  C   UNL     1       6.802   4.256  15.070  0.00  0.00    +0.000 C 
BRANCH  11  12
ATOM     12  O   UNL     1       7.727   5.265  14.646  0.00  0.00    +0.000 OA
ATOM     13  H   UNL     1       8.581   4.808  14.536  0.00  0.00    +0.000 HD
ENDBRANCH  11  12
BRANCH  11  14
ATOM     14  C   UNL     1       5.746   4.005  13.961  0.00  0.00    +0.000 C 
BRANCH  14  15
ATOM     15  N   UNL     1       6.351   3.473  12.725  0.00  0.00    +0.000 NA
ATOM     16  H   UNL     1       6.516   4.270  12.101  0.00  0.00    +0.000 HD
BRANCH  15  18
ATOM     17  C   UNL     1       4.401   3.212  11.282  0.00  0.00    +0.000 C 
ATOM     18  C   UNL     1       5.497   2.479  12.060  0.00  0.00    +0.000 C 
ATOM     19  C   UNL     1       6.296   1.592  11.102  0.00  0.00    +0.000 C 
ENDBRANCH  15  18
ENDBRANCH  14  15
ENDBRANCH  11  14
ENDBRANCH   1  11
TORSDOF 7
ENDMDL
MODEL 3
REMARK VINA RESULT:      -6.1      2.078      5.545
REMARK  Name = 
REMARK  9 active torsions:
REMARK  status: ('A' for Active; 'I' for Inactive)
REMARK    1  A    between atoms: C_1  and  C_2
REMARK    2  A    between atoms: C_2  and  C_3
REMARK    3  A    between atoms: C_2  and  N_4
REMARK    4  A    between atoms: N_4  and  C_5
REMARK    5  A    between atoms: C_5  and  C_6
REMARK    6  A    between atoms: C_6  and  O_7
REMARK    7  A    between atoms: C_6  and  C_8
REMARK    8  A    between atoms: C_12  and  O_13
REMARK    9  A    between atoms: C_14  and  O_15
REMARK                            x       y       z     vdW  Elec       q    Type
REMARK                         _______ _______ _______ _____ _____    ______ ____
ROOT
ATOM      1  C   UNL     1       4.797   4.775  17.056  0.00  0.00    +0.000 A 
ATOM      2  C   UNL     1       4.871   5.198  15.719  0.00  0.00    +0.000 A 
ATOM      3  C   UNL     1       6.098   5.234  15.042  0.00  0.00    +0.000 A 
ATOM      4  C   UNL     1       7.276   4.847  15.683  0.00  0.00    +0.000 A 
ATOM      5  C   UNL     1       7.211   4.436  17.008  0.00  0.00    +0.000 A 
ATOM      6  C   UNL     1       5.990   4.409  17.684  0.00  0.00    +0.000 A 
ENDROOT
BRANCH   5   7
ATOM      7  O   UNL     1       8.322   4.044  17.702  0.00  0.00    +0.000 OA
ATOM      8  H   UNL     1       8.542   3.135  17.430  0.00  0.00    +0.000 HD
ENDBRANCH   5   7
BRANCH   6   9
ATOM      9  O   UNL     1       5.985   4.031  19.001  0.00  0.00    +0.000 OA
ATOM     10  H   UNL     1       5.034   3.973  19.235  0.00  0.00    +0.000 HD
ENDBRANCH   6   9
BRANCH   1  11
ATOM     11  C   UNL     1       3.455   4.709  17.763  0.00  0.00    +0.000 C 
BRANCH  11  12
ATOM     12  O   UNL     1       3.560   5.290  19.069  0.00  0.00    +0.000 OA
ATOM     13  H   UNL     1       3.084   6.140  19.016  0.00  0.00    +0.000 HD
ENDBRANCH  11  12
BRANCH  11  14
ATOM     14  C   UNL     1       2.935   3.250  17.873  0.00  0.00    +0.000 C 
BRANCH  14  15
ATOM     15  N   UNL     1       3.095   2.703  19.235  0.00  0.00    +0.000 NA
ATOM     16  H   UNL     1       3.740   1.910  19.167  0.00  0.00    +0.000 HD
BRANCH  15  18
ATOM     17  C   UNL     1       1.568   3.068  21.103  0.00  0.00    +0.000 C 
ATOM     18  C   UNL     1       1.820   2.269  19.822  0.00  0.00    +0.000 C 
ATOM     19  C   UNL     1       0.650   2.473  18.856  0.00  0.00    +0.000 C 
ENDBRANCH  15  18
ENDBRANCH  14  15
ENDBRANCH  11  14
ENDBRANCH   1  11
TORSDOF 7
ENDMDL
MODEL 4
REMARK VINA RESULT:      -6.1      1.678      2.003
REMARK  Name = 
REMARK  9 active torsions:
REMARK  status: ('A' for Active; 'I' for Inactive)
REMARK    1  A    between atoms: C_1  and  C_2
REMARK    2  A    between atoms: C_2  and  C_3
REMARK    3  A    between atoms: C_2  and  N_4
REMARK    4  A    between atoms: N_4  and  C_5
REMARK    5  A    between atoms: C_5  and  C_6
REMARK    6  A    between atoms: C_6  and  O_7
REMARK    7  A    between atoms: C_6  and  C_8
REMARK    8  A    between atoms: C_12  and  O_13
REMARK    9  A    between atoms: C_14  and  O_15
REMARK                            x       y       z     vdW  Elec       q    Type
REMARK                         _______ _______ _______ _____ _____    ______ ____
ROOT
ATOM      1  C   UNL     1       3.005   4.761  19.175  0.00  0.00    +0.000 A 
ATOM      2  C   UNL     1       2.172   5.163  20.232  0.00  0.00    +0.000 A 
ATOM      3  C   UNL     1       1.134   4.336  20.684  0.00  0.00    +0.000 A 
ATOM      4  C   UNL     1       0.906   3.093  20.092  0.00  0.00    +0.000 A 
ATOM      5  C   UNL     1       1.721   2.694  19.041  0.00  0.00    +0.000 A 
ATOM      6  C   UNL     1       2.749   3.521  18.587  0.00  0.00    +0.000 A 
ENDROOT
BRANCH   5   7
ATOM      7  O   UNL     1       1.558   1.491  18.412  0.00  0.00    +0.000 OA
ATOM      8  H   UNL     1       0.701   1.507  17.949  0.00  0.00    +0.000 HD
ENDBRANCH   5   7
BRANCH   6   9
ATOM      9  O   UNL     1       3.501   3.097  17.523  0.00  0.00    +0.000 OA
ATOM     10  H   UNL     1       2.856   3.008  16.789  0.00  0.00    +0.000 HD
ENDBRANCH   6   9
BRANCH   1  11
ATOM     11  C   UNL     1       4.147   5.654  18.722  0.00  0.00    +0.000 C 
BRANCH  11  12
ATOM     12  O   UNL     1       4.196   5.698  17.291  0.00  0.00    +0.000 OA
ATOM     13  H   UNL     1       3.854   4.836  16.990  0.00  0.00    +0.000 HD
ENDBRANCH  11  12
BRANCH  11  14
ATOM     14  C   UNL     1       5.511   5.171  19.285  0.00  0.00    +0.000 C 
BRANCH  14  15
ATOM     15  N   UNL     1       6.166   4.192  18.395  0.00  0.00    +0.000 NA
ATOM     16  H   UNL     1       6.371   3.361  18.958  0.00  0.00    +0.000 HD
BRANCH  15  18
ATOM     17  C   UNL     1       7.279   4.642  16.271  0.00  0.00    +0.000 C 
ATOM     18  C   UNL     1       7.402   4.713  17.795  0.00  0.00    +0.000 C 
ATOM     19  C   UNL     1       7.674   6.159  18.217  0.00  0.00    +0.000 C 
ENDBRANCH  15  18
ENDBRANCH  14  15
ENDBRANCH  11  14
ENDBRANCH   1  11
TORSDOF 7
ENDMDL
MODEL 5
REMARK VINA RESULT:      -6.0      1.632      1.909
REMARK  Name = 
REMARK  9 active torsions:
REMARK  status: ('A' for Active; 'I' for Inactive)
REMARK    1  A    between atoms: C_1  and  C_2
REMARK    2  A    between atoms: C_2  and  C_3
REMARK    3  A    between atoms: C_2  and  N_4
REMARK    4  A    between atoms: N_4  and  C_5
REMARK    5  A    between atoms: C_5  and  C_6
REMARK    6  A    between atoms: C_6  and  O_7
REMARK    7  A    between atoms: C_6  and  C_8
REMARK    8  A    between atoms: C_12  and  O_13
REMARK    9  A    between atoms: C_14  and  O_15
REMARK                            x       y       z     vdW  Elec       q    Type
REMARK                         _______ _______ _______ _____ _____    ______ ____
ROOT
ATOM      1  C   UNL     1       3.339   3.777  19.356  0.00  0.00    +0.000 A 
ATOM      2  C   UNL     1       3.139   4.989  20.038  0.00  0.00    +0.000 A 
ATOM      3  C   UNL     1       1.880   5.325  20.554  0.00  0.00    +0.000 A 
ATOM      4  C   UNL     1       0.796   4.460  20.403  0.00  0.00    +0.000 A 
ATOM      5  C   UNL     1       0.985   3.264  19.723  0.00  0.00    +0.000 A 
ATOM      6  C   UNL     1       2.237   2.935  19.201  0.00  0.00    +0.000 A 
ENDROOT
BRANCH   5   7
ATOM      7  O   UNL     1      -0.030   2.368  19.535  0.00  0.00    +0.000 OA
ATOM      8  H   UNL     1      -0.750   2.823  19.061  0.00  0.00    +0.000 HD
ENDBRANCH   5   7
BRANCH   6   9
ATOM      9  O   UNL     1       2.362   1.761  18.506  0.00  0.00    +0.000 OA
ATOM     10  H   UNL     1       1.516   1.675  18.017  0.00  0.00    +0.000 HD
ENDBRANCH   6   9
BRANCH   1  11
ATOM     11  C   UNL     1       4.718   3.414  18.834  0.00  0.00    +0.000 C 
BRANCH  11  12
ATOM     12  O   UNL     1       5.251   2.314  19.582  0.00  0.00    +0.000 OA
ATOM     13  H   UNL     1       6.220   2.407  19.529  0.00  0.00    +0.000 HD
ENDBRANCH  11  12
BRANCH  11  14
ATOM     14  C   UNL     1       5.693   4.620  18.897  0.00  0.00    +0.000 C 
BRANCH  14  15
ATOM     15  N   UNL     1       7.039   4.275  18.399  0.00  0.00    +0.000 NA
ATOM     16  H   UNL     1       7.695   4.429  19.171  0.00  0.00    +0.000 HD
BRANCH  15  18
ATOM     17  C   UNL     1       6.752   4.507  15.987  0.00  0.00    +0.000 C 
ATOM     18  C   UNL     1       7.432   5.079  17.234  0.00  0.00    +0.000 C 
ATOM     19  C   UNL     1       7.041   6.549  17.398  0.00  0.00    +0.000 C 
ENDBRANCH  15  18
ENDBRANCH  14  15
ENDBRANCH  11  14
ENDBRANCH   1  11
TORSDOF 7
ENDMDL
MODEL 6
REMARK VINA RESULT:      -6.0      2.163      5.569
REMARK  Name = 
REMARK  9 active torsions:
REMARK  status: ('A' for Active; 'I' for Inactive)
REMARK    1  A    between atoms: C_1  and  C_2
REMARK    2  A    between atoms: C_2  and  C_3
REMARK    3  A    between atoms: C_2  and  N_4
REMARK    4  A    between atoms: N_4  and  C_5
REMARK    5  A    between atoms: C_5  and  C_6
REMARK    6  A    between atoms: C_6  and  O_7
REMARK    7  A    between atoms: C_6  and  C_8
REMARK    8  A    between atoms: C_12  and  O_13
REMARK    9  A    between atoms: C_14  and  O_15
REMARK                            x       y       z     vdW  Elec       q    Type
REMARK                         _______ _______ _______ _____ _____    ______ ____
ROOT
ATOM      1  C   UNL     1       4.878   5.140  17.173  0.00  0.00    +0.000 A 
ATOM      2  C   UNL     1       4.943   5.432  15.801  0.00  0.00    +0.000 A 
ATOM      3  C   UNL     1       6.133   5.254  15.082  0.00  0.00    +0.000 A 
ATOM      4  C   UNL     1       7.282   4.779  15.716  0.00  0.00    +0.000 A 
ATOM      5  C   UNL     1       7.227   4.496  17.074  0.00  0.00    +0.000 A 
ATOM      6  C   UNL     1       6.044   4.683  17.791  0.00  0.00    +0.000 A 
ENDROOT
BRANCH   5   7
ATOM      7  O   UNL     1       8.312   4.030  17.763  0.00  0.00    +0.000 OA
ATOM      8  H   UNL     1       8.265   4.377  18.672  0.00  0.00    +0.000 HD
ENDBRANCH   5   7
BRANCH   6   9
ATOM      9  O   UNL     1       6.053   4.425  19.137  0.00  0.00    +0.000 OA
ATOM     10  H   UNL     1       5.113   4.252  19.358  0.00  0.00    +0.000 HD
ENDBRANCH   6   9
BRANCH   1  11
ATOM     11  C   UNL     1       3.572   5.306  17.928  0.00  0.00    +0.000 C 
BRANCH  11  12
ATOM     12  O   UNL     1       3.807   5.973  19.174  0.00  0.00    +0.000 OA
ATOM     13  H   UNL     1       2.968   5.913  19.667  0.00  0.00    +0.000 HD
ENDBRANCH  11  12
BRANCH  11  14
ATOM     14  C   UNL     1       2.877   3.941  18.182  0.00  0.00    +0.000 C 
BRANCH  14  15
ATOM     15  N   UNL     1       2.868   3.577  19.612  0.00  0.00    +0.000 NA
ATOM     16  H   UNL     1       3.401   2.707  19.705  0.00  0.00    +0.000 HD
BRANCH  15  18
ATOM     17  C   UNL     1       0.706   2.542  19.156  0.00  0.00    +0.000 C 
ATOM     18  C   UNL     1       1.509   3.397  20.140  0.00  0.00    +0.000 C 
ATOM     19  C   UNL     1       1.517   2.721  21.513  0.00  0.00    +0.000 C 
ENDBRANCH  15  18
ENDBRANCH  14  15
ENDBRANCH  11  14
ENDBRANCH   1  11
TORSDOF 7
ENDMDL
MODEL 7
REMARK VINA RESULT:      -5.9      1.928      2.817
REMARK  Name = 
REMARK  9 active torsions:
REMARK  status: ('A' for Active; 'I' for Inactive)
REMARK    1  A    between atoms: C_1  and  C_2
REMARK    2  A    between atoms: C_2  and  C_3
REMARK    3  A    between atoms: C_2  and  N_4
REMARK    4  A    between atoms: N_4  and  C_5
REMARK    5  A    between atoms: C_5  and  C_6
REMARK    6  A    between atoms: C_6  and  O_7
REMARK    7  A    between atoms: C_6  and  C_8
REMARK    8  A    between atoms: C_12  and  O_13
REMARK    9  A    between atoms: C_14  and  O_15
REMARK                            x       y       z     vdW  Elec       q    Type
REMARK                         _______ _______ _______ _____ _____    ______ ____
ROOT
ATOM      1  C   UNL     1       4.273   4.127  18.413  0.00  0.00    +0.000 A 
ATOM      2  C   UNL     1       3.489   5.274  18.204  0.00  0.00    +0.000 A 
ATOM      3  C   UNL     1       2.098   5.178  18.058  0.00  0.00    +0.000 A 
ATOM      4  C   UNL     1       1.460   3.938  18.119  0.00  0.00    +0.000 A 
ATOM      5  C   UNL     1       2.231   2.800  18.317  0.00  0.00    +0.000 A 
ATOM      6  C   UNL     1       3.616   2.895  18.454  0.00  0.00    +0.000 A 
ENDROOT
BRANCH   5   7
ATOM      7  O   UNL     1       1.677   1.551  18.386  0.00  0.00    +0.000 OA
ATOM      8  H   UNL     1       1.061   1.536  19.141  0.00  0.00    +0.000 HD
ENDBRANCH   5   7
BRANCH   6   9
ATOM      9  O   UNL     1       4.334   1.739  18.610  0.00  0.00    +0.000 OA
ATOM     10  H   UNL     1       4.559   1.466  17.695  0.00  0.00    +0.000 HD
ENDBRANCH   6   9
BRANCH   1  11
ATOM     11  C   UNL     1       5.773   4.253  18.605  0.00  0.00    +0.000 C 
BRANCH  11  12
ATOM     12  O   UNL     1       6.056   5.124  19.707  0.00  0.00    +0.000 OA
ATOM     13  H   UNL     1       6.978   5.415  19.582  0.00  0.00    +0.000 HD
ENDBRANCH  11  12
BRANCH  11  14
ATOM     14  C   UNL     1       6.475   4.776  17.323  0.00  0.00    +0.000 C 
BRANCH  14  15
ATOM     15  N   UNL     1       6.386   3.814  16.207  0.00  0.00    +0.000 NA
ATOM     16  H   UNL     1       7.341   3.649  15.874  0.00  0.00    +0.000 HD
BRANCH  15  18
ATOM     17  C   UNL     1       5.462   5.829  15.187  0.00  0.00    +0.000 C 
ATOM     18  C   UNL     1       5.545   4.303  15.106  0.00  0.00    +0.000 C 
ATOM     19  C   UNL     1       6.102   3.895  13.740  0.00  0.00    +0.000 C 
ENDBRANCH  15  18
ENDBRANCH  14  15
ENDBRANCH  11  14
ENDBRANCH   1  11
TORSDOF 7
ENDMDL
MODEL 8
REMARK VINA RESULT:      -5.9      2.293      5.367
REMARK  Name = 
REMARK  9 active torsions:
REMARK  status: ('A' for Active; 'I' for Inactive)
REMARK    1  A    between atoms: C_1  and  C_2
REMARK    2  A    between atoms: C_2  and  C_3
REMARK    3  A    between atoms: C_2  and  N_4
REMARK    4  A    between atoms: N_4  and  C_5
REMARK    5  A    between atoms: C_5  and  C_6
REMARK    6  A    between atoms: C_6  and  O_7
REMARK    7  A    between atoms: C_6  and  C_8
REMARK    8  A    between atoms: C_12  and  O_13
REMARK    9  A    between atoms: C_14  and  O_15
REMARK                            x       y       z     vdW  Elec       q    Type
REMARK                         _______ _______ _______ _____ _____    ______ ____
ROOT
ATOM      1  C   UNL     1       5.226   4.268  18.001  0.00  0.00    +0.000 A 
ATOM      2  C   UNL     1       5.024   4.370  16.615  0.00  0.00    +0.000 A 
ATOM      3  C   UNL     1       5.804   5.235  15.835  0.00  0.00    +0.000 A 
ATOM      4  C   UNL     1       6.803   6.015  16.421  0.00  0.00    +0.000 A 
ATOM      5  C   UNL     1       7.002   5.925  17.792  0.00  0.00    +0.000 A 
ATOM      6  C   UNL     1       6.219   5.071  18.569  0.00  0.00    +0.000 A 
ENDROOT
BRANCH   5   7
ATOM      7  O   UNL     1       7.959   6.659  18.436  0.00  0.00    +0.000 OA
ATOM      8  H   UNL     1       8.247   6.158  19.220  0.00  0.00    +0.000 HD
ENDBRANCH   5   7
BRANCH   6   9
ATOM      9  O   UNL     1       6.430   5.047  19.923  0.00  0.00    +0.000 OA
ATOM     10  H   UNL     1       7.228   5.602  20.055  0.00  0.00    +0.000 HD
ENDBRANCH   6   9
BRANCH   1  11
ATOM     11  C   UNL     1       4.396   3.301  18.825  0.00  0.00    +0.000 C 
BRANCH  11  12
ATOM     12  O   UNL     1       5.254   2.454  19.599  0.00  0.00    +0.000 OA
ATOM     13  H   UNL     1       4.752   2.239  20.407  0.00  0.00    +0.000 HD
ENDBRANCH  11  12
BRANCH  11  14
ATOM     14  C   UNL     1       3.466   2.437  17.932  0.00  0.00    +0.000 C 
BRANCH  14  15
ATOM     15  N   UNL     1       2.316   1.896  18.683  0.00  0.00    +0.000 NA
ATOM     16  H   UNL     1       2.066   1.001  18.250  0.00  0.00    +0.000 HD
BRANCH  15  18
ATOM     17  C   UNL     1       0.883   3.265  20.106  0.00  0.00    +0.000 C 
ATOM     18  C   UNL     1       1.160   2.802  18.674  0.00  0.00    +0.000 C 
ATOM     19  C   UNL     1       1.400   4.022  17.781  0.00  0.00    +0.000 C 
ENDBRANCH  15  18
ENDBRANCH  14  15
ENDBRANCH  11  14
ENDBRANCH   1  11
TORSDOF 7
ENDMDL
MODEL 9
REMARK VINA RESULT:      -5.9      2.480      5.439
REMARK  Name = 
REMARK  9 active torsions:
REMARK  status: ('A' for Active; 'I' for Inactive)
REMARK    1  A    between atoms: C_1  and  C_2
REMARK    2  A    between atoms: C_2  and  C_3
REMARK    3  A    between atoms: C_2  and  N_4
REMARK    4  A    between atoms: N_4  and  C_5
REMARK    5  A    between atoms: C_5  and  C_6
REMARK    6  A    between atoms: C_6  and  O_7
REMARK    7  A    between atoms: C_6  and  C_8
REMARK    8  A    between atoms: C_12  and  O_13
REMARK    9  A    between atoms: C_14  and  O_15
REMARK                            x       y       z     vdW  Elec       q    Type
REMARK                         _______ _______ _______ _____ _____    ______ ____
ROOT
ATOM      1  C   UNL     1       4.195   4.364  17.254  0.00  0.00    +0.000 A 
ATOM      2  C   UNL     1       3.666   5.587  17.700  0.00  0.00    +0.000 A 
ATOM      3  C   UNL     1       4.318   6.797  17.426  0.00  0.00    +0.000 A 
ATOM      4  C   UNL     1       5.510   6.813  16.700  0.00  0.00    +0.000 A 
ATOM      5  C   UNL     1       6.043   5.607  16.263  0.00  0.00    +0.000 A 
ATOM      6  C   UNL     1       5.397   4.403  16.545  0.00  0.00    +0.000 A 
ENDROOT
BRANCH   5   7
ATOM      7  O   UNL     1       7.207   5.545  15.549  0.00  0.00    +0.000 OA
ATOM      8  H   UNL     1       7.183   4.737  15.004  0.00  0.00    +0.000 HD
ENDBRANCH   5   7
BRANCH   6   9
ATOM      9  O   UNL     1       5.984   3.238  16.125  0.00  0.00    +0.000 OA
ATOM     10  H   UNL     1       6.899   3.286  16.474  0.00  0.00    +0.000 HD
ENDBRANCH   6   9
BRANCH   1  11
ATOM     11  C   UNL     1       3.457   3.067  17.531  0.00  0.00    +0.000 C 
BRANCH  11  12
ATOM     12  O   UNL     1       2.152   3.110  16.941  0.00  0.00    +0.000 OA
ATOM     13  H   UNL     1       2.031   4.029  16.638  0.00  0.00    +0.000 HD
ENDBRANCH  11  12
BRANCH  11  14
ATOM     14  C   UNL     1       3.341   2.784  19.053  0.00  0.00    +0.000 C 
BRANCH  14  15
ATOM     15  N   UNL     1       2.085   2.091  19.397  0.00  0.00    +0.000 NA
ATOM     16  H   UNL     1       1.498   2.094  18.556  0.00  0.00    +0.000 HD
BRANCH  15  18
ATOM     17  C   UNL     1       2.269   2.699  21.752  0.00  0.00    +0.000 C 
ATOM     18  C   UNL     1       1.374   2.731  20.511  0.00  0.00    +0.000 C 
ATOM     19  C   UNL     1       0.999   4.180  20.190  0.00  0.00    +0.000 C 
ENDBRANCH  15  18
ENDBRANCH  14  15
ENDBRANCH  11  14
ENDBRANCH   1  11
TORSDOF 7
ENDMDL
