MODEL 1
REMARK VINA RESULT:      -7.8      0.000      0.000
REMARK  Name = 
REMARK  15 active torsions:
REMARK  status: ('A' for Active; 'I' for Inactive)
REMARK    1  A    between atoms: C_1  and  C_2
REMARK    2  A    between atoms: C_2  and  C_3
REMARK    3  A    between atoms: C_3  and  C_4
REMARK    4  A    between atoms: C_5  and  C_6
REMARK    5  A    between atoms: C_5  and  C_9
REMARK    6  A    between atoms: C_6  and  C_7
REMARK    7  A    between atoms: C_7  and  C_8
REMARK    8  A    between atoms: C_9  and  N_10
REMARK    9  A    between atoms: C_9  and  C_26
REMARK   10  A    between atoms: N_10  and  S_11
REMARK   11  A    between atoms: S_11  and  C_14
REMARK   12  A    between atoms: C_17  and  C_18
REMARK   13  A    between atoms: C_29  and  C_30
REMARK   14  A    between atoms: C_30  and  O_32
REMARK   15  A    between atoms: O_32  and  C_33
REMARK                            x       y       z     vdW  Elec       q    Type
REMARK                         _______ _______ _______ _____ _____    ______ ____
ROOT
ATOM      1  C   UNL     1       4.502   5.257  18.555  0.00  0.00    +0.000 C 
ENDROOT
BRANCH   1   2
ATOM      2  C   UNL     1       3.435   6.372  18.705  0.00  0.00    +0.000 A 
ATOM      3  C   UNL     1       3.231   7.307  17.686  0.00  0.00    +0.000 A 
ATOM      4  C   UNL     1       2.497   8.463  17.882  0.00  0.00    +0.000 A 
ATOM      5  C   UNL     1       1.746   8.653  19.035  0.00  0.00    +0.000 A 
ATOM      6  C   UNL     1       1.756   7.643  20.003  0.00  0.00    +0.000 A 
ATOM      7  C   UNL     1       2.599   6.507  19.834  0.00  0.00    +0.000 A 
BRANCH   5   8
ATOM      8  C   UNL     1       1.009   9.953  19.037  0.00  0.00    +0.000 C 
ATOM      9  O   UNL     1       1.239  10.790  19.906  0.00  0.00    +0.000 OA
BRANCH   8  10
ATOM     10  O   UNL     1       0.026  10.068  18.128  0.00  0.00    +0.000 OA
ATOM     11  C   UNL     1      -0.934  11.072  18.504  0.00  0.00    +0.000 C 
ENDBRANCH   8  10
ENDBRANCH   5   8
ENDBRANCH   1   2
BRANCH   1  13
ATOM     12  C   UNL     1       3.389   3.100  17.860  0.00  0.00    +0.000 C 
ATOM     13  C   UNL     1       4.042   3.791  18.818  0.00  0.00    +0.000 C 
BRANCH  12  14
ATOM     14  C   UNL     1       2.564   1.852  17.918  0.00  0.00    +0.000 C 
BRANCH  14  16
ATOM     15  C   UNL     1       0.797   3.559  18.479  0.00  0.00    +0.000 C 
ATOM     16  C   UNL     1       1.152   2.085  18.437  0.00  0.00    +0.000 C 
ENDBRANCH  14  16
ENDBRANCH  12  14
BRANCH  13  17
ATOM     17  C   UNL     1       4.350   3.141  20.163  0.00  0.00    +0.000 C 
BRANCH  17  18
ATOM     18  C   UNL     1       3.242   2.524  21.019  0.00  0.00    +0.000 C 
ATOM     19  C   UNL     1       2.345   3.541  21.703  0.00  0.00    +0.000 C 
ENDBRANCH  17  18
ENDBRANCH  13  17
ENDBRANCH   1  13
BRANCH   1  20
ATOM     20  N   UNL     1       5.297   5.291  17.328  0.00  0.00    +0.000 NA
ATOM     21  H   UNL     1       4.903   5.820  16.550  0.00  0.00    +0.000 HD
BRANCH  20  22
ATOM     22  S   UNL     1       6.964   5.196  17.216  0.00  0.00    +0.000 S 
ATOM     23  O   UNL     1       7.346   4.247  18.244  0.00  0.00    +0.000 OA
ATOM     24  O   UNL     1       7.386   4.989  15.851  0.00  0.00    +0.000 OA
BRANCH  22  25
ATOM     25  C   UNL     1       7.543   6.782  17.744  0.00  0.00    +0.000 A 
ATOM     26  C   UNL     1       7.179   7.907  17.018  0.00  0.00    +0.000 A 
ATOM     27  C   UNL     1       7.664   9.164  17.399  0.00  0.00    +0.000 A 
ATOM     28  C   UNL     1       8.493   9.333  18.516  0.00  0.00    +0.000 A 
ATOM     29  C   UNL     1       8.808   8.173  19.265  0.00  0.00    +0.000 A 
ATOM     30  C   UNL     1       8.335   6.905  18.884  0.00  0.00    +0.000 A 
BRANCH  28  31
ATOM     31  C   UNL     1       9.098  10.661  18.797  0.00  0.00    +0.000 A 
ATOM     32  C   UNL     1       8.961  11.764  17.940  0.00  0.00    +0.000 A 
ATOM     33  C   UNL     1       9.699  12.947  18.127  0.00  0.00    +0.000 A 
ATOM     34  C   UNL     1      10.620  13.049  19.159  0.00  0.00    +0.000 A 
ATOM     35  C   UNL     1      10.735  11.997  20.047  0.00  0.00    +0.000 A 
ATOM     36  C   UNL     1       9.952  10.850  19.887  0.00  0.00    +0.000 A 
ENDBRANCH  28  31
ENDBRANCH  22  25
ENDBRANCH  20  22
ENDBRANCH   1  20
TORSDOF 12
ENDMDL
MODEL 2
REMARK VINA RESULT:      -7.6      5.030      8.691
REMARK  Name = 
REMARK  15 active torsions:
REMARK  status: ('A' for Active; 'I' for Inactive)
REMARK    1  A    between atoms: C_1  and  C_2
REMARK    2  A    between atoms: C_2  and  C_3
REMARK    3  A    between atoms: C_3  and  C_4
REMARK    4  A    between atoms: C_5  and  C_6
REMARK    5  A    between atoms: C_5  and  C_9
REMARK    6  A    between atoms: C_6  and  C_7
REMARK    7  A    between atoms: C_7  and  C_8
REMARK    8  A    between atoms: C_9  and  N_10
REMARK    9  A    between atoms: C_9  and  C_26
REMARK   10  A    between atoms: N_10  and  S_11
REMARK   11  A    between atoms: S_11  and  C_14
REMARK   12  A    between atoms: C_17  and  C_18
REMARK   13  A    between atoms: C_29  and  C_30
REMARK   14  A    between atoms: C_30  and  O_32
REMARK   15  A    between atoms: O_32  and  C_33
REMARK                            x       y       z     vdW  Elec       q    Type
REMARK                         _______ _______ _______ _____ _____    ______ ____
ROOT
ATOM      1  C   UNL     1      -0.979  11.336  20.581  0.00  0.00    +0.000 C 
ENDROOT
BRANCH   1   2
ATOM      2  C   UNL     1      -1.398  12.368  21.659  0.00  0.00    +0.000 A 
ATOM      3  C   UNL     1      -0.516  13.375  22.065  0.00  0.00    +0.000 A 
ATOM      4  C   UNL     1      -0.738  14.138  23.197  0.00  0.00    +0.000 A 
ATOM      5  C   UNL     1      -1.952  14.091  23.871  0.00  0.00    +0.000 A 
ATOM      6  C   UNL     1      -2.949  13.243  23.376  0.00  0.00    +0.000 A 
ATOM      7  C   UNL     1      -2.668  12.387  22.272  0.00  0.00    +0.000 A 
BRANCH   5   8
ATOM      8  C   UNL     1      -1.996  15.008  25.050  0.00  0.00    +0.000 C 
ATOM      9  O   UNL     1      -2.973  15.010  25.794  0.00  0.00    +0.000 OA
BRANCH   8  10
ATOM     10  O   UNL     1      -0.981  15.884  25.145  0.00  0.00    +0.000 OA
ATOM     11  C   UNL     1      -0.640  16.158  26.517  0.00  0.00    +0.000 C 
ENDBRANCH   8  10
ENDBRANCH   5   8
ENDBRANCH   1   2
BRANCH   1  13
ATOM     12  C   UNL     1      -1.965  11.147  18.264  0.00  0.00    +0.000 C 
ATOM     13  C   UNL     1      -1.100  11.773  19.091  0.00  0.00    +0.000 C 
BRANCH  12  14
ATOM     14  C   UNL     1      -2.070  11.113  16.772  0.00  0.00    +0.000 C 
BRANCH  14  16
ATOM     15  C   UNL     1      -3.049   9.960  14.756  0.00  0.00    +0.000 C 
ATOM     16  C   UNL     1      -2.768   9.868  16.244  0.00  0.00    +0.000 C 
ENDBRANCH  14  16
ENDBRANCH  12  14
BRANCH  13  17
ATOM     17  C   UNL     1      -0.243  12.926  18.578  0.00  0.00    +0.000 C 
BRANCH  17  18
ATOM     18  C   UNL     1       1.259  12.756  18.344  0.00  0.00    +0.000 C 
ATOM     19  C   UNL     1       2.132  13.502  19.339  0.00  0.00    +0.000 C 
ENDBRANCH  17  18
ENDBRANCH  13  17
ENDBRANCH   1  13
BRANCH   1  20
ATOM     20  N   UNL     1       0.318  10.690  20.783  0.00  0.00    +0.000 NA
ATOM     21  H   UNL     1       1.119  11.311  20.900  0.00  0.00    +0.000 HD
BRANCH  20  22
ATOM     22  S   UNL     1       0.592   9.204  21.502  0.00  0.00    +0.000 S 
ATOM     23  O   UNL     1       1.513   9.487  22.586  0.00  0.00    +0.000 OA
ATOM     24  O   UNL     1      -0.649   8.517  21.772  0.00  0.00    +0.000 OA
BRANCH  22  25
ATOM     25  C   UNL     1       1.492   8.277  20.295  0.00  0.00    +0.000 A 
ATOM     26  C   UNL     1       1.884   6.980  20.598  0.00  0.00    +0.000 A 
ATOM     27  C   UNL     1       2.633   6.248  19.668  0.00  0.00    +0.000 A 
ATOM     28  C   UNL     1       2.985   6.775  18.418  0.00  0.00    +0.000 A 
ATOM     29  C   UNL     1       2.531   8.083  18.120  0.00  0.00    +0.000 A 
ATOM     30  C   UNL     1       1.787   8.830  19.050  0.00  0.00    +0.000 A 
BRANCH  28  31
ATOM     31  C   UNL     1       3.900   6.018  17.525  0.00  0.00    +0.000 A 
ATOM     32  C   UNL     1       4.722   6.634  16.568  0.00  0.00    +0.000 A 
ATOM     33  C   UNL     1       5.429   5.889  15.607  0.00  0.00    +0.000 A 
ATOM     34  C   UNL     1       5.312   4.509  15.556  0.00  0.00    +0.000 A 
ATOM     35  C   UNL     1       4.552   3.875  16.519  0.00  0.00    +0.000 A 
ATOM     36  C   UNL     1       3.901   4.620  17.507  0.00  0.00    +0.000 A 
ENDBRANCH  28  31
ENDBRANCH  22  25
ENDBRANCH  20  22
ENDBRANCH   1  20
TORSDOF 12
ENDMDL
MODEL 3
REMARK VINA RESULT:      -7.6      5.453      9.425
REMARK  Name = 
REMARK  15 active torsions:
REMARK  status: ('A' for Active; 'I' for Inactive)
REMARK    1  A    between atoms: C_1  and  C_2
REMARK    2  A    between atoms: C_2  and  C_3
REMARK    3  A    between atoms: C_3  and  C_4
REMARK    4  A    between atoms: C_5  and  C_6
REMARK    5  A    between atoms: C_5  and  C_9
REMARK    6  A    between atoms: C_6  and  C_7
REMARK    7  A    between atoms: C_7  and  C_8
REMARK    8  A    between atoms: C_9  and  N_10
REMARK    9  A    between atoms: C_9  and  C_26
REMARK   10  A    between atoms: N_10  and  S_11
REMARK   11  A    between atoms: S_11  and  C_14
REMARK   12  A    between atoms: C_17  and  C_18
REMARK   13  A    between atoms: C_29  and  C_30
REMARK   14  A    between atoms: C_30  and  O_32
REMARK   15  A    between atoms: O_32  and  C_33
REMARK                            x       y       z     vdW  Elec       q    Type
REMARK                         _______ _______ _______ _____ _____    ______ ____
ROOT
ATOM      1  C   UNL     1      -1.900  11.881  19.452  0.00  0.00    +0.000 C 
ENDROOT
BRANCH   1   2
ATOM      2  C   UNL     1      -2.454  11.295  18.128  0.00  0.00    +0.000 A 
ATOM      3  C   UNL     1      -1.780  10.263  17.466  0.00  0.00    +0.000 A 
ATOM      4  C   UNL     1      -2.080   9.901  16.166  0.00  0.00    +0.000 A 
ATOM      5  C   UNL     1      -3.208  10.395  15.523  0.00  0.00    +0.000 A 
ATOM      6  C   UNL     1      -4.034  11.281  16.225  0.00  0.00    +0.000 A 
ATOM      7  C   UNL     1      -3.654  11.725  17.524  0.00  0.00    +0.000 A 
BRANCH   5   8
ATOM      8  C   UNL     1      -3.364   9.860  14.136  0.00  0.00    +0.000 C 
ATOM      9  O   UNL     1      -2.383   9.745  13.406  0.00  0.00    +0.000 OA
BRANCH   8  10
ATOM     10  O   UNL     1      -4.628   9.651  13.730  0.00  0.00    +0.000 OA
ATOM     11  C   UNL     1      -4.751   9.742  12.299  0.00  0.00    +0.000 C 
ENDBRANCH   8  10
ENDBRANCH   5   8
ENDBRANCH   1   2
BRANCH   1  13
ATOM     12  C   UNL     1      -4.012  12.112  20.816  0.00  0.00    +0.000 C 
ATOM     13  C   UNL     1      -2.891  12.693  20.340  0.00  0.00    +0.000 C 
BRANCH  12  14
ATOM     14  C   UNL     1      -5.268  12.691  21.391  0.00  0.00    +0.000 C 
BRANCH  14  16
ATOM     15  C   UNL     1      -7.655  11.994  21.797  0.00  0.00    +0.000 C 
ATOM     16  C   UNL     1      -6.535  12.110  20.781  0.00  0.00    +0.000 C 
ENDBRANCH  14  16
ENDBRANCH  12  14
BRANCH  13  17
ATOM     17  C   UNL     1      -2.573  14.146  20.678  0.00  0.00    +0.000 C 
BRANCH  17  18
ATOM     18  C   UNL     1      -1.146  14.690  20.580  0.00  0.00    +0.000 C 
ATOM     19  C   UNL     1      -0.416  14.765  21.909  0.00  0.00    +0.000 C 
ENDBRANCH  17  18
ENDBRANCH  13  17
ENDBRANCH   1  13
BRANCH   1  20
ATOM     20  N   UNL     1      -1.154  10.953  20.301  0.00  0.00    +0.000 NA
ATOM     21  H   UNL     1      -1.493   9.992  20.328  0.00  0.00    +0.000 HD
BRANCH  20  22
ATOM     22  S   UNL     1       0.477  11.032  20.672  0.00  0.00    +0.000 S 
ATOM     23  O   UNL     1       0.973  12.154  19.899  0.00  0.00    +0.000 OA
ATOM     24  O   UNL     1       0.691  10.988  22.100  0.00  0.00    +0.000 OA
BRANCH  22  25
ATOM     25  C   UNL     1       1.173   9.571  19.959  0.00  0.00    +0.000 A 
ATOM     26  C   UNL     1       1.591   9.603  18.636  0.00  0.00    +0.000 A 
ATOM     27  C   UNL     1       2.106   8.443  18.044  0.00  0.00    +0.000 A 
ATOM     28  C   UNL     1       2.239   7.243  18.755  0.00  0.00    +0.000 A 
ATOM     29  C   UNL     1       1.848   7.255  20.117  0.00  0.00    +0.000 A 
ATOM     30  C   UNL     1       1.320   8.411  20.717  0.00  0.00    +0.000 A 
BRANCH  28  31
ATOM     31  C   UNL     1       2.654   6.003  18.049  0.00  0.00    +0.000 A 
ATOM     32  C   UNL     1       1.885   4.829  18.043  0.00  0.00    +0.000 A 
ATOM     33  C   UNL     1       2.385   3.616  17.536  0.00  0.00    +0.000 A 
ATOM     34  C   UNL     1       3.680   3.535  17.048  0.00  0.00    +0.000 A 
ATOM     35  C   UNL     1       4.439   4.688  16.995  0.00  0.00    +0.000 A 
ATOM     36  C   UNL     1       3.910   5.901  17.445  0.00  0.00    +0.000 A 
ENDBRANCH  28  31
ENDBRANCH  22  25
ENDBRANCH  20  22
ENDBRANCH   1  20
TORSDOF 12
ENDMDL
MODEL 4
REMARK VINA RESULT:      -7.6      5.108      8.757
REMARK  Name = 
REMARK  15 active torsions:
REMARK  status: ('A' for Active; 'I' for Inactive)
REMARK    1  A    between atoms: C_1  and  C_2
REMARK    2  A    between atoms: C_2  and  C_3
REMARK    3  A    between atoms: C_3  and  C_4
REMARK    4  A    between atoms: C_5  and  C_6
REMARK    5  A    between atoms: C_5  and  C_9
REMARK    6  A    between atoms: C_6  and  C_7
REMARK    7  A    between atoms: C_7  and  C_8
REMARK    8  A    between atoms: C_9  and  N_10
REMARK    9  A    between atoms: C_9  and  C_26
REMARK   10  A    between atoms: N_10  and  S_11
REMARK   11  A    between atoms: S_11  and  C_14
REMARK   12  A    between atoms: C_17  and  C_18
REMARK   13  A    between atoms: C_29  and  C_30
REMARK   14  A    between atoms: C_30  and  O_32
REMARK   15  A    between atoms: O_32  and  C_33
REMARK                            x       y       z     vdW  Elec       q    Type
REMARK                         _______ _______ _______ _____ _____    ______ ____
ROOT
ATOM      1  C   UNL     1      -1.884  11.423  19.369  0.00  0.00    +0.000 C 
ENDROOT
BRANCH   1   2
ATOM      2  C   UNL     1      -1.378  12.888  19.419  0.00  0.00    +0.000 A 
ATOM      3  C   UNL     1      -0.489  13.371  18.453  0.00  0.00    +0.000 A 
ATOM      4  C   UNL     1       0.192  14.564  18.607  0.00  0.00    +0.000 A 
ATOM      5  C   UNL     1      -0.130  15.451  19.627  0.00  0.00    +0.000 A 
ATOM      6  C   UNL     1      -1.163  15.100  20.504  0.00  0.00    +0.000 A 
ATOM      7  C   UNL     1      -1.782  13.822  20.396  0.00  0.00    +0.000 A 
BRANCH   5   8
ATOM      8  C   UNL     1       0.704  16.690  19.602  0.00  0.00    +0.000 C 
ATOM      9  O   UNL     1       0.763  17.414  20.592  0.00  0.00    +0.000 OA
BRANCH   8  10
ATOM     10  O   UNL     1       1.254  16.999  18.415  0.00  0.00    +0.000 OA
ATOM     11  C   UNL     1       0.609  18.134  17.807  0.00  0.00    +0.000 C 
ENDBRANCH   8  10
ENDBRANCH   5   8
ENDBRANCH   1   2
BRANCH   1  13
ATOM     12  C   UNL     1      -4.213  11.788  18.466  0.00  0.00    +0.000 C 
ATOM     13  C   UNL     1      -3.050  11.106  18.386  0.00  0.00    +0.000 C 
BRANCH  12  14
ATOM     14  C   UNL     1      -5.575  11.505  17.911  0.00  0.00    +0.000 C 
BRANCH  14  16
ATOM     15  C   UNL     1      -7.148  11.093  19.836  0.00  0.00    +0.000 C 
ATOM     16  C   UNL     1      -6.348  10.467  18.710  0.00  0.00    +0.000 C 
ENDBRANCH  14  16
ENDBRANCH  12  14
BRANCH  13  17
ATOM     17  C   UNL     1      -2.861  10.029  17.323  0.00  0.00    +0.000 C 
BRANCH  17  18
ATOM     18  C   UNL     1      -2.479  10.390  15.887  0.00  0.00    +0.000 C 
ATOM     19  C   UNL     1      -3.585  10.160  14.872  0.00  0.00    +0.000 C 
ENDBRANCH  17  18
ENDBRANCH  13  17
ENDBRANCH   1  13
BRANCH   1  20
ATOM     20  N   UNL     1      -0.854  10.394  19.230  0.00  0.00    +0.000 NA
ATOM     21  H   UNL     1      -0.461  10.271  18.298  0.00  0.00    +0.000 HD
BRANCH  20  22
ATOM     22  S   UNL     1       0.219   9.891  20.413  0.00  0.00    +0.000 S 
ATOM     23  O   UNL     1       0.978  11.081  20.748  0.00  0.00    +0.000 OA
ATOM     24  O   UNL     1      -0.457   9.150  21.451  0.00  0.00    +0.000 OA
BRANCH  22  25
ATOM     25  C   UNL     1       1.329   8.796  19.578  0.00  0.00    +0.000 A 
ATOM     26  C   UNL     1       1.749   9.114  18.294  0.00  0.00    +0.000 A 
ATOM     27  C   UNL     1       2.595   8.236  17.605  0.00  0.00    +0.000 A 
ATOM     28  C   UNL     1       3.058   7.045  18.180  0.00  0.00    +0.000 A 
ATOM     29  C   UNL     1       2.650   6.771  19.509  0.00  0.00    +0.000 A 
ATOM     30  C   UNL     1       1.793   7.641  20.206  0.00  0.00    +0.000 A 
BRANCH  28  31
ATOM     31  C   UNL     1       3.834   6.078  17.362  0.00  0.00    +0.000 A 
ATOM     32  C   UNL     1       3.706   4.686  17.491  0.00  0.00    +0.000 A 
ATOM     33  C   UNL     1       4.586   3.796  16.849  0.00  0.00    +0.000 A 
ATOM     34  C   UNL     1       5.638   4.273  16.083  0.00  0.00    +0.000 A 
ATOM     35  C   UNL     1       5.755   5.637  15.897  0.00  0.00    +0.000 A 
ATOM     36  C   UNL     1       4.838   6.510  16.490  0.00  0.00    +0.000 A 
ENDBRANCH  28  31
ENDBRANCH  22  25
ENDBRANCH  20  22
ENDBRANCH   1  20
TORSDOF 12
ENDMDL
MODEL 5
REMARK VINA RESULT:      -7.6      5.284      9.475
REMARK  Name = 
REMARK  15 active torsions:
REMARK  status: ('A' for Active; 'I' for Inactive)
REMARK    1  A    between atoms: C_1  and  C_2
REMARK    2  A    between atoms: C_2  and  C_3
REMARK    3  A    between atoms: C_3  and  C_4
REMARK    4  A    between atoms: C_5  and  C_6
REMARK    5  A    between atoms: C_5  and  C_9
REMARK    6  A    between atoms: C_6  and  C_7
REMARK    7  A    between atoms: C_7  and  C_8
REMARK    8  A    between atoms: C_9  and  N_10
REMARK    9  A    between atoms: C_9  and  C_26
REMARK   10  A    between atoms: N_10  and  S_11
REMARK   11  A    between atoms: S_11  and  C_14
REMARK   12  A    between atoms: C_17  and  C_18
REMARK   13  A    between atoms: C_29  and  C_30
REMARK   14  A    between atoms: C_30  and  O_32
REMARK   15  A    between atoms: O_32  and  C_33
REMARK                            x       y       z     vdW  Elec       q    Type
REMARK                         _______ _______ _______ _____ _____    ______ ____
ROOT
ATOM      1  C   UNL     1      -2.085  11.995  19.213  0.00  0.00    +0.000 C 
ENDROOT
BRANCH   1   2
ATOM      2  C   UNL     1      -2.593  11.360  17.893  0.00  0.00    +0.000 A 
ATOM      3  C   UNL     1      -1.895  10.309  17.291  0.00  0.00    +0.000 A 
ATOM      4  C   UNL     1      -2.152   9.900  15.995  0.00  0.00    +0.000 A 
ATOM      5  C   UNL     1      -3.259  10.367  15.298  0.00  0.00    +0.000 A 
ATOM      6  C   UNL     1      -4.110  11.273  15.941  0.00  0.00    +0.000 A 
ATOM      7  C   UNL     1      -3.774  11.765  17.235  0.00  0.00    +0.000 A 
BRANCH   5   8
ATOM      8  C   UNL     1      -3.368   9.783  13.926  0.00  0.00    +0.000 C 
ATOM      9  O   UNL     1      -2.357   9.584  13.259  0.00  0.00    +0.000 OA
BRANCH   8  10
ATOM     10  O   UNL     1      -4.617   9.626  13.457  0.00  0.00    +0.000 OA
ATOM     11  C   UNL     1      -4.676   9.790  12.028  0.00  0.00    +0.000 C 
ENDBRANCH   8  10
ENDBRANCH   5   8
ENDBRANCH   1   2
BRANCH   1  13
ATOM     12  C   UNL     1      -4.448  12.270  20.059  0.00  0.00    +0.000 C 
ATOM     13  C   UNL     1      -3.151  12.634  20.152  0.00  0.00    +0.000 C 
BRANCH  12  14
ATOM     14  C   UNL     1      -5.702  12.911  20.566  0.00  0.00    +0.000 C 
BRANCH  14  16
ATOM     15  C   UNL     1      -7.263  12.276  18.692  0.00  0.00    +0.000 C 
ATOM     16  C   UNL     1      -6.965  12.158  20.174  0.00  0.00    +0.000 C 
ENDBRANCH  14  16
ENDBRANCH  12  14
BRANCH  13  17
ATOM     17  C   UNL     1      -2.714  13.664  21.188  0.00  0.00    +0.000 C 
BRANCH  17  18
ATOM     18  C   UNL     1      -2.544  15.139  20.819  0.00  0.00    +0.000 C 
ATOM     19  C   UNL     1      -1.158  15.499  20.316  0.00  0.00    +0.000 C 
ENDBRANCH  17  18
ENDBRANCH  13  17
ENDBRANCH   1  13
BRANCH   1  20
ATOM     20  N   UNL     1      -1.181  11.170  20.014  0.00  0.00    +0.000 NA
ATOM     21  H   UNL     1      -1.460  10.199  20.155  0.00  0.00    +0.000 HD
BRANCH  20  22
ATOM     22  S   UNL     1       0.478  11.350  20.150  0.00  0.00    +0.000 S 
ATOM     23  O   UNL     1       0.811  12.393  19.199  0.00  0.00    +0.000 OA
ATOM     24  O   UNL     1       0.878  11.479  21.531  0.00  0.00    +0.000 OA
BRANCH  22  25
ATOM     25  C   UNL     1       1.149   9.843  19.513  0.00  0.00    +0.000 A 
ATOM     26  C   UNL     1       1.367   8.784  20.382  0.00  0.00    +0.000 A 
ATOM     27  C   UNL     1       1.937   7.599  19.901  0.00  0.00    +0.000 A 
ATOM     28  C   UNL     1       2.277   7.433  18.552  0.00  0.00    +0.000 A 
ATOM     29  C   UNL     1       1.999   8.514  17.680  0.00  0.00    +0.000 A 
ATOM     30  C   UNL     1       1.437   9.712  18.156  0.00  0.00    +0.000 A 
BRANCH  28  31
ATOM     31  C   UNL     1       3.009   6.216  18.115  0.00  0.00    +0.000 A 
ATOM     32  C   UNL     1       4.346   6.237  17.686  0.00  0.00    +0.000 A 
ATOM     33  C   UNL     1       4.954   5.114  17.095  0.00  0.00    +0.000 A 
ATOM     34  C   UNL     1       4.235   3.947  16.889  0.00  0.00    +0.000 A 
ATOM     35  C   UNL     1       2.934   3.884  17.349  0.00  0.00    +0.000 A 
ATOM     36  C   UNL     1       2.358   4.986  17.990  0.00  0.00    +0.000 A 
ENDBRANCH  28  31
ENDBRANCH  22  25
ENDBRANCH  20  22
ENDBRANCH   1  20
TORSDOF 12
ENDMDL
MODEL 6
REMARK VINA RESULT:      -7.6      4.412      8.769
REMARK  Name = 
REMARK  15 active torsions:
REMARK  status: ('A' for Active; 'I' for Inactive)
REMARK    1  A    between atoms: C_1  and  C_2
REMARK    2  A    between atoms: C_2  and  C_3
REMARK    3  A    between atoms: C_3  and  C_4
REMARK    4  A    between atoms: C_5  and  C_6
REMARK    5  A    between atoms: C_5  and  C_9
REMARK    6  A    between atoms: C_6  and  C_7
REMARK    7  A    between atoms: C_7  and  C_8
REMARK    8  A    between atoms: C_9  and  N_10
REMARK    9  A    between atoms: C_9  and  C_26
REMARK   10  A    between atoms: N_10  and  S_11
REMARK   11  A    between atoms: S_11  and  C_14
REMARK   12  A    between atoms: C_17  and  C_18
REMARK   13  A    between atoms: C_29  and  C_30
REMARK   14  A    between atoms: C_30  and  O_32
REMARK   15  A    between atoms: O_32  and  C_33
REMARK                            x       y       z     vdW  Elec       q    Type
REMARK                         _______ _______ _______ _____ _____    ______ ____
ROOT
ATOM      1  C   UNL     1       0.117  11.816  21.083  0.00  0.00    +0.000 C 
ENDROOT
BRANCH   1   2
ATOM      2  C   UNL     1       0.983  12.770  20.220  0.00  0.00    +0.000 A 
ATOM      3  C   UNL     1       1.452  12.370  18.965  0.00  0.00    +0.000 A 
ATOM      4  C   UNL     1       2.437  13.068  18.289  0.00  0.00    +0.000 A 
ATOM      5  C   UNL     1       2.859  14.319  18.721  0.00  0.00    +0.000 A 
ATOM      6  C   UNL     1       2.264  14.856  19.868  0.00  0.00    +0.000 A 
ATOM      7  C   UNL     1       1.329  14.081  20.611  0.00  0.00    +0.000 A 
BRANCH   5   8
ATOM      8  C   UNL     1       3.909  14.912  17.838  0.00  0.00    +0.000 C 
ATOM      9  O   UNL     1       3.620  15.818  17.061  0.00  0.00    +0.000 OA
BRANCH   8  10
ATOM     10  O   UNL     1       5.109  14.308  17.872  0.00  0.00    +0.000 OA
ATOM     11  C   UNL     1       6.148  15.209  18.297  0.00  0.00    +0.000 C 
ENDBRANCH   8  10
ENDBRANCH   5   8
ENDBRANCH   1   2
BRANCH   1  13
ATOM     12  C   UNL     1      -1.702  12.248  22.779  0.00  0.00    +0.000 C 
ATOM     13  C   UNL     1      -1.301  12.316  21.492  0.00  0.00    +0.000 C 
BRANCH  12  14
ATOM     14  C   UNL     1      -3.059  12.334  23.406  0.00  0.00    +0.000 C 
BRANCH  14  16
ATOM     15  C   UNL     1      -2.034  14.482  24.234  0.00  0.00    +0.000 C 
ATOM     16  C   UNL     1      -3.275  13.610  24.205  0.00  0.00    +0.000 C 
ENDBRANCH  14  16
ENDBRANCH  12  14
BRANCH  13  17
ATOM     17  C   UNL     1      -2.225  12.897  20.427  0.00  0.00    +0.000 C 
BRANCH  17  18
ATOM     18  C   UNL     1      -2.882  12.004  19.373  0.00  0.00    +0.000 C 
ATOM     19  C   UNL     1      -2.081  11.861  18.091  0.00  0.00    +0.000 C 
ENDBRANCH  17  18
ENDBRANCH  13  17
ENDBRANCH   1  13
BRANCH   1  20
ATOM     20  N   UNL     1       0.015  10.437  20.607  0.00  0.00    +0.000 NA
ATOM     21  H   UNL     1       0.043  10.304  19.596  0.00  0.00    +0.000 HD
BRANCH  20  22
ATOM     22  S   UNL     1       0.526   9.062  21.414  0.00  0.00    +0.000 S 
ATOM     23  O   UNL     1       1.493   9.545  22.380  0.00  0.00    +0.000 OA
ATOM     24  O   UNL     1      -0.596   8.265  21.851  0.00  0.00    +0.000 OA
BRANCH  22  25
ATOM     25  C   UNL     1       1.428   8.139  20.205  0.00  0.00    +0.000 A 
ATOM     26  C   UNL     1       1.834   6.847  20.511  0.00  0.00    +0.000 A 
ATOM     27  C   UNL     1       2.585   6.119  19.580  0.00  0.00    +0.000 A 
ATOM     28  C   UNL     1       2.926   6.643  18.327  0.00  0.00    +0.000 A 
ATOM     29  C   UNL     1       2.457   7.946  18.025  0.00  0.00    +0.000 A 
ATOM     30  C   UNL     1       1.712   8.689  18.956  0.00  0.00    +0.000 A 
BRANCH  28  31
ATOM     31  C   UNL     1       3.843   5.891  17.432  0.00  0.00    +0.000 A 
ATOM     32  C   UNL     1       3.894   4.490  17.386  0.00  0.00    +0.000 A 
ATOM     33  C   UNL     1       4.899   3.804  16.680  0.00  0.00    +0.000 A 
ATOM     34  C   UNL     1       5.902   4.502  16.024  0.00  0.00    +0.000 A 
ATOM     35  C   UNL     1       5.845   5.882  16.010  0.00  0.00    +0.000 A 
ATOM     36  C   UNL     1       4.807   6.552  16.664  0.00  0.00    +0.000 A 
ENDBRANCH  28  31
ENDBRANCH  22  25
ENDBRANCH  20  22
ENDBRANCH   1  20
TORSDOF 12
ENDMDL
MODEL 7
REMARK VINA RESULT:      -7.6      5.077      8.700
REMARK  Name = 
REMARK  15 active torsions:
REMARK  status: ('A' for Active; 'I' for Inactive)
REMARK    1  A    between atoms: C_1  and  C_2
REMARK    2  A    between atoms: C_2  and  C_3
REMARK    3  A    between atoms: C_3  and  C_4
REMARK    4  A    between atoms: C_5  and  C_6
REMARK    5  A    between atoms: C_5  and  C_9
REMARK    6  A    between atoms: C_6  and  C_7
REMARK    7  A    between atoms: C_7  and  C_8
REMARK    8  A    between atoms: C_9  and  N_10
REMARK    9  A    between atoms: C_9  and  C_26
REMARK   10  A    between atoms: N_10  and  S_11
REMARK   11  A    between atoms: S_11  and  C_14
REMARK   12  A    between atoms: C_17  and  C_18
REMARK   13  A    between atoms: C_29  and  C_30
REMARK   14  A    between atoms: C_30  and  O_32
REMARK   15  A    between atoms: O_32  and  C_33
REMARK                            x       y       z     vdW  Elec       q    Type
REMARK                         _______ _______ _______ _____ _____    ______ ____
ROOT
ATOM      1  C   UNL     1      -0.945  11.244  20.948  0.00  0.00    +0.000 C 
ENDROOT
BRANCH   1   2
ATOM      2  C   UNL     1      -1.385  12.414  21.866  0.00  0.00    +0.000 A 
ATOM      3  C   UNL     1      -0.500  13.452  22.174  0.00  0.00    +0.000 A 
ATOM      4  C   UNL     1      -0.751  14.358  23.189  0.00  0.00    +0.000 A 
ATOM      5  C   UNL     1      -1.990  14.416  23.813  0.00  0.00    +0.000 A 
ATOM      6  C   UNL     1      -2.984  13.524  23.392  0.00  0.00    +0.000 A 
ATOM      7  C   UNL     1      -2.677  12.529  22.420  0.00  0.00    +0.000 A 
BRANCH   5   8
ATOM      8  C   UNL     1      -2.061  15.478  24.861  0.00  0.00    +0.000 C 
ATOM      9  O   UNL     1      -2.137  15.170  26.047  0.00  0.00    +0.000 OA
BRANCH   8  10
ATOM     10  O   UNL     1      -2.163  16.739  24.407  0.00  0.00    +0.000 OA
ATOM     11  C   UNL     1      -3.535  17.123  24.200  0.00  0.00    +0.000 C 
ENDBRANCH   8  10
ENDBRANCH   5   8
ENDBRANCH   1   2
BRANCH   1  13
ATOM     12  C   UNL     1      -1.673  10.509  18.645  0.00  0.00    +0.000 C 
ATOM     13  C   UNL     1      -1.087  11.454  19.410  0.00  0.00    +0.000 C 
BRANCH  12  14
ATOM     14  C   UNL     1      -1.662  10.275  17.166  0.00  0.00    +0.000 C 
BRANCH  14  16
ATOM     15  C   UNL     1      -4.071  10.974  16.926  0.00  0.00    +0.000 C 
ATOM     16  C   UNL     1      -3.029   9.921  16.601  0.00  0.00    +0.000 C 
ENDBRANCH  14  16
ENDBRANCH  12  14
BRANCH  13  17
ATOM     17  C   UNL     1      -0.572  12.744  18.781  0.00  0.00    +0.000 C 
BRANCH  17  18
ATOM     18  C   UNL     1       0.865  13.218  19.004  0.00  0.00    +0.000 C 
ATOM     19  C   UNL     1       1.920  12.312  18.395  0.00  0.00    +0.000 C 
ENDBRANCH  17  18
ENDBRANCH  13  17
ENDBRANCH   1  13
BRANCH   1  20
ATOM     20  N   UNL     1       0.370  10.669  21.229  0.00  0.00    +0.000 NA
ATOM     21  H   UNL     1       1.115  11.330  21.447  0.00  0.00    +0.000 HD
BRANCH  20  22
ATOM     22  S   UNL     1       0.680   9.165  21.894  0.00  0.00    +0.000 S 
ATOM     23  O   UNL     1       1.698   9.411  22.897  0.00  0.00    +0.000 OA
ATOM     24  O   UNL     1      -0.544   8.492  22.258  0.00  0.00    +0.000 OA
BRANCH  22  25
ATOM     25  C   UNL     1       1.455   8.248  20.595  0.00  0.00    +0.000 A 
ATOM     26  C   UNL     1       1.816   6.928  20.826  0.00  0.00    +0.000 A 
ATOM     27  C   UNL     1       2.468   6.203  19.821  0.00  0.00    +0.000 A 
ATOM     28  C   UNL     1       2.751   6.759  18.567  0.00  0.00    +0.000 A 
ATOM     29  C   UNL     1       2.328   8.093  18.345  0.00  0.00    +0.000 A 
ATOM     30  C   UNL     1       1.682   8.833  19.350  0.00  0.00    +0.000 A 
BRANCH  28  31
ATOM     31  C   UNL     1       3.570   6.002  17.586  0.00  0.00    +0.000 A 
ATOM     32  C   UNL     1       3.542   4.602  17.481  0.00  0.00    +0.000 A 
ATOM     33  C   UNL     1       4.464   3.898  16.685  0.00  0.00    +0.000 A 
ATOM     34  C   UNL     1       5.460   4.572  15.995  0.00  0.00    +0.000 A 
ATOM     35  C   UNL     1       5.476   5.953  16.039  0.00  0.00    +0.000 A 
ATOM     36  C   UNL     1       4.517   6.645  16.785  0.00  0.00    +0.000 A 
ENDBRANCH  28  31
ENDBRANCH  22  25
ENDBRANCH  20  22
ENDBRANCH   1  20
TORSDOF 12
ENDMDL
MODEL 8
REMARK VINA RESULT:      -7.5      4.777      8.710
REMARK  Name = 
REMARK  15 active torsions:
REMARK  status: ('A' for Active; 'I' for Inactive)
REMARK    1  A    between atoms: C_1  and  C_2
REMARK    2  A    between atoms: C_2  and  C_3
REMARK    3  A    between atoms: C_3  and  C_4
REMARK    4  A    between atoms: C_5  and  C_6
REMARK    5  A    between atoms: C_5  and  C_9
REMARK    6  A    between atoms: C_6  and  C_7
REMARK    7  A    between atoms: C_7  and  C_8
REMARK    8  A    between atoms: C_9  and  N_10
REMARK    9  A    between atoms: C_9  and  C_26
REMARK   10  A    between atoms: N_10  and  S_11
REMARK   11  A    between atoms: S_11  and  C_14
REMARK   12  A    between atoms: C_17  and  C_18
REMARK   13  A    between atoms: C_29  and  C_30
REMARK   14  A    between atoms: C_30  and  O_32
REMARK   15  A    between atoms: O_32  and  C_33
REMARK                            x       y       z     vdW  Elec       q    Type
REMARK                         _______ _______ _______ _____ _____    ______ ____
ROOT
ATOM      1  C   UNL     1      -0.067  11.590  20.871  0.00  0.00    +0.000 C 
ENDROOT
BRANCH   1   2
ATOM      2  C   UNL     1       1.060  12.355  20.132  0.00  0.00    +0.000 A 
ATOM      3  C   UNL     1       1.723  13.422  20.747  0.00  0.00    +0.000 A 
ATOM      4  C   UNL     1       2.531  14.294  20.041  0.00  0.00    +0.000 A 
ATOM      5  C   UNL     1       2.898  14.033  18.726  0.00  0.00    +0.000 A 
ATOM      6  C   UNL     1       2.421  12.861  18.129  0.00  0.00    +0.000 A 
ATOM      7  C   UNL     1       1.506  12.027  18.833  0.00  0.00    +0.000 A 
BRANCH   5   8
ATOM      8  C   UNL     1       3.794  15.085  18.156  0.00  0.00    +0.000 C 
ATOM      9  O   UNL     1       3.520  15.610  17.081  0.00  0.00    +0.000 OA
BRANCH   8  10
ATOM     10  O   UNL     1       4.939  15.301  18.825  0.00  0.00    +0.000 OA
ATOM     11  C   UNL     1       5.219  16.706  18.964  0.00  0.00    +0.000 C 
ENDBRANCH   8  10
ENDBRANCH   5   8
ENDBRANCH   1   2
BRANCH   1  13
ATOM     12  C   UNL     1      -2.156  12.411  22.028  0.00  0.00    +0.000 C 
ATOM     13  C   UNL     1      -1.485  12.235  20.869  0.00  0.00    +0.000 C 
BRANCH  12  14
ATOM     14  C   UNL     1      -3.600  12.682  22.313  0.00  0.00    +0.000 C 
BRANCH  14  16
ATOM     15  C   UNL     1      -4.314  12.425  24.716  0.00  0.00    +0.000 C 
ATOM     16  C   UNL     1      -3.832  13.383  23.643  0.00  0.00    +0.000 C 
ENDBRANCH  14  16
ENDBRANCH  12  14
BRANCH  13  17
ATOM     17  C   UNL     1      -2.102  12.682  19.548  0.00  0.00    +0.000 C 
BRANCH  17  18
ATOM     18  C   UNL     1      -2.842  11.694  18.644  0.00  0.00    +0.000 C 
ATOM     19  C   UNL     1      -4.355  11.827  18.684  0.00  0.00    +0.000 C 
ENDBRANCH  17  18
ENDBRANCH  13  17
ENDBRANCH   1  13
BRANCH   1  20
ATOM     20  N   UNL     1      -0.192  10.168  20.551  0.00  0.00    +0.000 NA
ATOM     21  H   UNL     1      -0.316   9.936  19.566  0.00  0.00    +0.000 HD
BRANCH  20  22
ATOM     22  S   UNL     1       0.486   8.892  21.396  0.00  0.00    +0.000 S 
ATOM     23  O   UNL     1       1.415   9.517  22.318  0.00  0.00    +0.000 OA
ATOM     24  O   UNL     1      -0.530   7.995  21.893  0.00  0.00    +0.000 OA
BRANCH  22  25
ATOM     25  C   UNL     1       1.459   8.026  20.199  0.00  0.00    +0.000 A 
ATOM     26  C   UNL     1       1.883   6.735  20.485  0.00  0.00    +0.000 A 
ATOM     27  C   UNL     1       2.688   6.052  19.565  0.00  0.00    +0.000 A 
ATOM     28  C   UNL     1       3.067   6.621  18.342  0.00  0.00    +0.000 A 
ATOM     29  C   UNL     1       2.580   7.921  18.059  0.00  0.00    +0.000 A 
ATOM     30  C   UNL     1       1.779   8.619  18.980  0.00  0.00    +0.000 A 
BRANCH  28  31
ATOM     31  C   UNL     1       4.037   5.918  17.465  0.00  0.00    +0.000 A 
ATOM     32  C   UNL     1       4.782   6.567  16.468  0.00  0.00    +0.000 A 
ATOM     33  C   UNL     1       5.544   5.853  15.526  0.00  0.00    +0.000 A 
ATOM     34  C   UNL     1       5.560   4.467  15.534  0.00  0.00    +0.000 A 
ATOM     35  C   UNL     1       4.878   3.805  16.537  0.00  0.00    +0.000 A 
ATOM     36  C   UNL     1       4.173   4.527  17.505  0.00  0.00    +0.000 A 
ENDBRANCH  28  31
ENDBRANCH  22  25
ENDBRANCH  20  22
ENDBRANCH   1  20
TORSDOF 12
ENDMDL
MODEL 9
REMARK VINA RESULT:      -7.4      1.065      2.241
REMARK  Name = 
REMARK  15 active torsions:
REMARK  status: ('A' for Active; 'I' for Inactive)
REMARK    1  A    between atoms: C_1  and  C_2
REMARK    2  A    between atoms: C_2  and  C_3
REMARK    3  A    between atoms: C_3  and  C_4
REMARK    4  A    between atoms: C_5  and  C_6
REMARK    5  A    between atoms: C_5  and  C_9
REMARK    6  A    between atoms: C_6  and  C_7
REMARK    7  A    between atoms: C_7  and  C_8
REMARK    8  A    between atoms: C_9  and  N_10
REMARK    9  A    between atoms: C_9  and  C_26
REMARK   10  A    between atoms: N_10  and  S_11
REMARK   11  A    between atoms: S_11  and  C_14
REMARK   12  A    between atoms: C_17  and  C_18
REMARK   13  A    between atoms: C_29  and  C_30
REMARK   14  A    between atoms: C_30  and  O_32
REMARK   15  A    between atoms: O_32  and  C_33
REMARK                            x       y       z     vdW  Elec       q    Type
REMARK                         _______ _______ _______ _____ _____    ______ ____
ROOT
ATOM      1  C   UNL     1       3.733   6.030  18.790  0.00  0.00    +0.000 C 
ENDROOT
BRANCH   1   2
ATOM      2  C   UNL     1       2.925   7.353  18.788  0.00  0.00    +0.000 A 
ATOM      3  C   UNL     1       2.166   7.730  19.900  0.00  0.00    +0.000 A 
ATOM      4  C   UNL     1       1.228   8.744  19.844  0.00  0.00    +0.000 A 
ATOM      5  C   UNL     1       1.141   9.585  18.741  0.00  0.00    +0.000 A 
ATOM      6  C   UNL     1       2.027   9.374  17.679  0.00  0.00    +0.000 A 
ATOM      7  C   UNL     1       2.915   8.261  17.707  0.00  0.00    +0.000 A 
BRANCH   5   8
ATOM      8  C   UNL     1       0.082  10.629  18.891  0.00  0.00    +0.000 C 
ATOM      9  O   UNL     1      -1.085  10.299  19.086  0.00  0.00    +0.000 OA
BRANCH   8  10
ATOM     10  O   UNL     1       0.476  11.895  18.674  0.00  0.00    +0.000 OA
ATOM     11  C   UNL     1       1.223  12.420  19.787  0.00  0.00    +0.000 C 
ENDBRANCH   8  10
ENDBRANCH   5   8
ENDBRANCH   1   2
BRANCH   1  13
ATOM     12  C   UNL     1       3.591   4.007  20.294  0.00  0.00    +0.000 C 
ATOM     13  C   UNL     1       3.015   4.758  19.332  0.00  0.00    +0.000 C 
BRANCH  12  14
ATOM     14  C   UNL     1       3.322   2.611  20.765  0.00  0.00    +0.000 C 
BRANCH  14  16
ATOM     15  C   UNL     1       0.972   2.419  21.655  0.00  0.00    +0.000 C 
ATOM     16  C   UNL     1       2.442   2.551  22.005  0.00  0.00    +0.000 C 
ENDBRANCH  14  16
ENDBRANCH  12  14
BRANCH  13  17
ATOM     17  C   UNL     1       1.647   4.378  18.775  0.00  0.00    +0.000 C 
BRANCH  17  18
ATOM     18  C   UNL     1       1.452   3.106  17.948  0.00  0.00    +0.000 C 
ATOM     19  C   UNL     1       2.671   2.695  17.141  0.00  0.00    +0.000 C 
ENDBRANCH  17  18
ENDBRANCH  13  17
ENDBRANCH   1  13
BRANCH   1  20
ATOM     20  N   UNL     1       4.416   5.694  17.541  0.00  0.00    +0.000 NA
ATOM     21  H   UNL     1       4.078   6.163  16.701  0.00  0.00    +0.000 HD
BRANCH  20  22
ATOM     22  S   UNL     1       6.014   5.224  17.373  0.00  0.00    +0.000 S 
ATOM     23  O   UNL     1       6.241   4.302  18.469  0.00  0.00    +0.000 OA
ATOM     24  O   UNL     1       6.299   4.818  16.017  0.00  0.00    +0.000 OA
BRANCH  22  25
ATOM     25  C   UNL     1       6.952   6.680  17.728  0.00  0.00    +0.000 A 
ATOM     26  C   UNL     1       7.960   6.615  18.680  0.00  0.00    +0.000 A 
ATOM     27  C   UNL     1       8.684   7.770  19.003  0.00  0.00    +0.000 A 
ATOM     28  C   UNL     1       8.442   8.998  18.373  0.00  0.00    +0.000 A 
ATOM     29  C   UNL     1       7.440   9.022  17.372  0.00  0.00    +0.000 A 
ATOM     30  C   UNL     1       6.700   7.871  17.049  0.00  0.00    +0.000 A 
BRANCH  28  31
ATOM     31  C   UNL     1       9.134  10.224  18.848  0.00  0.00    +0.000 A 
ATOM     32  C   UNL     1       9.844  11.084  17.996  0.00  0.00    +0.000 A 
ATOM     33  C   UNL     1      10.649  12.125  18.493  0.00  0.00    +0.000 A 
ATOM     34  C   UNL     1      10.792  12.317  19.859  0.00  0.00    +0.000 A 
ATOM     35  C   UNL     1      10.062  11.518  20.717  0.00  0.00    +0.000 A 
ATOM     36  C   UNL     1       9.218  10.526  20.210  0.00  0.00    +0.000 A 
ENDBRANCH  28  31
ENDBRANCH  22  25
ENDBRANCH  20  22
ENDBRANCH   1  20
TORSDOF 12
ENDMDL
