MODEL 1
REMARK VINA RESULT:      -8.8      0.000      0.000
REMARK  Name = 
REMARK  6 active torsions:
REMARK  status: ('A' for Active; 'I' for Inactive)
REMARK    1  A    between atoms: C_6  and  C_7
REMARK    2  A    between atoms: N_9  and  CA_10
REMARK    3  A    between atoms: CA_10  and  CB_11
REMARK    4  A    between atoms: CA_10  and  C_18
REMARK    5  A    between atoms: CB_11  and  CG_12
REMARK    6  A    between atoms: C_18  and  OXT_20
REMARK                            x       y       z     vdW  Elec       q    Type
REMARK                         _______ _______ _______ _____ _____    ______ ____
ROOT
ATOM      1  C   UNK A   1       5.057   4.379  18.267  0.00  0.00    +0.000 C 
ATOM      2  O   UNK A   1       5.718   4.163  19.278  0.00  0.00    +0.000 OA
ATOM      3  N   PHE A   2       3.686   4.461  18.264  0.00  0.00    +0.000 N 
ATOM      4  H   PHE A   2       3.210   4.595  17.369  0.00  0.00    +0.000 HD
ENDROOT
BRANCH   1  10
ATOM      5  N   UNK A   1       5.848   2.719  11.455  0.00  0.00    +0.000 N 
ATOM      6  C   UNK A   1       6.171   3.482  12.521  0.00  0.00    +0.000 A 
ATOM      7  N   UNK A   1       5.484   3.414  13.618  0.00  0.00    +0.000 NA
ATOM      8  C   UNK A   1       5.914   4.175  14.711  0.00  0.00    +0.000 A 
ATOM      9  N   UNK A   1       5.230   3.962  15.863  0.00  0.00    +0.000 NA
ATOM     10  C   UNK A   1       5.728   4.608  16.956  0.00  0.00    +0.000 A 
ATOM     11  C   UNK A   1       6.831   5.456  16.898  0.00  0.00    +0.000 A 
ATOM     12  N   UNK A   1       7.498   5.704  15.745  0.00  0.00    +0.000 NA
ATOM     13  C   UNK A   1       7.014   5.030  14.667  0.00  0.00    +0.000 A 
ATOM     14  C   UNK A   1       7.722   5.128  13.375  0.00  0.00    +0.000 A 
ATOM     15  O   UNK A   1       8.679   5.870  13.180  0.00  0.00    +0.000 OA
ATOM     16  N   UNK A   1       7.243   4.307  12.381  0.00  0.00    +0.000 N 
ATOM     17  H   UNK A   1       4.929   2.292  11.516  0.00  0.00    +0.000 HD
ATOM     18  H   UNK A   1       6.109   3.019  10.527  0.00  0.00    +0.000 HD
ATOM     19  H   UNK A   1       7.764   4.326  11.517  0.00  0.00    +0.000 HD
ENDBRANCH   1  10
BRANCH   3  20
ATOM     20  CA  PHE A   2       2.863   4.338  19.471  0.00  0.00    +0.000 C 
BRANCH  20  21
ATOM     21  C   PHE A   2       1.435   3.928  19.075  0.00  0.00    +0.000 C 
ATOM     22  O   PHE A   2       1.084   3.716  17.920  0.00  0.00    +0.000 OA
BRANCH  21  23
ATOM     23  OXT PHE A   2       0.583   3.756  20.113  0.00  0.00    +0.000 OA
ATOM     24  HXT PHE A   2       0.486   4.516  20.714  0.00  0.00    +0.000 HD
ENDBRANCH  21  23
ENDBRANCH  20  21
BRANCH  20  25
ATOM     25  CB  PHE A   2       2.877   5.599  20.355  0.00  0.00    +0.000 C 
BRANCH  25  26
ATOM     26  CG  PHE A   2       2.313   6.855  19.734  0.00  0.00    +0.000 A 
ATOM     27  CD1 PHE A   2       1.567   7.766  20.494  0.00  0.00    +0.000 A 
ATOM     28  CE1 PHE A   2       1.144   8.973  19.933  0.00  0.00    +0.000 A 
ATOM     29  CZ  PHE A   2       1.458   9.278  18.611  0.00  0.00    +0.000 A 
ATOM     30  CE2 PHE A   2       2.163   8.361  17.835  0.00  0.00    +0.000 A 
ATOM     31  CD2 PHE A   2       2.580   7.152  18.390  0.00  0.00    +0.000 A 
ENDBRANCH  25  26
ENDBRANCH  20  25
ENDBRANCH   3  20
TORSDOF 6
ENDMDL
MODEL 2
REMARK VINA RESULT:      -8.6      0.180      1.145
REMARK  Name = 
REMARK  6 active torsions:
REMARK  status: ('A' for Active; 'I' for Inactive)
REMARK    1  A    between atoms: C_6  and  C_7
REMARK    2  A    between atoms: N_9  and  CA_10
REMARK    3  A    between atoms: CA_10  and  CB_11
REMARK    4  A    between atoms: CA_10  and  C_18
REMARK    5  A    between atoms: CB_11  and  CG_12
REMARK    6  A    between atoms: C_18  and  OXT_20
REMARK                            x       y       z     vdW  Elec       q    Type
REMARK                         _______ _______ _______ _____ _____    ______ ____
ROOT
ATOM      1  C   UNK A   1       5.046   4.277  18.185  0.00  0.00    +0.000 C 
ATOM      2  O   UNK A   1       5.683   3.876  19.154  0.00  0.00    +0.000 OA
ATOM      3  N   PHE A   2       3.699   4.543  18.223  0.00  0.00    +0.000 N 
ATOM      4  H   PHE A   2       3.236   4.826  17.356  0.00  0.00    +0.000 HD
ENDROOT
BRANCH   1  10
ATOM      5  N   UNK A   1       5.998   2.693  11.376  0.00  0.00    +0.000 N 
ATOM      6  C   UNK A   1       6.277   3.460  12.451  0.00  0.00    +0.000 A 
ATOM      7  N   UNK A   1       5.576   3.359  13.536  0.00  0.00    +0.000 NA
ATOM      8  C   UNK A   1       5.962   4.128  14.641  0.00  0.00    +0.000 A 
ATOM      9  N   UNK A   1       5.270   3.883  15.782  0.00  0.00    +0.000 NA
ATOM     10  C   UNK A   1       5.728   4.539  16.886  0.00  0.00    +0.000 A 
ATOM     11  C   UNK A   1       6.799   5.427  16.849  0.00  0.00    +0.000 A 
ATOM     12  N   UNK A   1       7.473   5.707  15.707  0.00  0.00    +0.000 NA
ATOM     13  C   UNK A   1       7.031   5.023  14.618  0.00  0.00    +0.000 A 
ATOM     14  C   UNK A   1       7.753   5.156  13.337  0.00  0.00    +0.000 A 
ATOM     15  O   UNK A   1       8.685   5.934  13.162  0.00  0.00    +0.000 OA
ATOM     16  N   UNK A   1       7.319   4.324  12.332  0.00  0.00    +0.000 N 
ATOM     17  H   UNK A   1       5.094   2.232  11.420  0.00  0.00    +0.000 HD
ATOM     18  H   UNK A   1       6.261   3.009  10.453  0.00  0.00    +0.000 HD
ATOM     19  H   UNK A   1       7.852   4.369  11.475  0.00  0.00    +0.000 HD
ENDBRANCH   1  10
BRANCH   3  20
ATOM     20  CA  PHE A   2       2.882   4.417  19.433  0.00  0.00    +0.000 C 
BRANCH  20  21
ATOM     21  C   PHE A   2       1.459   3.982  19.043  0.00  0.00    +0.000 C 
ATOM     22  O   PHE A   2       0.574   3.740  19.856  0.00  0.00    +0.000 OA
BRANCH  21  23
ATOM     23  OXT PHE A   2       1.221   3.937  17.711  0.00  0.00    +0.000 OA
ATOM     24  HXT PHE A   2       0.332   4.218  17.427  0.00  0.00    +0.000 HD
ENDBRANCH  21  23
ENDBRANCH  20  21
BRANCH  20  25
ATOM     25  CB  PHE A   2       2.878   5.684  20.308  0.00  0.00    +0.000 C 
BRANCH  25  26
ATOM     26  CG  PHE A   2       2.457   6.964  19.627  0.00  0.00    +0.000 A 
ATOM     27  CD1 PHE A   2       2.814   7.227  18.298  0.00  0.00    +0.000 A 
ATOM     28  CE1 PHE A   2       2.327   8.364  17.648  0.00  0.00    +0.000 A 
ATOM     29  CZ  PHE A   2       1.485   9.246  18.320  0.00  0.00    +0.000 A 
ATOM     30  CE2 PHE A   2       1.158   9.015  19.654  0.00  0.00    +0.000 A 
ATOM     31  CD2 PHE A   2       1.649   7.885  20.307  0.00  0.00    +0.000 A 
ENDBRANCH  25  26
ENDBRANCH  20  25
ENDBRANCH   3  20
TORSDOF 6
ENDMDL
MODEL 3
REMARK VINA RESULT:      -8.6      3.289      8.234
REMARK  Name = 
REMARK  6 active torsions:
REMARK  status: ('A' for Active; 'I' for Inactive)
REMARK    1  A    between atoms: C_6  and  C_7
REMARK    2  A    between atoms: N_9  and  CA_10
REMARK    3  A    between atoms: CA_10  and  CB_11
REMARK    4  A    between atoms: CA_10  and  C_18
REMARK    5  A    between atoms: CB_11  and  CG_12
REMARK    6  A    between atoms: C_18  and  OXT_20
REMARK                            x       y       z     vdW  Elec       q    Type
REMARK                         _______ _______ _______ _____ _____    ______ ____
ROOT
ATOM      1  C   UNK A   1       3.428   6.033  18.038  0.00  0.00    +0.000 C 
ATOM      2  O   UNK A   1       2.886   4.934  17.981  0.00  0.00    +0.000 OA
ATOM      3  N   PHE A   2       4.725   6.259  17.643  0.00  0.00    +0.000 N 
ATOM      4  H   PHE A   2       5.115   7.195  17.771  0.00  0.00    +0.000 HD
ENDROOT
BRANCH   1  10
ATOM      5  N   UNK A   1      -0.509   9.165  22.985  0.00  0.00    +0.000 N 
ATOM      6  C   UNK A   1       0.131   9.205  21.798  0.00  0.00    +0.000 A 
ATOM      7  N   UNK A   1       0.927   8.246  21.441  0.00  0.00    +0.000 NA
ATOM      8  C   UNK A   1       1.503   8.310  20.166  0.00  0.00    +0.000 A 
ATOM      9  N   UNK A   1       2.220   7.217  19.805  0.00  0.00    +0.000 NA
ATOM     10  C   UNK A   1       2.675   7.226  18.519  0.00  0.00    +0.000 A 
ATOM     11  C   UNK A   1       2.458   8.288  17.646  0.00  0.00    +0.000 A 
ATOM     12  N   UNK A   1       1.774   9.400  18.010  0.00  0.00    +0.000 NA
ATOM     13  C   UNK A   1       1.297   9.368  19.283  0.00  0.00    +0.000 A 
ATOM     14  C   UNK A   1       0.441  10.472  19.762  0.00  0.00    +0.000 A 
ATOM     15  O   UNK A   1       0.207  11.483  19.109  0.00  0.00    +0.000 OA
ATOM     16  N   UNK A   1      -0.107  10.287  21.010  0.00  0.00    +0.000 N 
ATOM     17  H   UNK A   1      -0.142   8.470  23.629  0.00  0.00    +0.000 HD
ATOM     18  H   UNK A   1      -0.807  10.025  23.424  0.00  0.00    +0.000 HD
ATOM     19  H   UNK A   1      -0.743  11.011  21.314  0.00  0.00    +0.000 HD
ENDBRANCH   1  10
BRANCH   3  20
ATOM     20  CA  PHE A   2       5.590   5.222  17.073  0.00  0.00    +0.000 C 
BRANCH  20  21
ATOM     21  C   PHE A   2       6.330   4.496  18.210  0.00  0.00    +0.000 C 
ATOM     22  O   PHE A   2       7.494   4.724  18.519  0.00  0.00    +0.000 OA
BRANCH  21  23
ATOM     23  OXT PHE A   2       5.579   3.607  18.902  0.00  0.00    +0.000 OA
ATOM     24  HXT PHE A   2       4.709   3.394  18.517  0.00  0.00    +0.000 HD
ENDBRANCH  21  23
ENDBRANCH  20  21
BRANCH  20  25
ATOM     25  CB  PHE A   2       6.560   5.752  16.000  0.00  0.00    +0.000 C 
BRANCH  25  26
ATOM     26  CG  PHE A   2       6.577   5.002  14.689  0.00  0.00    +0.000 A 
ATOM     27  CD1 PHE A   2       5.566   4.088  14.365  0.00  0.00    +0.000 A 
ATOM     28  CE1 PHE A   2       5.538   3.483  13.106  0.00  0.00    +0.000 A 
ATOM     29  CZ  PHE A   2       6.519   3.784  12.165  0.00  0.00    +0.000 A 
ATOM     30  CE2 PHE A   2       7.552   4.659  12.492  0.00  0.00    +0.000 A 
ATOM     31  CD2 PHE A   2       7.587   5.258  13.751  0.00  0.00    +0.000 A 
ENDBRANCH  25  26
ENDBRANCH  20  25
ENDBRANCH   3  20
TORSDOF 6
ENDMDL
MODEL 4
REMARK VINA RESULT:      -8.6      1.293      1.580
REMARK  Name = 
REMARK  6 active torsions:
REMARK  status: ('A' for Active; 'I' for Inactive)
REMARK    1  A    between atoms: C_6  and  C_7
REMARK    2  A    between atoms: N_9  and  CA_10
REMARK    3  A    between atoms: CA_10  and  CB_11
REMARK    4  A    between atoms: CA_10  and  C_18
REMARK    5  A    between atoms: CB_11  and  CG_12
REMARK    6  A    between atoms: C_18  and  OXT_20
REMARK                            x       y       z     vdW  Elec       q    Type
REMARK                         _______ _______ _______ _____ _____    ______ ____
ROOT
ATOM      1  C   UNK A   1       5.724   4.553  18.383  0.00  0.00    +0.000 C 
ATOM      2  O   UNK A   1       6.451   4.869  19.319  0.00  0.00    +0.000 OA
ATOM      3  N   PHE A   2       4.452   4.059  18.547  0.00  0.00    +0.000 N 
ATOM      4  H   PHE A   2       3.932   3.773  17.714  0.00  0.00    +0.000 HD
ENDROOT
BRANCH   1  10
ATOM      5  N   UNK A   1       5.799   2.339  11.684  0.00  0.00    +0.000 N 
ATOM      6  C   UNK A   1       6.164   3.233  12.627  0.00  0.00    +0.000 A 
ATOM      7  N   UNK A   1       5.643   3.195  13.813  0.00  0.00    +0.000 NA
ATOM      8  C   UNK A   1       6.117   4.102  14.768  0.00  0.00    +0.000 A 
ATOM      9  N   UNK A   1       5.625   3.927  16.021  0.00  0.00    +0.000 NA
ATOM     10  C   UNK A   1       6.180   4.728  16.975  0.00  0.00    +0.000 A 
ATOM     11  C   UNK A   1       7.151   5.684  16.690  0.00  0.00    +0.000 A 
ATOM     12  N   UNK A   1       7.622   5.891  15.437  0.00  0.00    +0.000 NA
ATOM     13  C   UNK A   1       7.086   5.066  14.497  0.00  0.00    +0.000 A 
ATOM     14  C   UNK A   1       7.598   5.118  13.113  0.00  0.00    +0.000 A 
ATOM     15  O   UNK A   1       8.421   5.939  12.724  0.00  0.00    +0.000 OA
ATOM     16  N   UNK A   1       7.096   4.155  12.268  0.00  0.00    +0.000 N 
ATOM     17  H   UNK A   1       4.957   1.820  11.911  0.00  0.00    +0.000 HD
ATOM     18  H   UNK A   1       5.894   2.575  10.706  0.00  0.00    +0.000 HD
ATOM     19  H   UNK A   1       7.491   4.149  11.339  0.00  0.00    +0.000 HD
ENDBRANCH   1  10
BRANCH   3  20
ATOM     20  CA  PHE A   2       3.810   3.892  19.854  0.00  0.00    +0.000 C 
BRANCH  20  21
ATOM     21  C   PHE A   2       3.960   2.432  20.312  0.00  0.00    +0.000 C 
ATOM     22  O   PHE A   2       3.688   2.041  21.442  0.00  0.00    +0.000 OA
BRANCH  21  23
ATOM     23  OXT PHE A   2       4.369   1.571  19.350  0.00  0.00    +0.000 OA
ATOM     24  HXT PHE A   2       4.713   0.715  19.663  0.00  0.00    +0.000 HD
ENDBRANCH  21  23
ENDBRANCH  20  21
BRANCH  20  25
ATOM     25  CB  PHE A   2       2.342   4.357  19.881  0.00  0.00    +0.000 C 
BRANCH  25  26
ATOM     26  CG  PHE A   2       2.103   5.826  19.629  0.00  0.00    +0.000 A 
ATOM     27  CD1 PHE A   2       1.698   6.681  20.663  0.00  0.00    +0.000 A 
ATOM     28  CE1 PHE A   2       1.584   8.055  20.438  0.00  0.00    +0.000 A 
ATOM     29  CZ  PHE A   2       1.872   8.584  19.183  0.00  0.00    +0.000 A 
ATOM     30  CE2 PHE A   2       2.235   7.738  18.138  0.00  0.00    +0.000 A 
ATOM     31  CD2 PHE A   2       2.341   6.365  18.357  0.00  0.00    +0.000 A 
ENDBRANCH  25  26
ENDBRANCH  20  25
ENDBRANCH   3  20
TORSDOF 6
ENDMDL
MODEL 5
REMARK VINA RESULT:      -8.6      3.954      6.150
REMARK  Name = 
REMARK  6 active torsions:
REMARK  status: ('A' for Active; 'I' for Inactive)
REMARK    1  A    between atoms: C_6  and  C_7
REMARK    2  A    between atoms: N_9  and  CA_10
REMARK    3  A    between atoms: CA_10  and  CB_11
REMARK    4  A    between atoms: CA_10  and  C_18
REMARK    5  A    between atoms: CB_11  and  CG_12
REMARK    6  A    between atoms: C_18  and  OXT_20
REMARK                            x       y       z     vdW  Elec       q    Type
REMARK                         _______ _______ _______ _____ _____    ______ ____
ROOT
ATOM      1  C   UNK A   1       1.990   8.886  18.288  0.00  0.00    +0.000 C 
ATOM      2  O   UNK A   1       2.203   9.503  17.250  0.00  0.00    +0.000 OA
ATOM      3  N   PHE A   2       1.159   9.343  19.283  0.00  0.00    +0.000 N 
ATOM      4  H   PHE A   2       1.076   8.789  20.138  0.00  0.00    +0.000 HD
ENDROOT
BRANCH   1  10
ATOM      5  N   UNK A   1       5.936   3.518  15.964  0.00  0.00    +0.000 N 
ATOM      6  C   UNK A   1       5.209   4.102  16.941  0.00  0.00    +0.000 A 
ATOM      7  N   UNK A   1       4.806   5.328  16.823  0.00  0.00    +0.000 NA
ATOM      8  C   UNK A   1       3.993   5.852  17.836  0.00  0.00    +0.000 A 
ATOM      9  N   UNK A   1       3.500   7.093  17.593  0.00  0.00    +0.000 NA
ATOM     10  C   UNK A   1       2.610   7.551  18.519  0.00  0.00    +0.000 A 
ATOM     11  C   UNK A   1       2.255   6.825  19.652  0.00  0.00    +0.000 A 
ATOM     12  N   UNK A   1       2.770   5.600  19.923  0.00  0.00    +0.000 NA
ATOM     13  C   UNK A   1       3.632   5.138  18.978  0.00  0.00    +0.000 A 
ATOM     14  C   UNK A   1       4.175   3.771  19.100  0.00  0.00    +0.000 A 
ATOM     15  O   UNK A   1       3.973   3.045  20.068  0.00  0.00    +0.000 OA
ATOM     16  N   UNK A   1       4.925   3.341  18.031  0.00  0.00    +0.000 N 
ATOM     17  H   UNK A   1       6.312   4.171  15.283  0.00  0.00    +0.000 HD
ATOM     18  H   UNK A   1       6.550   2.748  16.189  0.00  0.00    +0.000 HD
ATOM     19  H   UNK A   1       5.245   2.385  18.084  0.00  0.00    +0.000 HD
ENDBRANCH   1  10
BRANCH   3  20
ATOM     20  CA  PHE A   2       0.405  10.597  19.196  0.00  0.00    +0.000 C 
BRANCH  20  21
ATOM     21  C   PHE A   2       1.060  11.649  20.107  0.00  0.00    +0.000 C 
ATOM     22  O   PHE A   2       1.129  11.544  21.327  0.00  0.00    +0.000 OA
BRANCH  21  23
ATOM     23  OXT PHE A   2       1.621  12.696  19.458  0.00  0.00    +0.000 OA
ATOM     24  HXT PHE A   2       2.595  12.704  19.426  0.00  0.00    +0.000 HD
ENDBRANCH  21  23
ENDBRANCH  20  21
BRANCH  20  25
ATOM     25  CB  PHE A   2      -1.097  10.434  19.491  0.00  0.00    +0.000 C 
BRANCH  25  26
ATOM     26  CG  PHE A   2      -2.026  10.537  18.305  0.00  0.00    +0.000 A 
ATOM     27  CD1 PHE A   2      -3.160  11.358  18.343  0.00  0.00    +0.000 A 
ATOM     28  CE1 PHE A   2      -3.949  11.526  17.202  0.00  0.00    +0.000 A 
ATOM     29  CZ  PHE A   2      -3.613  10.874  16.018  0.00  0.00    +0.000 A 
ATOM     30  CE2 PHE A   2      -2.511  10.023  15.982  0.00  0.00    +0.000 A 
ATOM     31  CD2 PHE A   2      -1.727   9.847  17.121  0.00  0.00    +0.000 A 
ENDBRANCH  25  26
ENDBRANCH  20  25
ENDBRANCH   3  20
TORSDOF 6
ENDMDL
MODEL 6
REMARK VINA RESULT:      -8.5      1.131      1.634
REMARK  Name = 
REMARK  6 active torsions:
REMARK  status: ('A' for Active; 'I' for Inactive)
REMARK    1  A    between atoms: C_6  and  C_7
REMARK    2  A    between atoms: N_9  and  CA_10
REMARK    3  A    between atoms: CA_10  and  CB_11
REMARK    4  A    between atoms: CA_10  and  C_18
REMARK    5  A    between atoms: CB_11  and  CG_12
REMARK    6  A    between atoms: C_18  and  OXT_20
REMARK                            x       y       z     vdW  Elec       q    Type
REMARK                         _______ _______ _______ _____ _____    ______ ____
ROOT
ATOM      1  C   UNK A   1       5.496   4.757  18.524  0.00  0.00    +0.000 C 
ATOM      2  O   UNK A   1       6.170   5.075  19.498  0.00  0.00    +0.000 OA
ATOM      3  N   PHE A   2       4.207   4.288  18.616  0.00  0.00    +0.000 N 
ATOM      4  H   PHE A   2       3.734   3.998  17.758  0.00  0.00    +0.000 HD
ENDROOT
BRANCH   1  10
ATOM      5  N   UNK A   1       5.789   2.546  11.830  0.00  0.00    +0.000 N 
ATOM      6  C   UNK A   1       6.163   3.412  12.796  0.00  0.00    +0.000 A 
ATOM      7  N   UNK A   1       5.575   3.410  13.951  0.00  0.00    +0.000 NA
ATOM      8  C   UNK A   1       6.058   4.281  14.935  0.00  0.00    +0.000 A 
ATOM      9  N   UNK A   1       5.486   4.140  16.157  0.00  0.00    +0.000 NA
ATOM     10  C   UNK A   1       6.042   4.899  17.145  0.00  0.00    +0.000 A 
ATOM     11  C   UNK A   1       7.092   5.784  16.919  0.00  0.00    +0.000 A 
ATOM     12  N   UNK A   1       7.647   5.958  15.694  0.00  0.00    +0.000 NA
ATOM     13  C   UNK A   1       7.107   5.174  14.723  0.00  0.00    +0.000 A 
ATOM     14  C   UNK A   1       7.697   5.190  13.370  0.00  0.00    +0.000 A 
ATOM     15  O   UNK A   1       8.597   5.951  13.031  0.00  0.00    +0.000 OA
ATOM     16  N   UNK A   1       7.177   4.265  12.494  0.00  0.00    +0.000 N 
ATOM     17  H   UNK A   1       4.901   2.088  12.007  0.00  0.00    +0.000 HD
ATOM     18  H   UNK A   1       5.956   2.776  10.860  0.00  0.00    +0.000 HD
ATOM     19  H   UNK A   1       7.622   4.232  11.588  0.00  0.00    +0.000 HD
ENDBRANCH   1  10
BRANCH   3  20
ATOM     20  CA  PHE A   2       3.483   4.155  19.884  0.00  0.00    +0.000 C 
BRANCH  20  21
ATOM     21  C   PHE A   2       3.442   2.674  20.294  0.00  0.00    +0.000 C 
ATOM     22  O   PHE A   2       3.511   2.287  21.455  0.00  0.00    +0.000 OA
BRANCH  21  23
ATOM     23  OXT PHE A   2       3.265   1.804  19.271  0.00  0.00    +0.000 OA
ATOM     24  HXT PHE A   2       2.340   1.581  19.058  0.00  0.00    +0.000 HD
ENDBRANCH  21  23
ENDBRANCH  20  21
BRANCH  20  25
ATOM     25  CB  PHE A   2       2.077   4.785  19.857  0.00  0.00    +0.000 C 
BRANCH  25  26
ATOM     26  CG  PHE A   2       2.018   6.273  19.603  0.00  0.00    +0.000 A 
ATOM     27  CD1 PHE A   2       2.304   6.802  18.338  0.00  0.00    +0.000 A 
ATOM     28  CE1 PHE A   2       2.140   8.167  18.091  0.00  0.00    +0.000 A 
ATOM     29  CZ  PHE A   2       1.694   9.012  19.104  0.00  0.00    +0.000 A 
ATOM     30  CE2 PHE A   2       1.447   8.502  20.376  0.00  0.00    +0.000 A 
ATOM     31  CD2 PHE A   2       1.617   7.141  20.628  0.00  0.00    +0.000 A 
ENDBRANCH  25  26
ENDBRANCH  20  25
ENDBRANCH   3  20
TORSDOF 6
ENDMDL
MODEL 7
REMARK VINA RESULT:      -8.5      3.941      6.193
REMARK  Name = 
REMARK  6 active torsions:
REMARK  status: ('A' for Active; 'I' for Inactive)
REMARK    1  A    between atoms: C_6  and  C_7
REMARK    2  A    between atoms: N_9  and  CA_10
REMARK    3  A    between atoms: CA_10  and  CB_11
REMARK    4  A    between atoms: CA_10  and  C_18
REMARK    5  A    between atoms: CB_11  and  CG_12
REMARK    6  A    between atoms: C_18  and  OXT_20
REMARK                            x       y       z     vdW  Elec       q    Type
REMARK                         _______ _______ _______ _____ _____    ______ ____
ROOT
ATOM      1  C   UNK A   1       1.975   8.870  18.381  0.00  0.00    +0.000 C 
ATOM      2  O   UNK A   1       2.240   9.531  17.382  0.00  0.00    +0.000 OA
ATOM      3  N   PHE A   2       1.094   9.284  19.351  0.00  0.00    +0.000 N 
ATOM      4  H   PHE A   2       0.968   8.694  20.176  0.00  0.00    +0.000 HD
ENDROOT
BRANCH   1  10
ATOM      5  N   UNK A   1       5.948   3.554  15.985  0.00  0.00    +0.000 N 
ATOM      6  C   UNK A   1       5.203   4.112  16.963  0.00  0.00    +0.000 A 
ATOM      7  N   UNK A   1       4.807   5.343  16.873  0.00  0.00    +0.000 NA
ATOM      8  C   UNK A   1       3.975   5.841  17.883  0.00  0.00    +0.000 A 
ATOM      9  N   UNK A   1       3.493   7.090  17.666  0.00  0.00    +0.000 NA
ATOM     10  C   UNK A   1       2.585   7.525  18.586  0.00  0.00    +0.000 A 
ATOM     11  C   UNK A   1       2.203   6.768  19.689  0.00  0.00    +0.000 A 
ATOM     12  N   UNK A   1       2.706   5.534  19.935  0.00  0.00    +0.000 NA
ATOM     13  C   UNK A   1       3.586   5.096  18.995  0.00  0.00    +0.000 A 
ATOM     14  C   UNK A   1       4.121   3.722  19.089  0.00  0.00    +0.000 A 
ATOM     15  O   UNK A   1       3.896   2.970  20.030  0.00  0.00    +0.000 OA
ATOM     16  N   UNK A   1       4.892   3.321  18.023  0.00  0.00    +0.000 N 
ATOM     17  H   UNK A   1       6.342   4.224  15.332  0.00  0.00    +0.000 HD
ATOM     18  H   UNK A   1       6.554   2.775  16.201  0.00  0.00    +0.000 HD
ATOM     19  H   UNK A   1       5.207   2.362  18.056  0.00  0.00    +0.000 HD
ENDBRANCH   1  10
BRANCH   3  20
ATOM     20  CA  PHE A   2       0.343  10.542  19.280  0.00  0.00    +0.000 C 
BRANCH  20  21
ATOM     21  C   PHE A   2       0.947  11.551  20.271  0.00  0.00    +0.000 C 
ATOM     22  O   PHE A   2       1.356  12.661  19.948  0.00  0.00    +0.000 OA
BRANCH  21  23
ATOM     23  OXT PHE A   2       0.947  11.150  21.564  0.00  0.00    +0.000 OA
ATOM     24  HXT PHE A   2       1.824  11.013  21.967  0.00  0.00    +0.000 HD
ENDBRANCH  21  23
ENDBRANCH  20  21
BRANCH  20  25
ATOM     25  CB  PHE A   2      -1.172  10.366  19.487  0.00  0.00    +0.000 C 
BRANCH  25  26
ATOM     26  CG  PHE A   2      -2.040  10.567  18.267  0.00  0.00    +0.000 A 
ATOM     27  CD1 PHE A   2      -1.774   9.888  17.070  0.00  0.00    +0.000 A 
ATOM     28  CE1 PHE A   2      -2.646  10.002  15.985  0.00  0.00    +0.000 A 
ATOM     29  CZ  PHE A   2      -3.786  10.795  16.086  0.00  0.00    +0.000 A 
ATOM     30  CE2 PHE A   2      -4.037  11.507  17.256  0.00  0.00    +0.000 A 
ATOM     31  CD2 PHE A   2      -3.164  11.401  18.338  0.00  0.00    +0.000 A 
ENDBRANCH  25  26
ENDBRANCH  20  25
ENDBRANCH   3  20
TORSDOF 6
ENDMDL
MODEL 8
REMARK VINA RESULT:      -8.4      3.081      7.929
REMARK  Name = 
REMARK  6 active torsions:
REMARK  status: ('A' for Active; 'I' for Inactive)
REMARK    1  A    between atoms: C_6  and  C_7
REMARK    2  A    between atoms: N_9  and  CA_10
REMARK    3  A    between atoms: CA_10  and  CB_11
REMARK    4  A    between atoms: CA_10  and  C_18
REMARK    5  A    between atoms: CB_11  and  CG_12
REMARK    6  A    between atoms: C_18  and  OXT_20
REMARK                            x       y       z     vdW  Elec       q    Type
REMARK                         _______ _______ _______ _____ _____    ______ ____
ROOT
ATOM      1  C   UNK A   1       3.985   5.601  17.726  0.00  0.00    +0.000 C 
ATOM      2  O   UNK A   1       3.501   4.591  17.225  0.00  0.00    +0.000 OA
ATOM      3  N   PHE A   2       5.327   5.897  17.687  0.00  0.00    +0.000 N 
ATOM      4  H   PHE A   2       5.653   6.734  18.174  0.00  0.00    +0.000 HD
ENDROOT
BRANCH   1  10
ATOM      5  N   UNK A   1       1.319  12.128  17.993  0.00  0.00    +0.000 N 
ATOM      6  C   UNK A   1       1.403  10.875  18.488  0.00  0.00    +0.000 A 
ATOM      7  N   UNK A   1       2.017   9.942  17.830  0.00  0.00    +0.000 NA
ATOM      8  C   UNK A   1       2.134   8.683  18.431  0.00  0.00    +0.000 A 
ATOM      9  N   UNK A   1       2.897   7.791  17.750  0.00  0.00    +0.000 NA
ATOM     10  C   UNK A   1       3.114   6.609  18.394  0.00  0.00    +0.000 A 
ATOM     11  C   UNK A   1       2.568   6.313  19.640  0.00  0.00    +0.000 A 
ATOM     12  N   UNK A   1       1.775   7.184  20.311  0.00  0.00    +0.000 NA
ATOM     13  C   UNK A   1       1.591   8.372  19.676  0.00  0.00    +0.000 A 
ATOM     14  C   UNK A   1       0.838   9.446  20.354  0.00  0.00    +0.000 A 
ATOM     15  O   UNK A   1       0.273   9.301  21.433  0.00  0.00    +0.000 OA
ATOM     16  N   UNK A   1       0.821  10.654  19.697  0.00  0.00    +0.000 N 
ATOM     17  H   UNK A   1       1.562  12.201  17.010  0.00  0.00    +0.000 HD
ATOM     18  H   UNK A   1       0.562  12.731  18.283  0.00  0.00    +0.000 HD
ATOM     19  H   UNK A   1       0.361  11.407  20.188  0.00  0.00    +0.000 HD
ENDBRANCH   1  10
BRANCH   3  20
ATOM     20  CA  PHE A   2       6.321   5.061  17.008  0.00  0.00    +0.000 C 
BRANCH  20  21
ATOM     21  C   PHE A   2       7.408   4.644  18.014  0.00  0.00    +0.000 C 
ATOM     22  O   PHE A   2       8.429   4.043  17.702  0.00  0.00    +0.000 OA
BRANCH  21  23
ATOM     23  OXT PHE A   2       7.187   5.042  19.289  0.00  0.00    +0.000 OA
ATOM     24  HXT PHE A   2       6.384   4.688  19.713  0.00  0.00    +0.000 HD
ENDBRANCH  21  23
ENDBRANCH  20  21
BRANCH  20  25
ATOM     25  CB  PHE A   2       6.921   5.717  15.751  0.00  0.00    +0.000 C 
BRANCH  25  26
ATOM     26  CG  PHE A   2       6.666   5.007  14.442  0.00  0.00    +0.000 A 
ATOM     27  CD1 PHE A   2       7.551   5.138  13.364  0.00  0.00    +0.000 A 
ATOM     28  CE1 PHE A   2       7.359   4.392  12.199  0.00  0.00    +0.000 A 
ATOM     29  CZ  PHE A   2       6.282   3.514  12.101  0.00  0.00    +0.000 A 
ATOM     30  CE2 PHE A   2       5.374   3.408  13.150  0.00  0.00    +0.000 A 
ATOM     31  CD2 PHE A   2       5.559   4.157  14.312  0.00  0.00    +0.000 A 
ENDBRANCH  25  26
ENDBRANCH  20  25
ENDBRANCH   3  20
TORSDOF 6
ENDMDL
MODEL 9
REMARK VINA RESULT:      -8.3      3.065      7.950
REMARK  Name = 
REMARK  6 active torsions:
REMARK  status: ('A' for Active; 'I' for Inactive)
REMARK    1  A    between atoms: C_6  and  C_7
REMARK    2  A    between atoms: N_9  and  CA_10
REMARK    3  A    between atoms: CA_10  and  CB_11
REMARK    4  A    between atoms: CA_10  and  C_18
REMARK    5  A    between atoms: CB_11  and  CG_12
REMARK    6  A    between atoms: C_18  and  OXT_20
REMARK                            x       y       z     vdW  Elec       q    Type
REMARK                         _______ _______ _______ _____ _____    ______ ____
ROOT
ATOM      1  C   UNK A   1       3.980   5.520  18.181  0.00  0.00    +0.000 C 
ATOM      2  O   UNK A   1       3.625   4.351  18.075  0.00  0.00    +0.000 OA
ATOM      3  N   PHE A   2       5.205   5.981  17.763  0.00  0.00    +0.000 N 
ATOM      4  H   PHE A   2       5.439   6.961  17.935  0.00  0.00    +0.000 HD
ENDROOT
BRANCH   1  10
ATOM      5  N   UNK A   1       1.274  12.036  18.061  0.00  0.00    +0.000 N 
ATOM      6  C   UNK A   1       1.329  10.799  18.599  0.00  0.00    +0.000 A 
ATOM      7  N   UNK A   1       1.991   9.851  18.015  0.00  0.00    +0.000 NA
ATOM      8  C   UNK A   1       2.071   8.611  18.660  0.00  0.00    +0.000 A 
ATOM      9  N   UNK A   1       2.883   7.703  18.062  0.00  0.00    +0.000 NA
ATOM     10  C   UNK A   1       3.059   6.542  18.755  0.00  0.00    +0.000 A 
ATOM     11  C   UNK A   1       2.428   6.282  19.968  0.00  0.00    +0.000 A 
ATOM     12  N   UNK A   1       1.587   7.167  20.556  0.00  0.00    +0.000 NA
ATOM     13  C   UNK A   1       1.443   8.334  19.873  0.00  0.00    +0.000 A 
ATOM     14  C   UNK A   1       0.640   9.424  20.464  0.00  0.00    +0.000 A 
ATOM     15  O   UNK A   1       0.001   9.308  21.504  0.00  0.00    +0.000 OA
ATOM     16  N   UNK A   1       0.664  10.611  19.770  0.00  0.00    +0.000 N 
ATOM     17  H   UNK A   1       1.585  12.081  17.096  0.00  0.00    +0.000 HD
ATOM     18  H   UNK A   1       0.497  12.643  18.279  0.00  0.00    +0.000 HD
ATOM     19  H   UNK A   1       0.168  11.375  20.205  0.00  0.00    +0.000 HD
ENDBRANCH   1  10
BRANCH   3  20
ATOM     20  CA  PHE A   2       6.207   5.136  17.107  0.00  0.00    +0.000 C 
BRANCH  20  21
ATOM     21  C   PHE A   2       7.297   4.757  18.124  0.00  0.00    +0.000 C 
ATOM     22  O   PHE A   2       7.258   5.064  19.310  0.00  0.00    +0.000 OA
BRANCH  21  23
ATOM     23  OXT PHE A   2       8.300   3.995  17.627  0.00  0.00    +0.000 OA
ATOM     24  HXT PHE A   2       8.026   3.201  17.131  0.00  0.00    +0.000 HD
ENDBRANCH  21  23
ENDBRANCH  20  21
BRANCH  20  25
ATOM     25  CB  PHE A   2       6.800   5.763  15.832  0.00  0.00    +0.000 C 
BRANCH  25  26
ATOM     26  CG  PHE A   2       6.656   4.956  14.563  0.00  0.00    +0.000 A 
ATOM     27  CD1 PHE A   2       5.549   4.122  14.358  0.00  0.00    +0.000 A 
ATOM     28  CE1 PHE A   2       5.375   3.467  13.137  0.00  0.00    +0.000 A 
ATOM     29  CZ  PHE A   2       6.305   3.637  12.114  0.00  0.00    +0.000 A 
ATOM     30  CE2 PHE A   2       7.429   4.431  12.322  0.00  0.00    +0.000 A 
ATOM     31  CD2 PHE A   2       7.609   5.080  13.543  0.00  0.00    +0.000 A 
ENDBRANCH  25  26
ENDBRANCH  20  25
ENDBRANCH   3  20
TORSDOF 6
ENDMDL
