MODEL 1
REMARK VINA RESULT:      -7.4      0.000      0.000
REMARK  Name = 
REMARK  3 active torsions:
REMARK  status: ('A' for Active; 'I' for Inactive)
REMARK    1  A    between atoms: C_1  and  N_2
REMARK    2  A    between atoms: C_5  and  C_6
REMARK    3  A    between atoms: C_6  and  C_7
REMARK                            x       y       z     vdW  Elec       q    Type
REMARK                         _______ _______ _______ _____ _____    ______ ____
ROOT
ATOM      1  C   UNL     1       5.747   4.513  16.531  0.00  0.00    +0.000 C 
ATOM      2  C   UNL     1       5.421   3.432  15.470  0.00  0.00    +0.000 C 
ATOM      3  C   UNL     1       6.141   3.885  14.240  0.00  0.00    +0.000 A 
ATOM      4  C   UNL     1       6.060   3.354  12.962  0.00  0.00    +0.000 A 
ATOM      5  C   UNL     1       6.819   3.943  11.945  0.00  0.00    +0.000 A 
ATOM      6  C   UNL     1       7.657   5.040  12.213  0.00  0.00    +0.000 A 
ATOM      7  C   UNL     1       7.754   5.555  13.506  0.00  0.00    +0.000 A 
ATOM      8  C   UNL     1       6.988   4.956  14.488  0.00  0.00    +0.000 A 
ATOM      9  C   UNL     1       6.867   5.320  15.894  0.00  0.00    +0.000 C 
ATOM     10  O   UNL     1       7.538   6.183  16.432  0.00  0.00    +0.000 OA
ENDROOT
BRANCH   1  11
ATOM     11  C   UNL     1       4.584   5.466  16.849  0.00  0.00    +0.000 C 
BRANCH  11  16
ATOM     12  C   UNL     1       1.462   2.685  20.825  0.00  0.00    +0.000 C 
ATOM     13  N   UNL     1       2.250   3.107  19.666  0.00  0.00    +0.000 NA
ATOM     14  C   UNL     1       1.527   4.129  18.899  0.00  0.00    +0.000 C 
ATOM     15  C   UNL     1       2.321   4.582  17.668  0.00  0.00    +0.000 C 
ATOM     16  C   UNL     1       3.711   5.090  18.061  0.00  0.00    +0.000 C 
ATOM     17  C   UNL     1       4.419   4.012  18.898  0.00  0.00    +0.000 C 
ATOM     18  C   UNL     1       3.568   3.586  20.095  0.00  0.00    +0.000 C 
ENDBRANCH  11  16
ENDBRANCH   1  11
TORSDOF 2
ENDMDL
MODEL 2
REMARK VINA RESULT:      -7.1      0.622      1.097
REMARK  Name = 
REMARK  3 active torsions:
REMARK  status: ('A' for Active; 'I' for Inactive)
REMARK    1  A    between atoms: C_1  and  N_2
REMARK    2  A    between atoms: C_5  and  C_6
REMARK    3  A    between atoms: C_6  and  C_7
REMARK                            x       y       z     vdW  Elec       q    Type
REMARK                         _______ _______ _______ _____ _____    ______ ____
ROOT
ATOM      1  C   UNL     1       5.906   4.359  16.476  0.00  0.00    +0.000 C 
ATOM      2  C   UNL     1       5.608   3.301  15.384  0.00  0.00    +0.000 C 
ATOM      3  C   UNL     1       6.266   3.839  14.152  0.00  0.00    +0.000 A 
ATOM      4  C   UNL     1       6.177   3.351  12.858  0.00  0.00    +0.000 A 
ATOM      5  C   UNL     1       6.873   4.018  11.844  0.00  0.00    +0.000 A 
ATOM      6  C   UNL     1       7.657   5.150  12.131  0.00  0.00    +0.000 A 
ATOM      7  C   UNL     1       7.764   5.621  13.439  0.00  0.00    +0.000 A 
ATOM      8  C   UNL     1       7.061   4.945  14.418  0.00  0.00    +0.000 A 
ATOM      9  C   UNL     1       6.961   5.250  15.840  0.00  0.00    +0.000 C 
ATOM     10  O   UNL     1       7.599   6.128  16.392  0.00  0.00    +0.000 OA
ENDROOT
BRANCH   1  11
ATOM     11  C   UNL     1       4.702   5.234  16.862  0.00  0.00    +0.000 C 
BRANCH  11  16
ATOM     12  C   UNL     1       1.443   3.243  21.187  0.00  0.00    +0.000 C 
ATOM     13  N   UNL     1       2.471   3.830  20.326  0.00  0.00    +0.000 NA
ATOM     14  C   UNL     1       3.058   2.804  19.456  0.00  0.00    +0.000 C 
ATOM     15  C   UNL     1       4.150   3.385  18.551  0.00  0.00    +0.000 C 
ATOM     16  C   UNL     1       3.617   4.554  17.717  0.00  0.00    +0.000 C 
ATOM     17  C   UNL     1       2.973   5.585  18.657  0.00  0.00    +0.000 C 
ATOM     18  C   UNL     1       1.910   4.940  19.549  0.00  0.00    +0.000 C 
ENDBRANCH  11  16
ENDBRANCH   1  11
TORSDOF 2
ENDMDL
MODEL 3
REMARK VINA RESULT:      -7.1      3.146      6.576
REMARK  Name = 
REMARK  3 active torsions:
REMARK  status: ('A' for Active; 'I' for Inactive)
REMARK    1  A    between atoms: C_1  and  N_2
REMARK    2  A    between atoms: C_5  and  C_6
REMARK    3  A    between atoms: C_6  and  C_7
REMARK                            x       y       z     vdW  Elec       q    Type
REMARK                         _______ _______ _______ _____ _____    ______ ____
ROOT
ATOM      1  C   UNL     1       2.825   2.748  17.038  0.00  0.00    +0.000 C 
ATOM      2  C   UNL     1       3.390   1.850  18.167  0.00  0.00    +0.000 C 
ATOM      3  C   UNL     1       2.766   2.382  19.418  0.00  0.00    +0.000 A 
ATOM      4  C   UNL     1       3.051   2.029  20.728  0.00  0.00    +0.000 A 
ATOM      5  C   UNL     1       2.348   2.665  21.758  0.00  0.00    +0.000 A 
ATOM      6  C   UNL     1       1.365   3.629  21.473  0.00  0.00    +0.000 A 
ATOM      7  C   UNL     1       1.064   3.962  20.152  0.00  0.00    +0.000 A 
ATOM      8  C   UNL     1       1.778   3.321  19.156  0.00  0.00    +0.000 A 
ATOM      9  C   UNL     1       1.698   3.513  17.714  0.00  0.00    +0.000 C 
ATOM     10  O   UNL     1       0.876   4.228  17.168  0.00  0.00    +0.000 OA
ENDROOT
BRANCH   1  11
ATOM     11  C   UNL     1       3.827   3.764  16.468  0.00  0.00    +0.000 C 
BRANCH  11  16
ATOM     12  C   UNL     1       8.268   6.278  19.162  0.00  0.00    +0.000 C 
ATOM     13  N   UNL     1       7.133   5.914  18.311  0.00  0.00    +0.000 NA
ATOM     14  C   UNL     1       7.480   4.775  17.452  0.00  0.00    +0.000 C 
ATOM     15  C   UNL     1       6.316   4.379  16.538  0.00  0.00    +0.000 C 
ATOM     16  C   UNL     1       5.052   4.074  17.348  0.00  0.00    +0.000 C 
ATOM     17  C   UNL     1       4.746   5.269  18.266  0.00  0.00    +0.000 C 
ATOM     18  C   UNL     1       5.952   5.629  19.134  0.00  0.00    +0.000 C 
ENDBRANCH  11  16
ENDBRANCH   1  11
TORSDOF 2
ENDMDL
MODEL 4
REMARK VINA RESULT:      -7.1      4.142      6.562
REMARK  Name = 
REMARK  3 active torsions:
REMARK  status: ('A' for Active; 'I' for Inactive)
REMARK    1  A    between atoms: C_1  and  N_2
REMARK    2  A    between atoms: C_5  and  C_6
REMARK    3  A    between atoms: C_6  and  C_7
REMARK                            x       y       z     vdW  Elec       q    Type
REMARK                         _______ _______ _______ _____ _____    ______ ____
ROOT
ATOM      1  C   UNL     1       3.481   4.637  17.525  0.00  0.00    +0.000 C 
ATOM      2  C   UNL     1       4.308   3.892  18.602  0.00  0.00    +0.000 C 
ATOM      3  C   UNL     1       3.296   3.443  19.608  0.00  0.00    +0.000 A 
ATOM      4  C   UNL     1       3.525   2.861  20.845  0.00  0.00    +0.000 A 
ATOM      5  C   UNL     1       2.422   2.524  21.638  0.00  0.00    +0.000 A 
ATOM      6  C   UNL     1       1.110   2.756  21.187  0.00  0.00    +0.000 A 
ATOM      7  C   UNL     1       0.885   3.320  19.931  0.00  0.00    +0.000 A 
ATOM      8  C   UNL     1       1.993   3.646  19.173  0.00  0.00    +0.000 A 
ATOM      9  C   UNL     1       2.042   4.281  17.862  0.00  0.00    +0.000 C 
ATOM     10  O   UNL     1       1.056   4.526  17.188  0.00  0.00    +0.000 OA
ENDROOT
BRANCH   1  11
ATOM     11  C   UNL     1       3.622   6.167  17.557  0.00  0.00    +0.000 C 
BRANCH  11  16
ATOM     12  C   UNL     1       0.393  10.050  20.348  0.00  0.00    +0.000 C 
ATOM     13  N   UNL     1       1.456   9.250  19.737  0.00  0.00    +0.000 NA
ATOM     14  C   UNL     1       1.518   7.920  20.355  0.00  0.00    +0.000 C 
ATOM     15  C   UNL     1       2.632   7.062  19.746  0.00  0.00    +0.000 C 
ATOM     16  C   UNL     1       2.472   6.940  18.228  0.00  0.00    +0.000 C 
ATOM     17  C   UNL     1       2.367   8.349  17.621  0.00  0.00    +0.000 C 
ATOM     18  C   UNL     1       1.255   9.161  18.286  0.00  0.00    +0.000 C 
ENDBRANCH  11  16
ENDBRANCH   1  11
TORSDOF 2
ENDMDL
MODEL 5
REMARK VINA RESULT:      -7.0      2.877      4.136
REMARK  Name = 
REMARK  3 active torsions:
REMARK  status: ('A' for Active; 'I' for Inactive)
REMARK    1  A    between atoms: C_1  and  N_2
REMARK    2  A    between atoms: C_5  and  C_6
REMARK    3  A    between atoms: C_6  and  C_7
REMARK                            x       y       z     vdW  Elec       q    Type
REMARK                         _______ _______ _______ _____ _____    ______ ____
ROOT
ATOM      1  C   UNL     1       4.094   3.518  17.496  0.00  0.00    +0.000 C 
ATOM      2  C   UNL     1       4.737   4.358  16.364  0.00  0.00    +0.000 C 
ATOM      3  C   UNL     1       5.812   5.145  17.045  0.00  0.00    +0.000 A 
ATOM      4  C   UNL     1       6.590   6.161  16.514  0.00  0.00    +0.000 A 
ATOM      5  C   UNL     1       7.540   6.775  17.338  0.00  0.00    +0.000 A 
ATOM      6  C   UNL     1       7.713   6.363  18.671  0.00  0.00    +0.000 A 
ATOM      7  C   UNL     1       6.945   5.322  19.194  0.00  0.00    +0.000 A 
ATOM      8  C   UNL     1       6.011   4.738  18.358  0.00  0.00    +0.000 A 
ATOM      9  C   UNL     1       5.059   3.678  18.660  0.00  0.00    +0.000 C 
ATOM     10  O   UNL     1       5.031   3.069  19.715  0.00  0.00    +0.000 OA
ENDROOT
BRANCH   1  11
ATOM     11  C   UNL     1       2.708   4.008  17.945  0.00  0.00    +0.000 C 
BRANCH  11  16
ATOM     12  C   UNL     1       1.217   8.457  21.302  0.00  0.00    +0.000 C 
ATOM     13  N   UNL     1       1.300   7.365  20.331  0.00  0.00    +0.000 NA
ATOM     14  C   UNL     1       2.323   7.654  19.319  0.00  0.00    +0.000 C 
ATOM     15  C   UNL     1       2.424   6.535  18.277  0.00  0.00    +0.000 C 
ATOM     16  C   UNL     1       2.694   5.181  18.941  0.00  0.00    +0.000 C 
ATOM     17  C   UNL     1       1.630   4.933  20.023  0.00  0.00    +0.000 C 
ATOM     18  C   UNL     1       1.562   6.095  21.016  0.00  0.00    +0.000 C 
ENDBRANCH  11  16
ENDBRANCH   1  11
TORSDOF 2
ENDMDL
MODEL 6
REMARK VINA RESULT:      -6.9      3.175      6.538
REMARK  Name = 
REMARK  3 active torsions:
REMARK  status: ('A' for Active; 'I' for Inactive)
REMARK    1  A    between atoms: C_1  and  N_2
REMARK    2  A    between atoms: C_5  and  C_6
REMARK    3  A    between atoms: C_6  and  C_7
REMARK                            x       y       z     vdW  Elec       q    Type
REMARK                         _______ _______ _______ _____ _____    ______ ____
ROOT
ATOM      1  C   UNL     1       2.822   3.775  16.969  0.00  0.00    +0.000 C 
ATOM      2  C   UNL     1       2.483   2.430  17.659  0.00  0.00    +0.000 C 
ATOM      3  C   UNL     1       2.265   2.791  19.095  0.00  0.00    +0.000 A 
ATOM      4  C   UNL     1       2.081   1.934  20.169  0.00  0.00    +0.000 A 
ATOM      5  C   UNL     1       1.902   2.488  21.442  0.00  0.00    +0.000 A 
ATOM      6  C   UNL     1       1.894   3.882  21.627  0.00  0.00    +0.000 A 
ATOM      7  C   UNL     1       2.055   4.740  20.539  0.00  0.00    +0.000 A 
ATOM      8  C   UNL     1       2.234   4.164  19.296  0.00  0.00    +0.000 A 
ATOM      9  C   UNL     1       2.469   4.820  18.015  0.00  0.00    +0.000 C 
ATOM     10  O   UNL     1       2.434   6.027  17.854  0.00  0.00    +0.000 OA
ENDROOT
BRANCH   1  11
ATOM     11  C   UNL     1       4.303   3.945  16.596  0.00  0.00    +0.000 C 
BRANCH  11  16
ATOM     12  C   UNL     1       8.272   7.677  18.496  0.00  0.00    +0.000 C 
ATOM     13  N   UNL     1       7.510   6.611  17.844  0.00  0.00    +0.000 NA
ATOM     14  C   UNL     1       7.028   5.644  18.837  0.00  0.00    +0.000 C 
ATOM     15  C   UNL     1       6.237   4.505  18.184  0.00  0.00    +0.000 C 
ATOM     16  C   UNL     1       5.070   5.045  17.351  0.00  0.00    +0.000 C 
ATOM     17  C   UNL     1       5.608   6.085  16.353  0.00  0.00    +0.000 C 
ATOM     18  C   UNL     1       6.406   7.179  17.064  0.00  0.00    +0.000 C 
ENDBRANCH  11  16
ENDBRANCH   1  11
TORSDOF 2
ENDMDL
MODEL 7
REMARK VINA RESULT:      -6.9      3.618      4.940
REMARK  Name = 
REMARK  3 active torsions:
REMARK  status: ('A' for Active; 'I' for Inactive)
REMARK    1  A    between atoms: C_1  and  N_2
REMARK    2  A    between atoms: C_5  and  C_6
REMARK    3  A    between atoms: C_6  and  C_7
REMARK                            x       y       z     vdW  Elec       q    Type
REMARK                         _______ _______ _______ _____ _____    ______ ____
ROOT
ATOM      1  C   UNL     1       3.823   4.756  17.882  0.00  0.00    +0.000 C 
ATOM      2  C   UNL     1       4.370   5.856  16.938  0.00  0.00    +0.000 C 
ATOM      3  C   UNL     1       5.698   6.223  17.519  0.00  0.00    +0.000 A 
ATOM      4  C   UNL     1       6.534   7.263  17.143  0.00  0.00    +0.000 A 
ATOM      5  C   UNL     1       7.740   7.434  17.833  0.00  0.00    +0.000 A 
ATOM      6  C   UNL     1       8.103   6.563  18.877  0.00  0.00    +0.000 A 
ATOM      7  C   UNL     1       7.270   5.504  19.235  0.00  0.00    +0.000 A 
ATOM      8  C   UNL     1       6.084   5.363  18.538  0.00  0.00    +0.000 A 
ATOM      9  C   UNL     1       5.024   4.384  18.738  0.00  0.00    +0.000 C 
ATOM     10  O   UNL     1       5.098   3.452  19.520  0.00  0.00    +0.000 OA
ENDROOT
BRANCH   1  11
ATOM     11  C   UNL     1       2.690   5.217  18.811  0.00  0.00    +0.000 C 
BRANCH  11  16
ATOM     12  C   UNL     1       0.921  10.625  19.770  0.00  0.00    +0.000 C 
ATOM     13  N   UNL     1       1.059   9.199  19.467  0.00  0.00    +0.000 NA
ATOM     14  C   UNL     1       1.873   9.007  18.261  0.00  0.00    +0.000 C 
ATOM     15  C   UNL     1       2.024   7.523  17.909  0.00  0.00    +0.000 C 
ATOM     16  C   UNL     1       2.608   6.730  19.082  0.00  0.00    +0.000 C 
ATOM     17  C   UNL     1       1.756   6.990  20.335  0.00  0.00    +0.000 C 
ATOM     18  C   UNL     1       1.624   8.487  20.619  0.00  0.00    +0.000 C 
ENDBRANCH  11  16
ENDBRANCH   1  11
TORSDOF 2
ENDMDL
MODEL 8
REMARK VINA RESULT:      -6.7      0.876      1.126
REMARK  Name = 
REMARK  3 active torsions:
REMARK  status: ('A' for Active; 'I' for Inactive)
REMARK    1  A    between atoms: C_1  and  N_2
REMARK    2  A    between atoms: C_5  and  C_6
REMARK    3  A    between atoms: C_6  and  C_7
REMARK                            x       y       z     vdW  Elec       q    Type
REMARK                         _______ _______ _______ _____ _____    ______ ____
ROOT
ATOM      1  C   UNL     1       6.058   4.418  16.352  0.00  0.00    +0.000 C 
ATOM      2  C   UNL     1       5.744   3.305  15.320  0.00  0.00    +0.000 C 
ATOM      3  C   UNL     1       6.327   3.807  14.037  0.00  0.00    +0.000 A 
ATOM      4  C   UNL     1       6.194   3.261  12.770  0.00  0.00    +0.000 A 
ATOM      5  C   UNL     1       6.822   3.904  11.697  0.00  0.00    +0.000 A 
ATOM      6  C   UNL     1       7.583   5.070  11.899  0.00  0.00    +0.000 A 
ATOM      7  C   UNL     1       7.735   5.601  13.180  0.00  0.00    +0.000 A 
ATOM      8  C   UNL     1       7.099   4.947  14.219  0.00  0.00    +0.000 A 
ATOM      9  C   UNL     1       7.055   5.310  15.630  0.00  0.00    +0.000 C 
ATOM     10  O   UNL     1       7.690   6.230  16.114  0.00  0.00    +0.000 OA
ENDROOT
BRANCH   1  11
ATOM     11  C   UNL     1       4.847   5.272  16.757  0.00  0.00    +0.000 C 
BRANCH  11  16
ATOM     12  C   UNL     1       0.683   3.982  20.538  0.00  0.00    +0.000 C 
ATOM     13  N   UNL     1       1.507   4.477  19.434  0.00  0.00    +0.000 NA
ATOM     14  C   UNL     1       2.566   5.359  19.939  0.00  0.00    +0.000 C 
ATOM     15  C   UNL     1       3.439   5.907  18.804  0.00  0.00    +0.000 C 
ATOM     16  C   UNL     1       4.040   4.772  17.969  0.00  0.00    +0.000 C 
ATOM     17  C   UNL     1       2.907   3.847  17.494  0.00  0.00    +0.000 C 
ATOM     18  C   UNL     1       2.060   3.354  18.669  0.00  0.00    +0.000 C 
ENDBRANCH  11  16
ENDBRANCH   1  11
TORSDOF 2
ENDMDL
MODEL 9
REMARK VINA RESULT:      -6.7      2.286      6.955
REMARK  Name = 
REMARK  3 active torsions:
REMARK  status: ('A' for Active; 'I' for Inactive)
REMARK    1  A    between atoms: C_1  and  N_2
REMARK    2  A    between atoms: C_5  and  C_6
REMARK    3  A    between atoms: C_6  and  C_7
REMARK                            x       y       z     vdW  Elec       q    Type
REMARK                         _______ _______ _______ _____ _____    ______ ____
ROOT
ATOM      1  C   UNL     1       3.859   4.790  17.895  0.00  0.00    +0.000 C 
ATOM      2  C   UNL     1       2.405   5.095  18.337  0.00  0.00    +0.000 C 
ATOM      3  C   UNL     1       2.173   4.194  19.509  0.00  0.00    +0.000 A 
ATOM      4  C   UNL     1       0.984   3.965  20.184  0.00  0.00    +0.000 A 
ATOM      5  C   UNL     1       0.989   3.068  21.258  0.00  0.00    +0.000 A 
ATOM      6  C   UNL     1       2.174   2.423  21.655  0.00  0.00    +0.000 A 
ATOM      7  C   UNL     1       3.373   2.676  20.988  0.00  0.00    +0.000 A 
ATOM      8  C   UNL     1       3.336   3.563  19.928  0.00  0.00    +0.000 A 
ATOM      9  C   UNL     1       4.421   3.966  19.043  0.00  0.00    +0.000 C 
ATOM     10  O   UNL     1       5.582   3.630  19.195  0.00  0.00    +0.000 OA
ENDROOT
BRANCH   1  11
ATOM     11  C   UNL     1       3.974   3.964  16.604  0.00  0.00    +0.000 C 
BRANCH  11  16
ATOM     12  C   UNL     1       8.350   5.563  13.199  0.00  0.00    +0.000 C 
ATOM     13  N   UNL     1       7.080   5.389  13.907  0.00  0.00    +0.000 NA
ATOM     14  C   UNL     1       6.512   4.065  13.623  0.00  0.00    +0.000 C 
ATOM     15  C   UNL     1       5.173   3.857  14.340  0.00  0.00    +0.000 C 
ATOM     16  C   UNL     1       5.312   4.068  15.851  0.00  0.00    +0.000 C 
ATOM     17  C   UNL     1       5.950   5.443  16.107  0.00  0.00    +0.000 C 
ATOM     18  C   UNL     1       7.268   5.597  15.347  0.00  0.00    +0.000 C 
ENDBRANCH  11  16
ENDBRANCH   1  11
TORSDOF 2
ENDMDL
