MODEL 1
REMARK VINA RESULT:      -8.2      0.000      0.000
REMARK  Name = 
REMARK  5 active torsions:
REMARK  status: ('A' for Active; 'I' for Inactive)
REMARK    1  A    between atoms: C_1  and  O_2
REMARK    2  A    between atoms: O_2  and  C_3
REMARK    3  A    between atoms: C_6  and  C_7
REMARK    4  A    between atoms: C_22  and  O_23
REMARK    5  A    between atoms: O_23  and  C_24
REMARK                            x       y       z     vdW  Elec       q    Type
REMARK                         _______ _______ _______ _____ _____    ______ ____
ROOT
ATOM      1  C   UNL     1       5.416   6.124  17.131  0.00  0.00    +0.000 C 
ATOM      2  C   UNL     1       6.607   6.490  18.029  0.00  0.00    +0.000 C 
ATOM      3  C   UNL     1       7.005   5.385  18.984  0.00  0.00    +0.000 C 
ATOM      4  O   UNL     1       8.135   5.191  19.402  0.00  0.00    +0.000 OA
ATOM      5  N   UNL     1       5.976   4.569  19.557  0.00  0.00    +0.000 N 
ATOM      6  C   UNL     1       4.719   4.606  19.011  0.00  0.00    +0.000 A 
ATOM      7  C   UNL     1       4.422   5.305  17.870  0.00  0.00    +0.000 A 
ATOM      8  N   UNL     1       3.095   5.161  17.559  0.00  0.00    +0.000 NA
ATOM      9  C   UNL     1       2.601   4.339  18.486  0.00  0.00    +0.000 A 
ATOM     10  N   UNL     1       3.564   4.002  19.395  0.00  0.00    +0.000 N 
ATOM     11  C   UNL     1       3.380   3.180  20.556  0.00  0.00    +0.000 C 
ATOM     12  C   UNL     1       1.990   2.598  20.761  0.00  0.00    +0.000 C 
ATOM     13  C   UNL     1       0.902   2.912  19.738  0.00  0.00    +0.000 C 
ATOM     14  C   UNL     1       1.214   3.823  18.550  0.00  0.00    +0.000 C 
ATOM     15  H   UNL     1       6.230   3.942  20.307  0.00  0.00    +0.000 HD
ENDROOT
BRANCH   1  19
ATOM     16  C   UNL     1       6.435   4.064  13.439  0.00  0.00    +0.000 A 
ATOM     17  C   UNL     1       5.310   3.700  14.195  0.00  0.00    +0.000 A 
ATOM     18  C   UNL     1       4.993   4.352  15.388  0.00  0.00    +0.000 A 
ATOM     19  C   UNL     1       5.841   5.333  15.909  0.00  0.00    +0.000 A 
ATOM     20  C   UNL     1       7.026   5.602  15.204  0.00  0.00    +0.000 A 
ATOM     21  C   UNL     1       7.330   4.997  13.975  0.00  0.00    +0.000 A 
BRANCH  16  23
ATOM     22  C   UNL     1       5.675   2.573  11.766  0.00  0.00    +0.000 C 
ATOM     23  O   UNL     1       6.660   3.514  12.206  0.00  0.00    +0.000 OA
ENDBRANCH  16  23
BRANCH  21  24
ATOM     24  O   UNL     1       8.502   5.490  13.474  0.00  0.00    +0.000 OA
ATOM     25  C   UNL     1       8.507   6.184  12.240  0.00  0.00    +0.000 C 
ENDBRANCH  21  24
ENDBRANCH   1  19
TORSDOF 3
ENDMDL
MODEL 2
REMARK VINA RESULT:      -7.7      3.116      6.555
REMARK  Name = 
REMARK  5 active torsions:
REMARK  status: ('A' for Active; 'I' for Inactive)
REMARK    1  A    between atoms: C_1  and  O_2
REMARK    2  A    between atoms: O_2  and  C_3
REMARK    3  A    between atoms: C_6  and  C_7
REMARK    4  A    between atoms: C_22  and  O_23
REMARK    5  A    between atoms: O_23  and  C_24
REMARK                            x       y       z     vdW  Elec       q    Type
REMARK                         _______ _______ _______ _____ _____    ______ ____
ROOT
ATOM      1  C   UNL     1       5.681   5.013  18.238  0.00  0.00    +0.000 C 
ATOM      2  C   UNL     1       6.949   5.520  18.944  0.00  0.00    +0.000 C 
ATOM      3  C   UNL     1       7.758   6.488  18.109  0.00  0.00    +0.000 C 
ATOM      4  O   UNL     1       8.454   7.387  18.553  0.00  0.00    +0.000 OA
ATOM      5  N   UNL     1       7.833   6.277  16.694  0.00  0.00    +0.000 N 
ATOM      6  C   UNL     1       6.951   5.410  16.104  0.00  0.00    +0.000 A 
ATOM      7  C   UNL     1       5.922   4.814  16.787  0.00  0.00    +0.000 A 
ATOM      8  N   UNL     1       5.205   4.002  15.948  0.00  0.00    +0.000 NA
ATOM      9  C   UNL     1       5.772   4.143  14.749  0.00  0.00    +0.000 A 
ATOM     10  N   UNL     1       6.850   4.979  14.820  0.00  0.00    +0.000 N 
ATOM     11  C   UNL     1       7.729   5.318  13.738  0.00  0.00    +0.000 C 
ATOM     12  C   UNL     1       7.394   4.721  12.379  0.00  0.00    +0.000 C 
ATOM     13  C   UNL     1       6.167   3.823  12.252  0.00  0.00    +0.000 C 
ATOM     14  C   UNL     1       5.317   3.515  13.486  0.00  0.00    +0.000 C 
ATOM     15  H   UNL     1       8.496   6.829  16.166  0.00  0.00    +0.000 HD
ENDROOT
BRANCH   1  19
ATOM     16  C   UNL     1       2.188   7.596  18.409  0.00  0.00    +0.000 A 
ATOM     17  C   UNL     1       3.221   7.821  17.487  0.00  0.00    +0.000 A 
ATOM     18  C   UNL     1       4.350   7.000  17.444  0.00  0.00    +0.000 A 
ATOM     19  C   UNL     1       4.521   5.977  18.381  0.00  0.00    +0.000 A 
ATOM     20  C   UNL     1       3.536   5.841  19.374  0.00  0.00    +0.000 A 
ATOM     21  C   UNL     1       2.369   6.620  19.396  0.00  0.00    +0.000 A 
BRANCH  16  23
ATOM     22  C   UNL     1       1.193   9.732  18.196  0.00  0.00    +0.000 C 
ATOM     23  O   UNL     1       1.027   8.319  18.353  0.00  0.00    +0.000 OA
ENDBRANCH  16  23
BRANCH  21  24
ATOM     24  O   UNL     1       1.552   6.232  20.420  0.00  0.00    +0.000 OA
ATOM     25  C   UNL     1       1.419   4.859  20.737  0.00  0.00    +0.000 C 
ENDBRANCH  21  24
ENDBRANCH   1  19
TORSDOF 3
ENDMDL
MODEL 3
REMARK VINA RESULT:      -7.5      3.067      6.393
REMARK  Name = 
REMARK  5 active torsions:
REMARK  status: ('A' for Active; 'I' for Inactive)
REMARK    1  A    between atoms: C_1  and  O_2
REMARK    2  A    between atoms: O_2  and  C_3
REMARK    3  A    between atoms: C_6  and  C_7
REMARK    4  A    between atoms: C_22  and  O_23
REMARK    5  A    between atoms: O_23  and  C_24
REMARK                            x       y       z     vdW  Elec       q    Type
REMARK                         _______ _______ _______ _____ _____    ______ ____
ROOT
ATOM      1  C   UNL     1       6.029   4.766  18.300  0.00  0.00    +0.000 C 
ATOM      2  C   UNL     1       7.203   5.540  18.918  0.00  0.00    +0.000 C 
ATOM      3  C   UNL     1       7.713   6.664  18.042  0.00  0.00    +0.000 C 
ATOM      4  O   UNL     1       8.225   7.694  18.449  0.00  0.00    +0.000 OA
ATOM      5  N   UNL     1       7.725   6.476  16.622  0.00  0.00    +0.000 N 
ATOM      6  C   UNL     1       7.013   5.435  16.084  0.00  0.00    +0.000 A 
ATOM      7  C   UNL     1       6.196   4.626  16.831  0.00  0.00    +0.000 A 
ATOM      8  N   UNL     1       5.614   3.676  16.034  0.00  0.00    +0.000 NA
ATOM      9  C   UNL     1       6.043   3.939  14.799  0.00  0.00    +0.000 A 
ATOM     10  N   UNL     1       6.912   4.993  14.804  0.00  0.00    +0.000 N 
ATOM     11  C   UNL     1       7.610   5.519  13.666  0.00  0.00    +0.000 C 
ATOM     12  C   UNL     1       7.312   4.863  12.326  0.00  0.00    +0.000 C 
ATOM     13  C   UNL     1       6.307   3.716  12.274  0.00  0.00    +0.000 C 
ATOM     14  C   UNL     1       5.643   3.227  13.563  0.00  0.00    +0.000 C 
ATOM     15  H   UNL     1       8.208   7.160  16.056  0.00  0.00    +0.000 HD
ENDROOT
BRANCH   1  19
ATOM     16  C   UNL     1       2.368   6.914  19.246  0.00  0.00    +0.000 A 
ATOM     17  C   UNL     1       2.733   5.747  19.935  0.00  0.00    +0.000 A 
ATOM     18  C   UNL     1       3.900   5.050  19.619  0.00  0.00    +0.000 A 
ATOM     19  C   UNL     1       4.699   5.450  18.545  0.00  0.00    +0.000 A 
ATOM     20  C   UNL     1       4.258   6.549  17.787  0.00  0.00    +0.000 A 
ATOM     21  C   UNL     1       3.118   7.295  18.127  0.00  0.00    +0.000 A 
BRANCH  16  23
ATOM     22  C   UNL     1       1.330   8.086  21.020  0.00  0.00    +0.000 C 
ATOM     23  O   UNL     1       1.298   7.665  19.652  0.00  0.00    +0.000 OA
ENDBRANCH  16  23
BRANCH  21  24
ATOM     24  O   UNL     1       2.960   8.347  17.269  0.00  0.00    +0.000 OA
ATOM     25  C   UNL     1       2.220   9.484  17.675  0.00  0.00    +0.000 C 
ENDBRANCH  21  24
ENDBRANCH   1  19
TORSDOF 3
ENDMDL
MODEL 4
REMARK VINA RESULT:      -7.0      6.730      8.491
REMARK  Name = 
REMARK  5 active torsions:
REMARK  status: ('A' for Active; 'I' for Inactive)
REMARK    1  A    between atoms: C_1  and  O_2
REMARK    2  A    between atoms: O_2  and  C_3
REMARK    3  A    between atoms: C_6  and  C_7
REMARK    4  A    between atoms: C_22  and  O_23
REMARK    5  A    between atoms: O_23  and  C_24
REMARK                            x       y       z     vdW  Elec       q    Type
REMARK                         _______ _______ _______ _____ _____    ______ ____
ROOT
ATOM      1  C   UNL     1       1.301  10.403  18.219  0.00  0.00    +0.000 C 
ATOM      2  C   UNL     1       2.056  11.617  18.783  0.00  0.00    +0.000 C 
ATOM      3  C   UNL     1       1.376  12.247  19.979  0.00  0.00    +0.000 C 
ATOM      4  O   UNL     1       1.948  12.830  20.886  0.00  0.00    +0.000 OA
ATOM      5  N   UNL     1      -0.056  12.290  20.011  0.00  0.00    +0.000 N 
ATOM      6  C   UNL     1      -0.763  11.512  19.132  0.00  0.00    +0.000 A 
ATOM      7  C   UNL     1      -0.168  10.606  18.293  0.00  0.00    +0.000 A 
ATOM      8  N   UNL     1      -1.115   9.973  17.531  0.00  0.00    +0.000 NA
ATOM      9  C   UNL     1      -2.285  10.463  17.942  0.00  0.00    +0.000 A 
ATOM     10  N   UNL     1      -2.099  11.416  18.903  0.00  0.00    +0.000 N 
ATOM     11  C   UNL     1      -3.127  12.193  19.534  0.00  0.00    +0.000 C 
ATOM     12  C   UNL     1      -4.558  11.886  19.121  0.00  0.00    +0.000 C 
ATOM     13  C   UNL     1      -4.808  10.791  18.087  0.00  0.00    +0.000 C 
ATOM     14  C   UNL     1      -3.625  10.046  17.466  0.00  0.00    +0.000 C 
ATOM     15  H   UNL     1      -0.499  12.847  20.730  0.00  0.00    +0.000 HD
ENDROOT
BRANCH   1  19
ATOM     16  C   UNL     1       1.921   6.623  20.277  0.00  0.00    +0.000 A 
ATOM     17  C   UNL     1       1.268   7.698  20.899  0.00  0.00    +0.000 A 
ATOM     18  C   UNL     1       1.085   8.916  20.243  0.00  0.00    +0.000 A 
ATOM     19  C   UNL     1       1.624   9.127  18.971  0.00  0.00    +0.000 A 
ATOM     20  C   UNL     1       2.378   8.084  18.409  0.00  0.00    +0.000 A 
ATOM     21  C   UNL     1       2.524   6.833  19.031  0.00  0.00    +0.000 A 
BRANCH  16  23
ATOM     22  C   UNL     1       1.034   4.432  20.383  0.00  0.00    +0.000 C 
ATOM     23  O   UNL     1       1.975   5.393  20.875  0.00  0.00    +0.000 OA
ENDBRANCH  16  23
BRANCH  21  24
ATOM     24  O   UNL     1       3.242   5.983  18.238  0.00  0.00    +0.000 OA
ATOM     25  C   UNL     1       4.259   6.493  17.396  0.00  0.00    +0.000 C 
ENDBRANCH  21  24
ENDBRANCH   1  19
TORSDOF 3
ENDMDL
MODEL 5
REMARK VINA RESULT:      -7.0      1.414      2.161
REMARK  Name = 
REMARK  5 active torsions:
REMARK  status: ('A' for Active; 'I' for Inactive)
REMARK    1  A    between atoms: C_1  and  O_2
REMARK    2  A    between atoms: O_2  and  C_3
REMARK    3  A    between atoms: C_6  and  C_7
REMARK    4  A    between atoms: C_22  and  O_23
REMARK    5  A    between atoms: O_23  and  C_24
REMARK                            x       y       z     vdW  Elec       q    Type
REMARK                         _______ _______ _______ _____ _____    ______ ____
ROOT
ATOM      1  C   UNL     1       5.965   5.869  16.232  0.00  0.00    +0.000 C 
ATOM      2  C   UNL     1       7.255   5.897  17.066  0.00  0.00    +0.000 C 
ATOM      3  C   UNL     1       7.546   4.590  17.770  0.00  0.00    +0.000 C 
ATOM      4  O   UNL     1       8.660   4.171  18.041  0.00  0.00    +0.000 OA
ATOM      5  N   UNL     1       6.448   3.827  18.284  0.00  0.00    +0.000 N 
ATOM      6  C   UNL     1       5.177   4.134  17.872  0.00  0.00    +0.000 A 
ATOM      7  C   UNL     1       4.912   5.068  16.904  0.00  0.00    +0.000 A 
ATOM      8  N   UNL     1       3.560   5.165  16.697  0.00  0.00    +0.000 NA
ATOM      9  C   UNL     1       3.012   4.257  17.507  0.00  0.00    +0.000 A 
ATOM     10  N   UNL     1       3.973   3.630  18.248  0.00  0.00    +0.000 N 
ATOM     11  C   UNL     1       3.745   2.637  19.259  0.00  0.00    +0.000 C 
ATOM     12  C   UNL     1       2.300   2.219  19.486  0.00  0.00    +0.000 C 
ATOM     13  C   UNL     1       1.206   2.863  18.640  0.00  0.00    +0.000 C 
ATOM     14  C   UNL     1       1.571   3.930  17.606  0.00  0.00    +0.000 C 
ATOM     15  H   UNL     1       6.654   3.041  18.886  0.00  0.00    +0.000 HD
ENDROOT
BRANCH   1  19
ATOM     16  C   UNL     1       6.743   3.886  12.441  0.00  0.00    +0.000 A 
ATOM     17  C   UNL     1       7.698   4.721  13.041  0.00  0.00    +0.000 A 
ATOM     18  C   UNL     1       7.441   5.370  14.250  0.00  0.00    +0.000 A 
ATOM     19  C   UNL     1       6.185   5.272  14.856  0.00  0.00    +0.000 A 
ATOM     20  C   UNL     1       5.200   4.531  14.182  0.00  0.00    +0.000 A 
ATOM     21  C   UNL     1       5.460   3.826  12.996  0.00  0.00    +0.000 A 
BRANCH  16  23
ATOM     22  C   UNL     1       7.043   1.729  11.516  0.00  0.00    +0.000 C 
ATOM     23  O   UNL     1       7.053   3.149  11.330  0.00  0.00    +0.000 OA
ENDBRANCH  16  23
BRANCH  21  24
ATOM     24  O   UNL     1       4.351   3.135  12.595  0.00  0.00    +0.000 OA
ATOM     25  C   UNL     1       3.824   3.337  11.297  0.00  0.00    +0.000 C 
ENDBRANCH  21  24
ENDBRANCH   1  19
TORSDOF 3
ENDMDL
MODEL 6
REMARK VINA RESULT:      -6.9      8.009      9.800
REMARK  Name = 
REMARK  5 active torsions:
REMARK  status: ('A' for Active; 'I' for Inactive)
REMARK    1  A    between atoms: C_1  and  O_2
REMARK    2  A    between atoms: O_2  and  C_3
REMARK    3  A    between atoms: C_6  and  C_7
REMARK    4  A    between atoms: C_22  and  O_23
REMARK    5  A    between atoms: O_23  and  C_24
REMARK                            x       y       z     vdW  Elec       q    Type
REMARK                         _______ _______ _______ _____ _____    ______ ____
ROOT
ATOM      1  C   UNL     1       0.343  11.824  18.572  0.00  0.00    +0.000 C 
ATOM      2  C   UNL     1       0.839  12.830  19.623  0.00  0.00    +0.000 C 
ATOM      3  C   UNL     1      -0.026  12.882  20.863  0.00  0.00    +0.000 C 
ATOM      4  O   UNL     1       0.369  13.157  21.984  0.00  0.00    +0.000 OA
ATOM      5  N   UNL     1      -1.443  12.727  20.719  0.00  0.00    +0.000 N 
ATOM      6  C   UNL     1      -1.941  12.245  19.536  0.00  0.00    +0.000 A 
ATOM      7  C   UNL     1      -1.141  11.797  18.518  0.00  0.00    +0.000 A 
ATOM      8  N   UNL     1      -1.908  11.375  17.464  0.00  0.00    +0.000 NA
ATOM      9  C   UNL     1      -3.172  11.525  17.863  0.00  0.00    +0.000 A 
ATOM     10  N   UNL     1      -3.221  12.072  19.114  0.00  0.00    +0.000 N 
ATOM     11  C   UNL     1      -4.410  12.423  19.837  0.00  0.00    +0.000 C 
ATOM     12  C   UNL     1      -5.734  12.111  19.157  0.00  0.00    +0.000 C 
ATOM     13  C   UNL     1      -5.717  11.452  17.780  0.00  0.00    +0.000 C 
ATOM     14  C   UNL     1      -4.382  11.146  17.098  0.00  0.00    +0.000 C 
ATOM     15  H   UNL     1      -2.027  12.919  21.522  0.00  0.00    +0.000 HD
ENDROOT
BRANCH   1  19
ATOM     16  C   UNL     1       2.012   7.905  19.445  0.00  0.00    +0.000 A 
ATOM     17  C   UNL     1       2.007   8.426  18.142  0.00  0.00    +0.000 A 
ATOM     18  C   UNL     1       1.456   9.677  17.861  0.00  0.00    +0.000 A 
ATOM     19  C   UNL     1       0.815  10.413  18.861  0.00  0.00    +0.000 A 
ATOM     20  C   UNL     1       0.721   9.826  20.134  0.00  0.00    +0.000 A 
ATOM     21  C   UNL     1       1.319   8.595  20.447  0.00  0.00    +0.000 A 
BRANCH  16  23
ATOM     22  C   UNL     1       2.481   5.679  18.797  0.00  0.00    +0.000 C 
ATOM     23  O   UNL     1       2.674   6.743  19.735  0.00  0.00    +0.000 OA
ENDBRANCH  16  23
BRANCH  21  24
ATOM     24  O   UNL     1       1.137   8.294  21.767  0.00  0.00    +0.000 OA
ATOM     25  C   UNL     1       0.603   9.268  22.646  0.00  0.00    +0.000 C 
ENDBRANCH  21  24
ENDBRANCH   1  19
TORSDOF 3
ENDMDL
MODEL 7
REMARK VINA RESULT:      -6.9      9.592     11.641
REMARK  Name = 
REMARK  5 active torsions:
REMARK  status: ('A' for Active; 'I' for Inactive)
REMARK    1  A    between atoms: C_1  and  O_2
REMARK    2  A    between atoms: O_2  and  C_3
REMARK    3  A    between atoms: C_6  and  C_7
REMARK    4  A    between atoms: C_22  and  O_23
REMARK    5  A    between atoms: O_23  and  C_24
REMARK                            x       y       z     vdW  Elec       q    Type
REMARK                         _______ _______ _______ _____ _____    ______ ____
ROOT
ATOM      1  C   UNL     1      -2.953  10.023  17.648  0.00  0.00    +0.000 C 
ATOM      2  C   UNL     1      -2.991   9.470  16.214  0.00  0.00    +0.000 C 
ATOM      3  C   UNL     1      -3.373  10.506  15.179  0.00  0.00    +0.000 C 
ATOM      4  O   UNL     1      -3.001  10.507  14.016  0.00  0.00    +0.000 OA
ATOM      5  N   UNL     1      -4.347  11.498  15.527  0.00  0.00    +0.000 N 
ATOM      6  C   UNL     1      -4.675  11.671  16.846  0.00  0.00    +0.000 A 
ATOM      7  C   UNL     1      -4.036  11.014  17.866  0.00  0.00    +0.000 A 
ATOM      8  N   UNL     1      -4.571  11.381  19.074  0.00  0.00    +0.000 NA
ATOM      9  C   UNL     1      -5.501  12.292  18.787  0.00  0.00    +0.000 A 
ATOM     10  N   UNL     1      -5.600  12.473  17.436  0.00  0.00    +0.000 N 
ATOM     11  C   UNL     1      -6.530  13.334  16.764  0.00  0.00    +0.000 C 
ATOM     12  C   UNL     1      -7.457  14.152  17.649  0.00  0.00    +0.000 C 
ATOM     13  C   UNL     1      -7.340  14.015  19.165  0.00  0.00    +0.000 C 
ATOM     14  C   UNL     1      -6.323  13.043  19.764  0.00  0.00    +0.000 C 
ATOM     15  H   UNL     1      -4.712  12.085  14.789  0.00  0.00    +0.000 HD
ENDROOT
BRANCH   1  19
ATOM     16  C   UNL     1       0.721  11.993  18.884  0.00  0.00    +0.000 A 
ATOM     17  C   UNL     1      -0.423  12.727  18.537  0.00  0.00    +0.000 A 
ATOM     18  C   UNL     1      -1.597  12.094  18.125  0.00  0.00    +0.000 A 
ATOM     19  C   UNL     1      -1.638  10.706  17.964  0.00  0.00    +0.000 A 
ATOM     20  C   UNL     1      -0.448   9.995  18.198  0.00  0.00    +0.000 A 
ATOM     21  C   UNL     1       0.723  10.610  18.668  0.00  0.00    +0.000 A 
BRANCH  16  23
ATOM     22  C   UNL     1       2.541  13.459  18.514  0.00  0.00    +0.000 C 
ATOM     23  O   UNL     1       1.819  12.613  19.416  0.00  0.00    +0.000 OA
ENDBRANCH  16  23
BRANCH  21  24
ATOM     24  O   UNL     1       1.702   9.681  18.879  0.00  0.00    +0.000 OA
ATOM     25  C   UNL     1       2.119   8.840  17.818  0.00  0.00    +0.000 C 
ENDBRANCH  21  24
ENDBRANCH   1  19
TORSDOF 3
ENDMDL
MODEL 8
REMARK VINA RESULT:      -6.8     10.650     12.077
REMARK  Name = 
REMARK  5 active torsions:
REMARK  status: ('A' for Active; 'I' for Inactive)
REMARK    1  A    between atoms: C_1  and  O_2
REMARK    2  A    between atoms: O_2  and  C_3
REMARK    3  A    between atoms: C_6  and  C_7
REMARK    4  A    between atoms: C_22  and  O_23
REMARK    5  A    between atoms: O_23  and  C_24
REMARK                            x       y       z     vdW  Elec       q    Type
REMARK                         _______ _______ _______ _____ _____    ______ ____
ROOT
ATOM      1  C   UNL     1      -2.152  13.081  20.778  0.00  0.00    +0.000 C 
ATOM      2  C   UNL     1      -1.080  12.683  21.805  0.00  0.00    +0.000 C 
ATOM      3  C   UNL     1      -1.584  11.722  22.860  0.00  0.00    +0.000 C 
ATOM      4  O   UNL     1      -0.903  10.888  23.433  0.00  0.00    +0.000 OA
ATOM      5  N   UNL     1      -2.928  11.868  23.335  0.00  0.00    +0.000 N 
ATOM      6  C   UNL     1      -3.800  12.654  22.628  0.00  0.00    +0.000 A 
ATOM      7  C   UNL     1      -3.482  13.223  21.422  0.00  0.00    +0.000 A 
ATOM      8  N   UNL     1      -4.541  13.951  20.948  0.00  0.00    +0.000 NA
ATOM      9  C   UNL     1      -5.515  13.784  21.844  0.00  0.00    +0.000 A 
ATOM     10  N   UNL     1      -5.084  13.015  22.888  0.00  0.00    +0.000 N 
ATOM     11  C   UNL     1      -5.843  12.675  24.057  0.00  0.00    +0.000 C 
ATOM     12  C   UNL     1      -7.275  13.185  24.107  0.00  0.00    +0.000 C 
ATOM     13  C   UNL     1      -7.807  14.004  22.935  0.00  0.00    +0.000 C 
ATOM     14  C   UNL     1      -6.892  14.323  21.752  0.00  0.00    +0.000 C 
ATOM     15  H   UNL     1      -3.207  11.331  24.145  0.00  0.00    +0.000 HD
ENDROOT
BRANCH   1  19
ATOM     16  C   UNL     1      -2.486  10.406  17.366  0.00  0.00    +0.000 A 
ATOM     17  C   UNL     1      -3.594  11.119  17.851  0.00  0.00    +0.000 A 
ATOM     18  C   UNL     1      -3.488  11.965  18.956  0.00  0.00    +0.000 A 
ATOM     19  C   UNL     1      -2.289  12.060  19.667  0.00  0.00    +0.000 A 
ATOM     20  C   UNL     1      -1.223  11.249  19.244  0.00  0.00    +0.000 A 
ATOM     21  C   UNL     1      -1.295  10.437  18.101  0.00  0.00    +0.000 A 
BRANCH  16  23
ATOM     22  C   UNL     1      -2.981  10.432  15.053  0.00  0.00    +0.000 C 
ATOM     23  O   UNL     1      -2.566   9.688  16.204  0.00  0.00    +0.000 OA
ENDBRANCH  16  23
BRANCH  21  24
ATOM     24  O   UNL     1      -0.099   9.813  17.878  0.00  0.00    +0.000 OA
ATOM     25  C   UNL     1       0.932   9.897  18.845  0.00  0.00    +0.000 C 
ENDBRANCH  21  24
ENDBRANCH   1  19
TORSDOF 3
ENDMDL
MODEL 9
REMARK VINA RESULT:      -6.7      7.154      9.290
REMARK  Name = 
REMARK  5 active torsions:
REMARK  status: ('A' for Active; 'I' for Inactive)
REMARK    1  A    between atoms: C_1  and  O_2
REMARK    2  A    between atoms: O_2  and  C_3
REMARK    3  A    between atoms: C_6  and  C_7
REMARK    4  A    between atoms: C_22  and  O_23
REMARK    5  A    between atoms: O_23  and  C_24
REMARK                            x       y       z     vdW  Elec       q    Type
REMARK                         _______ _______ _______ _____ _____    ______ ____
ROOT
ATOM      1  C   UNL     1       0.543  10.595  18.828  0.00  0.00    +0.000 C 
ATOM      2  C   UNL     1      -0.565  10.379  19.871  0.00  0.00    +0.000 C 
ATOM      3  C   UNL     1      -0.114   9.577  21.072  0.00  0.00    +0.000 C 
ATOM      4  O   UNL     1      -0.564   9.690  22.201  0.00  0.00    +0.000 OA
ATOM      5  N   UNL     1       0.819   8.508  20.874  0.00  0.00    +0.000 N 
ATOM      6  C   UNL     1       1.498   8.432  19.685  0.00  0.00    +0.000 A 
ATOM      7  C   UNL     1       1.409   9.395  18.713  0.00  0.00    +0.000 A 
ATOM      8  N   UNL     1       2.192   9.057  17.640  0.00  0.00    +0.000 NA
ATOM      9  C   UNL     1       2.788   7.914  17.983  0.00  0.00    +0.000 A 
ATOM     10  N   UNL     1       2.368   7.501  19.215  0.00  0.00    +0.000 N 
ATOM     11  C   UNL     1       2.757   6.289  19.878  0.00  0.00    +0.000 C 
ATOM     12  C   UNL     1       3.766   5.413  19.152  0.00  0.00    +0.000 C 
ATOM     13  C   UNL     1       4.297   5.869  17.796  0.00  0.00    +0.000 C 
ATOM     14  C   UNL     1       3.788   7.173  17.179  0.00  0.00    +0.000 C 
ATOM     15  H   UNL     1       0.995   7.881  21.647  0.00  0.00    +0.000 HD
ENDROOT
BRANCH   1  19
ATOM     16  C   UNL     1       2.872  14.170  19.669  0.00  0.00    +0.000 A 
ATOM     17  C   UNL     1       3.020  13.464  18.465  0.00  0.00    +0.000 A 
ATOM     18  C   UNL     1       2.284  12.308  18.203  0.00  0.00    +0.000 A 
ATOM     19  C   UNL     1       1.435  11.770  19.175  0.00  0.00    +0.000 A 
ATOM     20  C   UNL     1       1.388  12.419  20.420  0.00  0.00    +0.000 A 
ATOM     21  C   UNL     1       2.077  13.614  20.679  0.00  0.00    +0.000 A 
BRANCH  16  23
ATOM     22  C   UNL     1       2.735  16.523  19.469  0.00  0.00    +0.000 C 
ATOM     23  O   UNL     1       3.494  15.374  19.859  0.00  0.00    +0.000 OA
ENDBRANCH  16  23
BRANCH  21  24
ATOM     24  O   UNL     1       1.799  14.067  21.938  0.00  0.00    +0.000 OA
ATOM     25  C   UNL     1       0.582  14.743  22.192  0.00  0.00    +0.000 C 
ENDBRANCH  21  24
ENDBRANCH   1  19
TORSDOF 3
ENDMDL
