MODEL 1
REMARK VINA RESULT:      -8.4      0.000      0.000
REMARK  Name = 
REMARK  7 active torsions:
REMARK  status: ('A' for Active; 'I' for Inactive)
REMARK    1  A    between atoms: N_1  and  C_2
REMARK    2  A    between atoms: C_2  and  C_3
REMARK    3  A    between atoms: C_3  and  C_4
REMARK    4  A    between atoms: C_4  and  N_5
REMARK    5  A    between atoms: C_11  and  N_12
REMARK    6  A    between atoms: C_13  and  C_15
REMARK    7  A    between atoms: C_15  and  O_17
REMARK                            x       y       z     vdW  Elec       q    Type
REMARK                         _______ _______ _______ _____ _____    ______ ____
ROOT
ATOM      1  N   UNL     1       2.929   5.451  19.834  0.00  0.00    +0.000 N 
ATOM      2  C   UNL     1       2.530   6.736  19.487  0.00  0.00    +0.000 A 
ATOM      3  C   UNL     1       2.968   7.303  18.298  0.00  0.00    +0.000 A 
ATOM      4  C   UNL     1       3.825   6.643  17.428  0.00  0.00    +0.000 A 
ATOM      5  C   UNL     1       4.297   7.284  16.290  0.00  0.00    +0.000 A 
ATOM      6  C   UNL     1       5.111   6.651  15.392  0.00  0.00    +0.000 A 
ATOM      7  C   UNL     1       5.488   5.311  15.544  0.00  0.00    +0.000 A 
ATOM      8  C   UNL     1       5.054   4.645  16.743  0.00  0.00    +0.000 A 
ATOM      9  C   UNL     1       4.220   5.319  17.711  0.00  0.00    +0.000 A 
ATOM     10  C   UNL     1       3.753   4.736  18.942  0.00  0.00    +0.000 A 
ATOM     11  O   UNL     1       4.087   3.586  19.202  0.00  0.00    +0.000 OA
ATOM     12  C   UNL     1       2.365   8.625  18.147  0.00  0.00    +0.000 C 
ATOM     13  O   UNL     1       2.456   9.391  17.201  0.00  0.00    +0.000 OA
ATOM     14  C   UNL     1       1.569   8.868  19.304  0.00  0.00    +0.000 A 
ATOM     15  C   UNL     1       0.829  10.014  19.567  0.00  0.00    +0.000 A 
ATOM     16  C   UNL     1       0.132  10.094  20.765  0.00  0.00    +0.000 A 
ATOM     17  C   UNL     1       0.192   9.031  21.679  0.00  0.00    +0.000 A 
ATOM     18  C   UNL     1       0.939   7.868  21.394  0.00  0.00    +0.000 A 
ATOM     19  C   UNL     1       1.644   7.777  20.169  0.00  0.00    +0.000 A 
ENDROOT
BRANCH   7  20
ATOM     20  N   UNL     1       6.304   4.655  14.533  0.00  0.00    +0.000 N 
ATOM     21  C   UNL     1       5.824   4.064  13.371  0.00  0.00    +0.000 C 
ATOM     22  O   UNL     1       4.628   3.981  13.142  0.00  0.00    +0.000 OA
ATOM     23  H   UNL     1       7.319   4.612  14.702  0.00  0.00    +0.000 HD
BRANCH  21  24
ATOM     24  C   UNL     1       6.714   3.462  12.341  0.00  0.00    +0.000 C 
ATOM     25  O   UNL     1       7.573   4.132  11.800  0.00  0.00    +0.000 OA
BRANCH  24  26
ATOM     26  O   UNL     1       6.559   2.165  11.977  0.00  0.00    +0.000 OA
ATOM     27  H   UNL     1       7.068   1.747  11.265  0.00  0.00    +0.000 HD
ENDBRANCH  24  26
ENDBRANCH  21  24
ENDBRANCH   7  20
BRANCH   1  28
ATOM     28  C   UNL     1       2.468   4.803  21.082  0.00  0.00    +0.000 C 
BRANCH  28  29
ATOM     29  C   UNL     1       1.272   3.850  20.873  0.00  0.00    +0.000 C 
BRANCH  29  30
ATOM     30  C   UNL     1       1.419   2.510  21.610  0.00  0.00    +0.000 C 
BRANCH  30  31
ATOM     31  N   UNL     1       2.832   2.244  21.871  0.00  0.00    +0.000 NA
ATOM     32  H   UNL     1       3.125   2.763  22.730  0.00  0.00    +0.000 HD
ATOM     33  H   UNL     1       3.403   2.606  21.072  0.00  0.00    +0.000 HD
ENDBRANCH  30  31
ENDBRANCH  29  30
ENDBRANCH  28  29
ENDBRANCH   1  28
TORSDOF 7
ENDMDL
MODEL 2
REMARK VINA RESULT:      -7.4      2.857      7.859
REMARK  Name = 
REMARK  7 active torsions:
REMARK  status: ('A' for Active; 'I' for Inactive)
REMARK    1  A    between atoms: N_1  and  C_2
REMARK    2  A    between atoms: C_2  and  C_3
REMARK    3  A    between atoms: C_3  and  C_4
REMARK    4  A    between atoms: C_4  and  N_5
REMARK    5  A    between atoms: C_11  and  N_12
REMARK    6  A    between atoms: C_13  and  C_15
REMARK    7  A    between atoms: C_15  and  O_17
REMARK                            x       y       z     vdW  Elec       q    Type
REMARK                         _______ _______ _______ _____ _____    ______ ____
ROOT
ATOM      1  N   UNL     1       3.346   4.389  19.413  0.00  0.00    +0.000 N 
ATOM      2  C   UNL     1       3.785   5.083  18.292  0.00  0.00    +0.000 A 
ATOM      3  C   UNL     1       3.368   6.389  18.075  0.00  0.00    +0.000 A 
ATOM      4  C   UNL     1       2.492   7.045  18.931  0.00  0.00    +0.000 A 
ATOM      5  C   UNL     1       2.043   8.323  18.627  0.00  0.00    +0.000 A 
ATOM      6  C   UNL     1       1.211   9.012  19.467  0.00  0.00    +0.000 A 
ATOM      7  C   UNL     1       0.792   8.489  20.695  0.00  0.00    +0.000 A 
ATOM      8  C   UNL     1       1.203   7.144  21.005  0.00  0.00    +0.000 A 
ATOM      9  C   UNL     1       2.055   6.400  20.107  0.00  0.00    +0.000 A 
ATOM     10  C   UNL     1       2.501   5.048  20.328  0.00  0.00    +0.000 A 
ATOM     11  O   UNL     1       2.131   4.476  21.346  0.00  0.00    +0.000 OA
ATOM     12  C   UNL     1       4.012   6.905  16.870  0.00  0.00    +0.000 C 
ATOM     13  O   UNL     1       3.946   8.031  16.403  0.00  0.00    +0.000 OA
ATOM     14  C   UNL     1       4.812   5.856  16.331  0.00  0.00    +0.000 A 
ATOM     15  C   UNL     1       5.587   5.923  15.180  0.00  0.00    +0.000 A 
ATOM     16  C   UNL     1       6.285   4.790  14.782  0.00  0.00    +0.000 A 
ATOM     17  C   UNL     1       6.189   3.612  15.537  0.00  0.00    +0.000 A 
ATOM     18  C   UNL     1       5.407   3.561  16.711  0.00  0.00    +0.000 A 
ATOM     19  C   UNL     1       4.702   4.717  17.127  0.00  0.00    +0.000 A 
ENDROOT
BRANCH   7  20
ATOM     20  N   UNL     1      -0.042   9.279  21.588  0.00  0.00    +0.000 N 
ATOM     21  C   UNL     1       0.188  10.604  21.941  0.00  0.00    +0.000 C 
ATOM     22  O   UNL     1       1.187  11.200  21.574  0.00  0.00    +0.000 OA
ATOM     23  H   UNL     1      -0.860   8.814  22.006  0.00  0.00    +0.000 HD
BRANCH  21  24
ATOM     24  C   UNL     1      -0.737  11.382  22.810  0.00  0.00    +0.000 C 
ATOM     25  O   UNL     1      -1.687  10.840  23.342  0.00  0.00    +0.000 OA
BRANCH  24  26
ATOM     26  O   UNL     1      -0.543  12.711  22.997  0.00  0.00    +0.000 OA
ATOM     27  H   UNL     1      -1.223  13.379  22.819  0.00  0.00    +0.000 HD
ENDBRANCH  24  26
ENDBRANCH  21  24
ENDBRANCH   7  20
BRANCH   1  28
ATOM     28  C   UNL     1       3.784   3.003  19.691  0.00  0.00    +0.000 C 
BRANCH  28  29
ATOM     29  C   UNL     1       2.961   1.936  18.939  0.00  0.00    +0.000 C 
BRANCH  29  30
ATOM     30  C   UNL     1       1.794   2.521  18.129  0.00  0.00    +0.000 C 
BRANCH  30  31
ATOM     31  N   UNL     1       0.542   1.892  18.545  0.00  0.00    +0.000 NA
ATOM     32  H   UNL     1       0.745   1.184  19.286  0.00  0.00    +0.000 HD
ATOM     33  H   UNL     1       0.124   1.387  17.729  0.00  0.00    +0.000 HD
ENDBRANCH  30  31
ENDBRANCH  29  30
ENDBRANCH  28  29
ENDBRANCH   1  28
TORSDOF 7
ENDMDL
MODEL 3
REMARK VINA RESULT:      -7.0      3.163      6.446
REMARK  Name = 
REMARK  7 active torsions:
REMARK  status: ('A' for Active; 'I' for Inactive)
REMARK    1  A    between atoms: N_1  and  C_2
REMARK    2  A    between atoms: C_2  and  C_3
REMARK    3  A    between atoms: C_3  and  C_4
REMARK    4  A    between atoms: C_4  and  N_5
REMARK    5  A    between atoms: C_11  and  N_12
REMARK    6  A    between atoms: C_13  and  C_15
REMARK    7  A    between atoms: C_15  and  O_17
REMARK                            x       y       z     vdW  Elec       q    Type
REMARK                         _______ _______ _______ _____ _____    ______ ____
ROOT
ATOM      1  N   UNL     1       0.633  11.127  19.042  0.00  0.00    +0.000 N 
ATOM      2  C   UNL     1       0.044  10.938  20.286  0.00  0.00    +0.000 A 
ATOM      3  C   UNL     1       0.222   9.741  20.965  0.00  0.00    +0.000 A 
ATOM      4  C   UNL     1       0.959   8.687  20.441  0.00  0.00    +0.000 A 
ATOM      5  C   UNL     1       1.041   7.481  21.125  0.00  0.00    +0.000 A 
ATOM      6  C   UNL     1       1.789   6.437  20.655  0.00  0.00    +0.000 A 
ATOM      7  C   UNL     1       2.545   6.531  19.481  0.00  0.00    +0.000 A 
ATOM      8  C   UNL     1       2.431   7.752  18.729  0.00  0.00    +0.000 A 
ATOM      9  C   UNL     1       1.616   8.847  19.203  0.00  0.00    +0.000 A 
ATOM     10  C   UNL     1       1.434  10.096  18.510  0.00  0.00    +0.000 A 
ATOM     11  O   UNL     1       1.999  10.250  17.435  0.00  0.00    +0.000 OA
ATOM     12  C   UNL     1      -0.449   9.820  22.261  0.00  0.00    +0.000 C 
ATOM     13  O   UNL     1      -0.453   8.993  23.159  0.00  0.00    +0.000 OA
ATOM     14  C   UNL     1      -1.079  11.096  22.339  0.00  0.00    +0.000 A 
ATOM     15  C   UNL     1      -1.833  11.576  23.403  0.00  0.00    +0.000 A 
ATOM     16  C   UNL     1      -2.402  12.838  23.297  0.00  0.00    +0.000 A 
ATOM     17  C   UNL     1      -2.212  13.592  22.130  0.00  0.00    +0.000 A 
ATOM     18  C   UNL     1      -1.435  13.097  21.061  0.00  0.00    +0.000 A 
ATOM     19  C   UNL     1      -0.844  11.814  21.168  0.00  0.00    +0.000 A 
ENDROOT
BRANCH   7  20
ATOM     20  N   UNL     1       3.378   5.418  19.049  0.00  0.00    +0.000 N 
ATOM     21  C   UNL     1       2.995   4.426  18.154  0.00  0.00    +0.000 C 
ATOM     22  O   UNL     1       1.861   4.371  17.707  0.00  0.00    +0.000 OA
ATOM     23  H   UNL     1       4.323   5.351  19.453  0.00  0.00    +0.000 HD
BRANCH  21  24
ATOM     24  C   UNL     1       3.913   3.346  17.701  0.00  0.00    +0.000 C 
ATOM     25  O   UNL     1       3.590   2.178  17.802  0.00  0.00    +0.000 OA
BRANCH  24  26
ATOM     26  O   UNL     1       5.133   3.654  17.195  0.00  0.00    +0.000 OA
ATOM     27  H   UNL     1       5.260   4.245  16.437  0.00  0.00    +0.000 HD
ENDBRANCH  24  26
ENDBRANCH  21  24
ENDBRANCH   7  20
BRANCH   1  28
ATOM     28  C   UNL     1       0.485  12.396  18.295  0.00  0.00    +0.000 C 
BRANCH  28  29
ATOM     29  C   UNL     1       1.194  13.590  18.968  0.00  0.00    +0.000 C 
BRANCH  29  30
ATOM     30  C   UNL     1       2.665  13.743  18.552  0.00  0.00    +0.000 C 
BRANCH  30  31
ATOM     31  N   UNL     1       2.908  13.002  17.317  0.00  0.00    +0.000 NA
ATOM     32  H   UNL     1       3.885  13.186  16.994  0.00  0.00    +0.000 HD
ATOM     33  H   UNL     1       2.258  13.351  16.574  0.00  0.00    +0.000 HD
ENDBRANCH  30  31
ENDBRANCH  29  30
ENDBRANCH  28  29
ENDBRANCH   1  28
TORSDOF 7
ENDMDL
MODEL 4
REMARK VINA RESULT:      -7.0      3.260      6.474
REMARK  Name = 
REMARK  7 active torsions:
REMARK  status: ('A' for Active; 'I' for Inactive)
REMARK    1  A    between atoms: N_1  and  C_2
REMARK    2  A    between atoms: C_2  and  C_3
REMARK    3  A    between atoms: C_3  and  C_4
REMARK    4  A    between atoms: C_4  and  N_5
REMARK    5  A    between atoms: C_11  and  N_12
REMARK    6  A    between atoms: C_13  and  C_15
REMARK    7  A    between atoms: C_15  and  O_17
REMARK                            x       y       z     vdW  Elec       q    Type
REMARK                         _______ _______ _______ _____ _____    ______ ____
ROOT
ATOM      1  N   UNL     1       0.698  11.253  19.100  0.00  0.00    +0.000 N 
ATOM      2  C   UNL     1       0.115  11.090  20.351  0.00  0.00    +0.000 A 
ATOM      3  C   UNL     1       0.257   9.889  21.033  0.00  0.00    +0.000 A 
ATOM      4  C   UNL     1       0.950   8.808  20.505  0.00  0.00    +0.000 A 
ATOM      5  C   UNL     1       0.996   7.602  21.192  0.00  0.00    +0.000 A 
ATOM      6  C   UNL     1       1.700   6.530  20.719  0.00  0.00    +0.000 A 
ATOM      7  C   UNL     1       2.446   6.592  19.536  0.00  0.00    +0.000 A 
ATOM      8  C   UNL     1       2.368   7.814  18.780  0.00  0.00    +0.000 A 
ATOM      9  C   UNL     1       1.599   8.940  19.260  0.00  0.00    +0.000 A 
ATOM     10  C   UNL     1       1.454  10.192  18.563  0.00  0.00    +0.000 A 
ATOM     11  O   UNL     1       2.013  10.322  17.482  0.00  0.00    +0.000 OA
ATOM     12  C   UNL     1      -0.396   9.997  22.336  0.00  0.00    +0.000 C 
ATOM     13  O   UNL     1      -0.420   9.175  23.237  0.00  0.00    +0.000 OA
ATOM     14  C   UNL     1      -0.979  11.296  22.416  0.00  0.00    +0.000 A 
ATOM     15  C   UNL     1      -1.702  11.806  23.486  0.00  0.00    +0.000 A 
ATOM     16  C   UNL     1      -2.226  13.088  23.382  0.00  0.00    +0.000 A 
ATOM     17  C   UNL     1      -2.022  13.831  22.210  0.00  0.00    +0.000 A 
ATOM     18  C   UNL     1      -1.276  13.304  21.134  0.00  0.00    +0.000 A 
ATOM     19  C   UNL     1      -0.730  12.001  21.240  0.00  0.00    +0.000 A 
ENDROOT
BRANCH   7  20
ATOM     20  N   UNL     1       3.233   5.448  19.099  0.00  0.00    +0.000 N 
ATOM     21  C   UNL     1       2.770   4.412  18.296  0.00  0.00    +0.000 C 
ATOM     22  O   UNL     1       1.603   4.345  17.949  0.00  0.00    +0.000 OA
ATOM     23  H   UNL     1       4.208   5.394  19.427  0.00  0.00    +0.000 HD
BRANCH  21  24
ATOM     24  C   UNL     1       3.641   3.299  17.830  0.00  0.00    +0.000 C 
ATOM     25  O   UNL     1       3.175   2.194  17.626  0.00  0.00    +0.000 OA
BRANCH  24  26
ATOM     26  O   UNL     1       4.971   3.500  17.652  0.00  0.00    +0.000 OA
ATOM     27  H   UNL     1       5.362   3.751  16.801  0.00  0.00    +0.000 HD
ENDBRANCH  24  26
ENDBRANCH  21  24
ENDBRANCH   7  20
BRANCH   1  28
ATOM     28  C   UNL     1       0.587  12.524  18.351  0.00  0.00    +0.000 C 
BRANCH  28  29
ATOM     29  C   UNL     1      -0.837  12.807  17.828  0.00  0.00    +0.000 C 
BRANCH  29  30
ATOM     30  C   UNL     1      -1.676  11.537  17.618  0.00  0.00    +0.000 C 
BRANCH  30  31
ATOM     31  N   UNL     1      -2.275  11.557  16.286  0.00  0.00    +0.000 NA
ATOM     32  H   UNL     1      -1.536  11.784  15.582  0.00  0.00    +0.000 HD
ATOM     33  H   UNL     1      -2.996  12.315  16.244  0.00  0.00    +0.000 HD
ENDBRANCH  30  31
ENDBRANCH  29  30
ENDBRANCH  28  29
ENDBRANCH   1  28
TORSDOF 7
ENDMDL
MODEL 5
REMARK VINA RESULT:      -6.9      2.834      7.821
REMARK  Name = 
REMARK  7 active torsions:
REMARK  status: ('A' for Active; 'I' for Inactive)
REMARK    1  A    between atoms: N_1  and  C_2
REMARK    2  A    between atoms: C_2  and  C_3
REMARK    3  A    between atoms: C_3  and  C_4
REMARK    4  A    between atoms: C_4  and  N_5
REMARK    5  A    between atoms: C_11  and  N_12
REMARK    6  A    between atoms: C_13  and  C_15
REMARK    7  A    between atoms: C_15  and  O_17
REMARK                            x       y       z     vdW  Elec       q    Type
REMARK                         _______ _______ _______ _____ _____    ______ ____
ROOT
ATOM      1  N   UNL     1       3.162   4.916  19.504  0.00  0.00    +0.000 N 
ATOM      2  C   UNL     1       3.688   5.423  18.322  0.00  0.00    +0.000 A 
ATOM      3  C   UNL     1       3.352   6.703  17.904  0.00  0.00    +0.000 A 
ATOM      4  C   UNL     1       2.476   7.514  18.614  0.00  0.00    +0.000 A 
ATOM      5  C   UNL     1       2.111   8.757  18.112  0.00  0.00    +0.000 A 
ATOM      6  C   UNL     1       1.281   9.596  18.803  0.00  0.00    +0.000 A 
ATOM      7  C   UNL     1       0.780   9.272  20.070  0.00  0.00    +0.000 A 
ATOM      8  C   UNL     1       1.103   7.967  20.583  0.00  0.00    +0.000 A 
ATOM      9  C   UNL     1       1.953   7.064  19.843  0.00  0.00    +0.000 A 
ATOM     10  C   UNL     1       2.314   5.737  20.274  0.00  0.00    +0.000 A 
ATOM     11  O   UNL     1       1.868   5.333  21.340  0.00  0.00    +0.000 OA
ATOM     12  C   UNL     1       4.078   7.012  16.674  0.00  0.00    +0.000 C 
ATOM     13  O   UNL     1       4.094   8.062  16.052  0.00  0.00    +0.000 OA
ATOM     14  C   UNL     1       4.843   5.860  16.328  0.00  0.00    +0.000 A 
ATOM     15  C   UNL     1       5.671   5.726  15.221  0.00  0.00    +0.000 A 
ATOM     16  C   UNL     1       6.323   4.517  15.021  0.00  0.00    +0.000 A 
ATOM     17  C   UNL     1       6.129   3.463  15.927  0.00  0.00    +0.000 A 
ATOM     18  C   UNL     1       5.294   3.616  17.054  0.00  0.00    +0.000 A 
ATOM     19  C   UNL     1       4.635   4.852  17.268  0.00  0.00    +0.000 A 
ENDROOT
BRANCH   7  20
ATOM     20  N   UNL     1      -0.049  10.220  20.799  0.00  0.00    +0.000 N 
ATOM     21  C   UNL     1      -0.007  10.436  22.172  0.00  0.00    +0.000 C 
ATOM     22  O   UNL     1       0.703   9.765  22.903  0.00  0.00    +0.000 OA
ATOM     23  H   UNL     1      -0.735  10.763  20.255  0.00  0.00    +0.000 HD
BRANCH  21  24
ATOM     24  C   UNL     1      -0.836  11.466  22.855  0.00  0.00    +0.000 C 
ATOM     25  O   UNL     1      -1.930  11.180  23.303  0.00  0.00    +0.000 OA
BRANCH  24  26
ATOM     26  O   UNL     1      -0.390  12.742  22.961  0.00  0.00    +0.000 OA
ATOM     27  H   UNL     1       0.265  13.024  23.618  0.00  0.00    +0.000 HD
ENDBRANCH  24  26
ENDBRANCH  21  24
ENDBRANCH   7  20
BRANCH   1  28
ATOM     28  C   UNL     1       3.511   3.564  19.995  0.00  0.00    +0.000 C 
BRANCH  28  29
ATOM     29  C   UNL     1       2.539   2.466  19.514  0.00  0.00    +0.000 C 
BRANCH  29  30
ATOM     30  C   UNL     1       1.441   2.129  20.535  0.00  0.00    +0.000 C 
BRANCH  30  31
ATOM     31  N   UNL     1       1.891   2.487  21.878  0.00  0.00    +0.000 NA
ATOM     32  H   UNL     1       1.335   3.303  22.219  0.00  0.00    +0.000 HD
ATOM     33  H   UNL     1       2.895   2.781  21.838  0.00  0.00    +0.000 HD
ENDBRANCH  30  31
ENDBRANCH  29  30
ENDBRANCH  28  29
ENDBRANCH   1  28
TORSDOF 7
ENDMDL
MODEL 6
REMARK VINA RESULT:      -6.8      2.784      7.745
REMARK  Name = 
REMARK  7 active torsions:
REMARK  status: ('A' for Active; 'I' for Inactive)
REMARK    1  A    between atoms: N_1  and  C_2
REMARK    2  A    between atoms: C_2  and  C_3
REMARK    3  A    between atoms: C_3  and  C_4
REMARK    4  A    between atoms: C_4  and  N_5
REMARK    5  A    between atoms: C_11  and  N_12
REMARK    6  A    between atoms: C_13  and  C_15
REMARK    7  A    between atoms: C_15  and  O_17
REMARK                            x       y       z     vdW  Elec       q    Type
REMARK                         _______ _______ _______ _____ _____    ______ ____
ROOT
ATOM      1  N   UNL     1       3.104   4.549  19.391  0.00  0.00    +0.000 N 
ATOM      2  C   UNL     1       3.651   5.133  18.254  0.00  0.00    +0.000 A 
ATOM      3  C   UNL     1       3.417   6.472  17.979  0.00  0.00    +0.000 A 
ATOM      4  C   UNL     1       2.623   7.273  18.789  0.00  0.00    +0.000 A 
ATOM      5  C   UNL     1       2.354   8.587  18.427  0.00  0.00    +0.000 A 
ATOM      6  C   UNL     1       1.608   9.414  19.220  0.00  0.00    +0.000 A 
ATOM      7  C   UNL     1       1.102   9.002  20.459  0.00  0.00    +0.000 A 
ATOM      8  C   UNL     1       1.323   7.629  20.828  0.00  0.00    +0.000 A 
ATOM      9  C   UNL     1       2.083   6.741  19.978  0.00  0.00    +0.000 A 
ATOM     10  C   UNL     1       2.340   5.352  20.261  0.00  0.00    +0.000 A 
ATOM     11  O   UNL     1       1.879   4.876  21.291  0.00  0.00    +0.000 OA
ATOM     12  C   UNL     1       4.145   6.848  16.769  0.00  0.00    +0.000 C 
ATOM     13  O   UNL     1       4.239   7.952  16.258  0.00  0.00    +0.000 OA
ATOM     14  C   UNL     1       4.806   5.680  16.288  0.00  0.00    +0.000 A 
ATOM     15  C   UNL     1       5.602   5.596  15.153  0.00  0.00    +0.000 A 
ATOM     16  C   UNL     1       6.148   4.365  14.814  0.00  0.00    +0.000 A 
ATOM     17  C   UNL     1       5.882   3.242  15.611  0.00  0.00    +0.000 A 
ATOM     18  C   UNL     1       5.081   3.344  16.768  0.00  0.00    +0.000 A 
ATOM     19  C   UNL     1       4.530   4.600  17.124  0.00  0.00    +0.000 A 
ENDROOT
BRANCH   7  20
ATOM     20  N   UNL     1       0.367   9.933  21.302  0.00  0.00    +0.000 N 
ATOM     21  C   UNL     1      -0.743  10.671  20.907  0.00  0.00    +0.000 C 
ATOM     22  O   UNL     1      -1.151  10.648  19.758  0.00  0.00    +0.000 OA
ATOM     23  H   UNL     1       0.707  10.068  22.264  0.00  0.00    +0.000 HD
BRANCH  21  24
ATOM     24  C   UNL     1      -1.494  11.562  21.834  0.00  0.00    +0.000 C 
ATOM     25  O   UNL     1      -1.913  12.637  21.452  0.00  0.00    +0.000 OA
BRANCH  24  26
ATOM     26  O   UNL     1      -1.694  11.193  23.124  0.00  0.00    +0.000 OA
ATOM     27  H   UNL     1      -1.601  10.279  23.437  0.00  0.00    +0.000 HD
ENDBRANCH  24  26
ENDBRANCH  21  24
ENDBRANCH   7  20
BRANCH   1  28
ATOM     28  C   UNL     1       3.347   3.130  19.731  0.00  0.00    +0.000 C 
BRANCH  28  29
ATOM     29  C   UNL     1       2.467   2.147  18.931  0.00  0.00    +0.000 C 
BRANCH  29  30
ATOM     30  C   UNL     1       1.075   2.704  18.595  0.00  0.00    +0.000 C 
BRANCH  30  31
ATOM     31  N   UNL     1       0.211   2.613  19.770  0.00  0.00    +0.000 NA
ATOM     32  H   UNL     1      -0.788   2.648  19.464  0.00  0.00    +0.000 HD
ATOM     33  H   UNL     1       0.383   3.440  20.388  0.00  0.00    +0.000 HD
ENDBRANCH  30  31
ENDBRANCH  29  30
ENDBRANCH  28  29
ENDBRANCH   1  28
TORSDOF 7
ENDMDL
MODEL 7
REMARK VINA RESULT:      -6.8      3.261      6.489
REMARK  Name = 
REMARK  7 active torsions:
REMARK  status: ('A' for Active; 'I' for Inactive)
REMARK    1  A    between atoms: N_1  and  C_2
REMARK    2  A    between atoms: C_2  and  C_3
REMARK    3  A    between atoms: C_3  and  C_4
REMARK    4  A    between atoms: C_4  and  N_5
REMARK    5  A    between atoms: C_11  and  N_12
REMARK    6  A    between atoms: C_13  and  C_15
REMARK    7  A    between atoms: C_15  and  O_17
REMARK                            x       y       z     vdW  Elec       q    Type
REMARK                         _______ _______ _______ _____ _____    ______ ____
ROOT
ATOM      1  N   UNL     1       0.715  11.333  19.056  0.00  0.00    +0.000 N 
ATOM      2  C   UNL     1       0.112  11.129  20.291  0.00  0.00    +0.000 A 
ATOM      3  C   UNL     1       0.253   9.910  20.941  0.00  0.00    +0.000 A 
ATOM      4  C   UNL     1       0.965   8.851  20.394  0.00  0.00    +0.000 A 
ATOM      5  C   UNL     1       1.010   7.626  21.048  0.00  0.00    +0.000 A 
ATOM      6  C   UNL     1       1.733   6.574  20.557  0.00  0.00    +0.000 A 
ATOM      7  C   UNL     1       2.499   6.677  19.390  0.00  0.00    +0.000 A 
ATOM      8  C   UNL     1       2.423   7.920  18.668  0.00  0.00    +0.000 A 
ATOM      9  C   UNL     1       1.635   9.024  19.165  0.00  0.00    +0.000 A 
ATOM     10  C   UNL     1       1.491  10.294  18.503  0.00  0.00    +0.000 A 
ATOM     11  O   UNL     1       2.068  10.460  17.436  0.00  0.00    +0.000 OA
ATOM     12  C   UNL     1      -0.424   9.975  22.234  0.00  0.00    +0.000 C 
ATOM     13  O   UNL     1      -0.457   9.127  23.111  0.00  0.00    +0.000 OA
ATOM     14  C   UNL     1      -1.021  11.266  22.340  0.00  0.00    +0.000 A 
ATOM     15  C   UNL     1      -1.768  11.739  23.411  0.00  0.00    +0.000 A 
ATOM     16  C   UNL     1      -2.302  13.019  23.334  0.00  0.00    +0.000 A 
ATOM     17  C   UNL     1      -2.084  13.796  22.187  0.00  0.00    +0.000 A 
ATOM     18  C   UNL     1      -1.313  13.307  21.111  0.00  0.00    +0.000 A 
ATOM     19  C   UNL     1      -0.758  12.007  21.189  0.00  0.00    +0.000 A 
ENDROOT
BRANCH   7  20
ATOM     20  N   UNL     1       3.304   5.553  18.935  0.00  0.00    +0.000 N 
ATOM     21  C   UNL     1       4.449   5.648  18.153  0.00  0.00    +0.000 C 
ATOM     22  O   UNL     1       4.833   6.718  17.708  0.00  0.00    +0.000 OA
ATOM     23  H   UNL     1       2.990   4.609  19.202  0.00  0.00    +0.000 HD
BRANCH  21  24
ATOM     24  C   UNL     1       5.269   4.466  17.770  0.00  0.00    +0.000 C 
ATOM     25  O   UNL     1       5.300   4.084  16.616  0.00  0.00    +0.000 OA
BRANCH  24  26
ATOM     26  O   UNL     1       5.968   3.787  18.712  0.00  0.00    +0.000 OA
ATOM     27  H   UNL     1       6.859   4.041  19.000  0.00  0.00    +0.000 HD
ENDBRANCH  24  26
ENDBRANCH  21  24
ENDBRANCH   7  20
BRANCH   1  28
ATOM     28  C   UNL     1       0.606  12.624  18.341  0.00  0.00    +0.000 C 
BRANCH  28  29
ATOM     29  C   UNL     1       1.442  13.752  18.981  0.00  0.00    +0.000 C 
BRANCH  29  30
ATOM     30  C   UNL     1       2.585  14.252  18.085  0.00  0.00    +0.000 C 
BRANCH  30  31
ATOM     31  N   UNL     1       3.481  13.143  17.764  0.00  0.00    +0.000 NA
ATOM     32  H   UNL     1       3.707  12.622  18.641  0.00  0.00    +0.000 HD
ATOM     33  H   UNL     1       4.377  13.525  17.382  0.00  0.00    +0.000 HD
ENDBRANCH  30  31
ENDBRANCH  29  30
ENDBRANCH  28  29
ENDBRANCH   1  28
TORSDOF 7
ENDMDL
MODEL 8
REMARK VINA RESULT:      -6.8      3.605      6.998
REMARK  Name = 
REMARK  7 active torsions:
REMARK  status: ('A' for Active; 'I' for Inactive)
REMARK    1  A    between atoms: N_1  and  C_2
REMARK    2  A    between atoms: C_2  and  C_3
REMARK    3  A    between atoms: C_3  and  C_4
REMARK    4  A    between atoms: C_4  and  N_5
REMARK    5  A    between atoms: C_11  and  N_12
REMARK    6  A    between atoms: C_13  and  C_15
REMARK    7  A    between atoms: C_15  and  O_17
REMARK                            x       y       z     vdW  Elec       q    Type
REMARK                         _______ _______ _______ _____ _____    ______ ____
ROOT
ATOM      1  N   UNL     1      -0.921  11.096  18.931  0.00  0.00    +0.000 N 
ATOM      2  C   UNL     1      -1.090  11.251  20.302  0.00  0.00    +0.000 A 
ATOM      3  C   UNL     1      -0.414  10.420  21.185  0.00  0.00    +0.000 A 
ATOM      4  C   UNL     1       0.425   9.400  20.755  0.00  0.00    +0.000 A 
ATOM      5  C   UNL     1       1.016   8.545  21.677  0.00  0.00    +0.000 A 
ATOM      6  C   UNL     1       1.877   7.555  21.291  0.00  0.00    +0.000 A 
ATOM      7  C   UNL     1       2.243   7.366  19.953  0.00  0.00    +0.000 A 
ATOM      8  C   UNL     1       1.601   8.206  18.977  0.00  0.00    +0.000 A 
ATOM      9  C   UNL     1       0.666   9.233  19.376  0.00  0.00    +0.000 A 
ATOM     10  C   UNL     1      -0.032  10.106  18.468  0.00  0.00    +0.000 A 
ATOM     11  O   UNL     1       0.168   9.974  17.267  0.00  0.00    +0.000 OA
ATOM     12  C   UNL     1      -0.719  10.826  22.555  0.00  0.00    +0.000 C 
ATOM     13  O   UNL     1      -0.259  10.379  23.593  0.00  0.00    +0.000 OA
ATOM     14  C   UNL     1      -1.638  11.913  22.484  0.00  0.00    +0.000 A 
ATOM     15  C   UNL     1      -2.192  12.591  23.563  0.00  0.00    +0.000 A 
ATOM     16  C   UNL     1      -3.098  13.613  23.311  0.00  0.00    +0.000 A 
ATOM     17  C   UNL     1      -3.437  13.932  21.988  0.00  0.00    +0.000 A 
ATOM     18  C   UNL     1      -2.858  13.242  20.901  0.00  0.00    +0.000 A 
ATOM     19  C   UNL     1      -1.926  12.206  21.153  0.00  0.00    +0.000 A 
ENDROOT
BRANCH   7  20
ATOM     20  N   UNL     1       3.212   6.342  19.592  0.00  0.00    +0.000 N 
ATOM     21  C   UNL     1       2.907   5.026  19.264  0.00  0.00    +0.000 C 
ATOM     22  O   UNL     1       1.766   4.597  19.333  0.00  0.00    +0.000 OA
ATOM     23  H   UNL     1       4.206   6.610  19.595  0.00  0.00    +0.000 HD
BRANCH  21  24
ATOM     24  C   UNL     1       3.936   4.037  18.841  0.00  0.00    +0.000 C 
ATOM     25  O   UNL     1       3.680   3.204  17.993  0.00  0.00    +0.000 OA
BRANCH  24  26
ATOM     26  O   UNL     1       5.164   4.041  19.416  0.00  0.00    +0.000 OA
ATOM     27  H   UNL     1       5.620   3.235  19.703  0.00  0.00    +0.000 HD
ENDBRANCH  24  26
ENDBRANCH  21  24
ENDBRANCH   7  20
BRANCH   1  28
ATOM     28  C   UNL     1      -1.607  11.975  17.959  0.00  0.00    +0.000 C 
BRANCH  28  29
ATOM     29  C   UNL     1      -2.988  11.446  17.521  0.00  0.00    +0.000 C 
BRANCH  29  30
ATOM     30  C   UNL     1      -3.060  11.077  16.031  0.00  0.00    +0.000 C 
BRANCH  30  31
ATOM     31  N   UNL     1      -2.617   9.698  15.843  0.00  0.00    +0.000 NA
ATOM     32  H   UNL     1      -1.779   9.689  15.219  0.00  0.00    +0.000 HD
ATOM     33  H   UNL     1      -3.374   9.156  15.365  0.00  0.00    +0.000 HD
ENDBRANCH  30  31
ENDBRANCH  29  30
ENDBRANCH  28  29
ENDBRANCH   1  28
TORSDOF 7
ENDMDL
MODEL 9
REMARK VINA RESULT:      -6.7      3.449      8.730
REMARK  Name = 
REMARK  7 active torsions:
REMARK  status: ('A' for Active; 'I' for Inactive)
REMARK    1  A    between atoms: N_1  and  C_2
REMARK    2  A    between atoms: C_2  and  C_3
REMARK    3  A    between atoms: C_3  and  C_4
REMARK    4  A    between atoms: C_4  and  N_5
REMARK    5  A    between atoms: C_11  and  N_12
REMARK    6  A    between atoms: C_13  and  C_15
REMARK    7  A    between atoms: C_15  and  O_17
REMARK                            x       y       z     vdW  Elec       q    Type
REMARK                         _______ _______ _______ _____ _____    ______ ____
ROOT
ATOM      1  N   UNL     1       3.398   6.834  17.769  0.00  0.00    +0.000 N 
ATOM      2  C   UNL     1       3.006   5.693  18.457  0.00  0.00    +0.000 A 
ATOM      3  C   UNL     1       2.100   5.789  19.505  0.00  0.00    +0.000 A 
ATOM      4  C   UNL     1       1.572   7.002  19.926  0.00  0.00    +0.000 A 
ATOM      5  C   UNL     1       0.731   7.054  21.030  0.00  0.00    +0.000 A 
ATOM      6  C   UNL     1       0.164   8.227  21.448  0.00  0.00    +0.000 A 
ATOM      7  C   UNL     1       0.365   9.435  20.771  0.00  0.00    +0.000 A 
ATOM      8  C   UNL     1       1.275   9.413  19.656  0.00  0.00    +0.000 A 
ATOM      9  C   UNL     1       1.903   8.184  19.230  0.00  0.00    +0.000 A 
ATOM     10  C   UNL     1       2.836   8.073  18.138  0.00  0.00    +0.000 A 
ATOM     11  O   UNL     1       3.131   9.089  17.524  0.00  0.00    +0.000 OA
ATOM     12  C   UNL     1       1.814   4.451  20.017  0.00  0.00    +0.000 C 
ATOM     13  O   UNL     1       1.018   4.130  20.884  0.00  0.00    +0.000 OA
ATOM     14  C   UNL     1       2.606   3.530  19.271  0.00  0.00    +0.000 A 
ATOM     15  C   UNL     1       2.643   2.152  19.443  0.00  0.00    +0.000 A 
ATOM     16  C   UNL     1       3.499   1.405  18.643  0.00  0.00    +0.000 A 
ATOM     17  C   UNL     1       4.305   2.051  17.694  0.00  0.00    +0.000 A 
ATOM     18  C   UNL     1       4.250   3.450  17.522  0.00  0.00    +0.000 A 
ATOM     19  C   UNL     1       3.370   4.215  18.328  0.00  0.00    +0.000 A 
ENDROOT
BRANCH   7  20
ATOM     20  N   UNL     1      -0.308  10.648  21.211  0.00  0.00    +0.000 N 
ATOM     21  C   UNL     1      -0.487  11.034  22.534  0.00  0.00    +0.000 C 
ATOM     22  O   UNL     1      -0.146  10.318  23.461  0.00  0.00    +0.000 OA
ATOM     23  H   UNL     1      -0.699  11.262  20.482  0.00  0.00    +0.000 HD
BRANCH  21  24
ATOM     24  C   UNL     1      -1.129  12.319  22.923  0.00  0.00    +0.000 C 
ATOM     25  O   UNL     1      -0.450  13.280  23.233  0.00  0.00    +0.000 OA
BRANCH  24  26
ATOM     26  O   UNL     1      -2.480  12.424  22.959  0.00  0.00    +0.000 OA
ATOM     27  H   UNL     1      -3.074  11.657  22.958  0.00  0.00    +0.000 HD
ENDBRANCH  24  26
ENDBRANCH  21  24
ENDBRANCH   7  20
BRANCH   1  28
ATOM     28  C   UNL     1       4.345   6.772  16.634  0.00  0.00    +0.000 C 
BRANCH  28  29
ATOM     29  C   UNL     1       5.814   7.006  17.045  0.00  0.00    +0.000 C 
BRANCH  29  30
ATOM     30  C   UNL     1       6.714   5.779  16.830  0.00  0.00    +0.000 C 
BRANCH  30  31
ATOM     31  N   UNL     1       7.278   5.812  15.483  0.00  0.00    +0.000 NA
ATOM     32  H   UNL     1       6.981   6.695  15.009  0.00  0.00    +0.000 HD
ATOM     33  H   UNL     1       6.894   5.010  14.930  0.00  0.00    +0.000 HD
ENDBRANCH  30  31
ENDBRANCH  29  30
ENDBRANCH  28  29
ENDBRANCH   1  28
TORSDOF 7
ENDMDL
