MODEL 1
REMARK VINA RESULT:      -7.6      0.000      0.000
REMARK  Name = 
REMARK  7 active torsions:
REMARK  status: ('A' for Active; 'I' for Inactive)
REMARK    1  A    between atoms: C_2  and  C_12
REMARK    2  A    between atoms: N_3  and  C_4
REMARK    3  A    between atoms: C_4  and  C_5
REMARK    4  A    between atoms: C_15  and  O_16
REMARK    5  A    between atoms: O_16  and  C_17
REMARK    6  A    between atoms: C_17  and  C_18
REMARK    7  A    between atoms: C_18  and  C_19
REMARK                            x       y       z     vdW  Elec       q    Type
REMARK                         _______ _______ _______ _____ _____    ______ ____
ROOT
ATOM      1  C   UNL     1       6.228   5.880  17.755  0.00  0.00    +0.000 A 
ATOM      2  C   UNL     1       7.182   5.686  18.756  0.00  0.00    +0.000 A 
ATOM      3  C   UNL     1       8.156   6.661  18.971  0.00  0.00    +0.000 A 
ATOM      4  C   UNL     1       8.115   7.811  18.200  0.00  0.00    +0.000 A 
ATOM      5  N   UNL     1       7.191   8.036  17.239  0.00  0.00    +0.000 NA
ATOM      6  C   UNL     1       6.265   7.068  17.042  0.00  0.00    +0.000 A 
ENDROOT
BRANCH   1   8
ATOM      7  O   UNL     1       4.424   4.990  16.559  0.00  0.00    +0.000 OA
ATOM      8  C   UNL     1       5.186   4.859  17.512  0.00  0.00    +0.000 C 
ATOM      9  N   UNL     1       5.124   3.818  18.414  0.00  0.00    +0.000 N 
ATOM     10  H   UNL     1       5.639   3.860  19.282  0.00  0.00    +0.000 HD
BRANCH   9  11
ATOM     11  C   UNL     1       4.126   2.774  18.296  0.00  0.00    +0.000 C 
BRANCH  11  12
ATOM     12  C   UNL     1       3.057   2.886  19.352  0.00  0.00    +0.000 A 
ATOM     13  C   UNL     1       3.324   2.373  20.635  0.00  0.00    +0.000 A 
ATOM     14  C   UNL     1       2.383   2.472  21.662  0.00  0.00    +0.000 A 
ATOM     15  C   UNL     1       1.155   3.081  21.423  0.00  0.00    +0.000 A 
ATOM     16  C   UNL     1       0.863   3.572  20.151  0.00  0.00    +0.000 A 
ATOM     17  C   UNL     1       1.803   3.468  19.119  0.00  0.00    +0.000 A 
ATOM     18 CL   UNL     1       1.353   4.076  17.565  0.00  0.00    +0.000 Cl
ENDBRANCH  11  12
ENDBRANCH   9  11
ENDBRANCH   1   8
BRANCH   4  19
ATOM     19  O   UNL     1       9.105   8.750  18.413  0.00  0.00    +0.000 OA
BRANCH  19  20
ATOM     20  C   UNL     1       8.593  10.087  18.369  0.00  0.00    +0.000 C 
BRANCH  20  21
ATOM     21  C   UNL     1       9.388  10.948  19.335  0.00  0.00    +0.000 C 
BRANCH  21  22
ATOM     22  C   UNL     1      10.595  11.553  18.657  0.00  0.00    +0.000 C 
ATOM     23  F   UNL     1      10.710  11.187  17.364  0.00  0.00    +0.000 F 
ATOM     24  F   UNL     1      10.531  12.904  18.690  0.00  0.00    +0.000 F 
ATOM     25  F   UNL     1      11.734  11.189  19.285  0.00  0.00    +0.000 F 
ENDBRANCH  21  22
ENDBRANCH  20  21
ENDBRANCH  19  20
ENDBRANCH   4  19
TORSDOF 7
ENDMDL
MODEL 2
REMARK VINA RESULT:      -7.6      7.362      9.100
REMARK  Name = 
REMARK  7 active torsions:
REMARK  status: ('A' for Active; 'I' for Inactive)
REMARK    1  A    between atoms: C_2  and  C_12
REMARK    2  A    between atoms: N_3  and  C_4
REMARK    3  A    between atoms: C_4  and  C_5
REMARK    4  A    between atoms: C_15  and  O_16
REMARK    5  A    between atoms: O_16  and  C_17
REMARK    6  A    between atoms: C_17  and  C_18
REMARK    7  A    between atoms: C_18  and  C_19
REMARK                            x       y       z     vdW  Elec       q    Type
REMARK                         _______ _______ _______ _____ _____    ______ ____
ROOT
ATOM      1  C   UNL     1       2.266   8.081  18.676  0.00  0.00    +0.000 A 
ATOM      2  C   UNL     1       3.075   7.412  17.754  0.00  0.00    +0.000 A 
ATOM      3  C   UNL     1       3.592   6.158  18.080  0.00  0.00    +0.000 A 
ATOM      4  C   UNL     1       3.249   5.604  19.302  0.00  0.00    +0.000 A 
ATOM      5  N   UNL     1       2.451   6.217  20.205  0.00  0.00    +0.000 NA
ATOM      6  C   UNL     1       1.973   7.439  19.869  0.00  0.00    +0.000 A 
ENDROOT
BRANCH   1   8
ATOM      7  O   UNL     1       2.273  10.114  17.518  0.00  0.00    +0.000 OA
ATOM      8  C   UNL     1       1.708   9.410  18.349  0.00  0.00    +0.000 C 
ATOM      9  N   UNL     1       0.576   9.787  19.040  0.00  0.00    +0.000 N 
ATOM     10  H   UNL     1       0.267   9.261  19.846  0.00  0.00    +0.000 HD
BRANCH   9  11
ATOM     11  C   UNL     1      -0.045  11.079  18.827  0.00  0.00    +0.000 C 
BRANCH  11  12
ATOM     12  C   UNL     1      -1.462  10.955  18.331  0.00  0.00    +0.000 A 
ATOM     13  C   UNL     1      -1.740  10.025  17.312  0.00  0.00    +0.000 A 
ATOM     14  C   UNL     1      -3.038   9.846  16.832  0.00  0.00    +0.000 A 
ATOM     15  C   UNL     1      -4.083  10.599  17.358  0.00  0.00    +0.000 A 
ATOM     16  C   UNL     1      -3.824  11.543  18.351  0.00  0.00    +0.000 A 
ATOM     17  C   UNL     1      -2.522  11.727  18.829  0.00  0.00    +0.000 A 
ATOM     18 CL   UNL     1      -2.280  12.936  20.040  0.00  0.00    +0.000 Cl
ENDBRANCH  11  12
ENDBRANCH   9  11
ENDBRANCH   1   8
BRANCH   4  19
ATOM     19  O   UNL     1       3.794   4.374  19.614  0.00  0.00    +0.000 OA
BRANCH  19  20
ATOM     20  C   UNL     1       3.502   3.391  18.613  0.00  0.00    +0.000 C 
BRANCH  20  21
ATOM     21  C   UNL     1       2.455   2.435  19.156  0.00  0.00    +0.000 C 
BRANCH  21  22
ATOM     22  C   UNL     1       1.059   2.939  18.871  0.00  0.00    +0.000 C 
ATOM     23  F   UNL     1       0.193   1.949  18.573  0.00  0.00    +0.000 F 
ATOM     24  F   UNL     1       0.564   3.600  19.943  0.00  0.00    +0.000 F 
ATOM     25  F   UNL     1       1.061   3.803  17.832  0.00  0.00    +0.000 F 
ENDBRANCH  21  22
ENDBRANCH  20  21
ENDBRANCH  19  20
ENDBRANCH   4  19
TORSDOF 7
ENDMDL
MODEL 3
REMARK VINA RESULT:      -7.5      1.119      1.432
REMARK  Name = 
REMARK  7 active torsions:
REMARK  status: ('A' for Active; 'I' for Inactive)
REMARK    1  A    between atoms: C_2  and  C_12
REMARK    2  A    between atoms: N_3  and  C_4
REMARK    3  A    between atoms: C_4  and  C_5
REMARK    4  A    between atoms: C_15  and  O_16
REMARK    5  A    between atoms: O_16  and  C_17
REMARK    6  A    between atoms: C_17  and  C_18
REMARK    7  A    between atoms: C_18  and  C_19
REMARK                            x       y       z     vdW  Elec       q    Type
REMARK                         _______ _______ _______ _____ _____    ______ ____
ROOT
ATOM      1  C   UNL     1       6.196   5.166  17.856  0.00  0.00    +0.000 A 
ATOM      2  C   UNL     1       7.165   5.525  18.795  0.00  0.00    +0.000 A 
ATOM      3  C   UNL     1       7.901   6.695  18.606  0.00  0.00    +0.000 A 
ATOM      4  C   UNL     1       7.612   7.481  17.502  0.00  0.00    +0.000 A 
ATOM      5  N   UNL     1       6.666   7.170  16.588  0.00  0.00    +0.000 NA
ATOM      6  C   UNL     1       5.975   6.023  16.789  0.00  0.00    +0.000 A 
ENDROOT
BRANCH   1   8
ATOM      7  O   UNL     1       4.789   3.462  17.085  0.00  0.00    +0.000 OA
ATOM      8  C   UNL     1       5.404   3.931  18.039  0.00  0.00    +0.000 C 
ATOM      9  N   UNL     1       5.388   3.394  19.308  0.00  0.00    +0.000 N 
ATOM     10  H   UNL     1       5.745   3.922  20.093  0.00  0.00    +0.000 HD
BRANCH   9  11
ATOM     11  C   UNL     1       4.624   2.203  19.616  0.00  0.00    +0.000 C 
BRANCH  11  12
ATOM     12  C   UNL     1       3.195   2.518  19.975  0.00  0.00    +0.000 A 
ATOM     13  C   UNL     1       2.898   2.871  21.304  0.00  0.00    +0.000 A 
ATOM     14  C   UNL     1       1.598   3.201  21.690  0.00  0.00    +0.000 A 
ATOM     15  C   UNL     1       0.568   3.179  20.755  0.00  0.00    +0.000 A 
ATOM     16  C   UNL     1       0.838   2.808  19.438  0.00  0.00    +0.000 A 
ATOM     17  C   UNL     1       2.141   2.471  19.051  0.00  0.00    +0.000 A 
ATOM     18 CL   UNL     1       2.387   1.996  17.408  0.00  0.00    +0.000 Cl
ENDBRANCH  11  12
ENDBRANCH   9  11
ENDBRANCH   1   8
BRANCH   4  19
ATOM     19  O   UNL     1       8.372   8.620  17.321  0.00  0.00    +0.000 OA
BRANCH  19  20
ATOM     20  C   UNL     1       7.961   9.681  18.193  0.00  0.00    +0.000 C 
BRANCH  20  21
ATOM     21  C   UNL     1       9.185  10.235  18.901  0.00  0.00    +0.000 C 
BRANCH  21  22
ATOM     22  C   UNL     1       9.709  11.465  18.197  0.00  0.00    +0.000 C 
ATOM     23  F   UNL     1      10.199  12.389  19.050  0.00  0.00    +0.000 F 
ATOM     24  F   UNL     1      10.704  11.136  17.342  0.00  0.00    +0.000 F 
ATOM     25  F   UNL     1       8.735  12.058  17.473  0.00  0.00    +0.000 F 
ENDBRANCH  21  22
ENDBRANCH  20  21
ENDBRANCH  19  20
ENDBRANCH   4  19
TORSDOF 7
ENDMDL
MODEL 4
REMARK VINA RESULT:      -7.5      0.603      1.251
REMARK  Name = 
REMARK  7 active torsions:
REMARK  status: ('A' for Active; 'I' for Inactive)
REMARK    1  A    between atoms: C_2  and  C_12
REMARK    2  A    between atoms: N_3  and  C_4
REMARK    3  A    between atoms: C_4  and  C_5
REMARK    4  A    between atoms: C_15  and  O_16
REMARK    5  A    between atoms: O_16  and  C_17
REMARK    6  A    between atoms: C_17  and  C_18
REMARK    7  A    between atoms: C_18  and  C_19
REMARK                            x       y       z     vdW  Elec       q    Type
REMARK                         _______ _______ _______ _____ _____    ______ ____
ROOT
ATOM      1  C   UNL     1       6.218   5.980  17.913  0.00  0.00    +0.000 A 
ATOM      2  C   UNL     1       6.292   7.162  17.173  0.00  0.00    +0.000 A 
ATOM      3  C   UNL     1       7.302   8.083  17.452  0.00  0.00    +0.000 A 
ATOM      4  C   UNL     1       8.224   7.767  18.437  0.00  0.00    +0.000 A 
ATOM      5  N   UNL     1       8.191   6.622  19.154  0.00  0.00    +0.000 NA
ATOM      6  C   UNL     1       7.193   5.751  18.872  0.00  0.00    +0.000 A 
ENDROOT
BRANCH   1   8
ATOM      7  O   UNL     1       4.325   5.229  16.760  0.00  0.00    +0.000 OA
ATOM      8  C   UNL     1       5.156   4.991  17.632  0.00  0.00    +0.000 C 
ATOM      9  N   UNL     1       5.156   3.852  18.408  0.00  0.00    +0.000 N 
ATOM     10  H   UNL     1       5.735   3.794  19.234  0.00  0.00    +0.000 HD
BRANCH   9  11
ATOM     11  C   UNL     1       4.147   2.825  18.245  0.00  0.00    +0.000 C 
BRANCH  11  12
ATOM     12  C   UNL     1       3.077   2.904  19.302  0.00  0.00    +0.000 A 
ATOM     13  C   UNL     1       3.367   2.415  20.590  0.00  0.00    +0.000 A 
ATOM     14  C   UNL     1       2.426   2.486  21.618  0.00  0.00    +0.000 A 
ATOM     15  C   UNL     1       1.174   3.042  21.376  0.00  0.00    +0.000 A 
ATOM     16  C   UNL     1       0.859   3.509  20.100  0.00  0.00    +0.000 A 
ATOM     17  C   UNL     1       1.800   3.433  19.067  0.00  0.00    +0.000 A 
ATOM     18 CL   UNL     1       1.322   4.007  17.509  0.00  0.00    +0.000 Cl
ENDBRANCH  11  12
ENDBRANCH   9  11
ENDBRANCH   1   8
BRANCH   4  19
ATOM     19  O   UNL     1       9.199   8.705  18.714  0.00  0.00    +0.000 OA
BRANCH  19  20
ATOM     20  C   UNL     1       8.766  10.035  18.402  0.00  0.00    +0.000 C 
BRANCH  20  21
ATOM     21  C   UNL     1       9.483  11.010  19.318  0.00  0.00    +0.000 C 
BRANCH  21  22
ATOM     22  C   UNL     1      10.697  11.601  18.640  0.00  0.00    +0.000 C 
ATOM     23  F   UNL     1      11.858  11.208  19.204  0.00  0.00    +0.000 F 
ATOM     24  F   UNL     1      10.738  11.239  17.338  0.00  0.00    +0.000 F 
ATOM     25  F   UNL     1      10.663  12.951  18.681  0.00  0.00    +0.000 F 
ENDBRANCH  21  22
ENDBRANCH  20  21
ENDBRANCH  19  20
ENDBRANCH   4  19
TORSDOF 7
ENDMDL
MODEL 5
REMARK VINA RESULT:      -7.4      7.330      8.999
REMARK  Name = 
REMARK  7 active torsions:
REMARK  status: ('A' for Active; 'I' for Inactive)
REMARK    1  A    between atoms: C_2  and  C_12
REMARK    2  A    between atoms: N_3  and  C_4
REMARK    3  A    between atoms: C_4  and  C_5
REMARK    4  A    between atoms: C_15  and  O_16
REMARK    5  A    between atoms: O_16  and  C_17
REMARK    6  A    between atoms: C_17  and  C_18
REMARK    7  A    between atoms: C_18  and  C_19
REMARK                            x       y       z     vdW  Elec       q    Type
REMARK                         _______ _______ _______ _____ _____    ______ ____
ROOT
ATOM      1  C   UNL     1       2.327   8.192  18.530  0.00  0.00    +0.000 A 
ATOM      2  C   UNL     1       3.184   7.627  17.582  0.00  0.00    +0.000 A 
ATOM      3  C   UNL     1       3.732   6.367  17.820  0.00  0.00    +0.000 A 
ATOM      4  C   UNL     1       3.372   5.702  18.981  0.00  0.00    +0.000 A 
ATOM      5  N   UNL     1       2.529   6.214  19.906  0.00  0.00    +0.000 NA
ATOM      6  C   UNL     1       2.020   7.444  19.657  0.00  0.00    +0.000 A 
ENDROOT
BRANCH   1   8
ATOM      7  O   UNL     1       2.287  10.305  17.527  0.00  0.00    +0.000 OA
ATOM      8  C   UNL     1       1.734   9.526  18.297  0.00  0.00    +0.000 C 
ATOM      9  N   UNL     1       0.586   9.819  19.001  0.00  0.00    +0.000 N 
ATOM     10  H   UNL     1       0.284   9.226  19.761  0.00  0.00    +0.000 HD
BRANCH   9  11
ATOM     11  C   UNL     1      -0.069  11.106  18.877  0.00  0.00    +0.000 C 
BRANCH  11  12
ATOM     12  C   UNL     1      -1.476  10.982  18.353  0.00  0.00    +0.000 A 
ATOM     13  C   UNL     1      -1.725  10.079  17.302  0.00  0.00    +0.000 A 
ATOM     14  C   UNL     1      -3.012   9.900  16.794  0.00  0.00    +0.000 A 
ATOM     15  C   UNL     1      -4.075  10.625  17.323  0.00  0.00    +0.000 A 
ATOM     16  C   UNL     1      -3.845  11.543  18.348  0.00  0.00    +0.000 A 
ATOM     17  C   UNL     1      -2.553  11.727  18.854  0.00  0.00    +0.000 A 
ATOM     18 CL   UNL     1      -2.346  12.903  20.104  0.00  0.00    +0.000 Cl
ENDBRANCH  11  12
ENDBRANCH   9  11
ENDBRANCH   1   8
BRANCH   4  19
ATOM     19  O   UNL     1       3.948   4.468  19.207  0.00  0.00    +0.000 OA
BRANCH  19  20
ATOM     20  C   UNL     1       2.983   3.409  19.151  0.00  0.00    +0.000 C 
BRANCH  20  21
ATOM     21  C   UNL     1       3.045   2.623  20.448  0.00  0.00    +0.000 C 
BRANCH  21  22
ATOM     22  C   UNL     1       1.936   3.037  21.388  0.00  0.00    +0.000 C 
ATOM     23  F   UNL     1       1.461   2.012  22.125  0.00  0.00    +0.000 F 
ATOM     24  F   UNL     1       2.372   3.985  22.248  0.00  0.00    +0.000 F 
ATOM     25  F   UNL     1       0.896   3.561  20.704  0.00  0.00    +0.000 F 
ENDBRANCH  21  22
ENDBRANCH  20  21
ENDBRANCH  19  20
ENDBRANCH   4  19
TORSDOF 7
ENDMDL
MODEL 6
REMARK VINA RESULT:      -7.4      1.009      1.176
REMARK  Name = 
REMARK  7 active torsions:
REMARK  status: ('A' for Active; 'I' for Inactive)
REMARK    1  A    between atoms: C_2  and  C_12
REMARK    2  A    between atoms: N_3  and  C_4
REMARK    3  A    between atoms: C_4  and  C_5
REMARK    4  A    between atoms: C_15  and  O_16
REMARK    5  A    between atoms: O_16  and  C_17
REMARK    6  A    between atoms: C_17  and  C_18
REMARK    7  A    between atoms: C_18  and  C_19
REMARK                            x       y       z     vdW  Elec       q    Type
REMARK                         _______ _______ _______ _____ _____    ______ ____
ROOT
ATOM      1  C   UNL     1       6.331   5.846  17.720  0.00  0.00    +0.000 A 
ATOM      2  C   UNL     1       7.343   5.707  18.673  0.00  0.00    +0.000 A 
ATOM      3  C   UNL     1       8.227   6.764  18.892  0.00  0.00    +0.000 A 
ATOM      4  C   UNL     1       8.041   7.935  18.175  0.00  0.00    +0.000 A 
ATOM      5  N   UNL     1       7.058   8.106  17.263  0.00  0.00    +0.000 NA
ATOM      6  C   UNL     1       6.222   7.060  17.060  0.00  0.00    +0.000 A 
ENDROOT
BRANCH   1   8
ATOM      7  O   UNL     1       4.810   4.665  16.391  0.00  0.00    +0.000 OA
ATOM      8  C   UNL     1       5.384   4.739  17.474  0.00  0.00    +0.000 C 
ATOM      9  N   UNL     1       5.184   3.858  18.515  0.00  0.00    +0.000 N 
ATOM     10  H   UNL     1       5.527   4.072  19.442  0.00  0.00    +0.000 HD
BRANCH   9  11
ATOM     11  C   UNL     1       4.257   2.750  18.402  0.00  0.00    +0.000 C 
BRANCH  11  12
ATOM     12  C   UNL     1       3.119   2.857  19.384  0.00  0.00    +0.000 A 
ATOM     13  C   UNL     1       3.297   2.335  20.679  0.00  0.00    +0.000 A 
ATOM     14  C   UNL     1       2.290   2.429  21.640  0.00  0.00    +0.000 A 
ATOM     15  C   UNL     1       1.082   3.042  21.322  0.00  0.00    +0.000 A 
ATOM     16  C   UNL     1       0.877   3.543  20.037  0.00  0.00    +0.000 A 
ATOM     17  C   UNL     1       1.885   3.444  19.071  0.00  0.00    +0.000 A 
ATOM     18 CL   UNL     1       1.543   4.064  17.495  0.00  0.00    +0.000 Cl
ENDBRANCH  11  12
ENDBRANCH   9  11
ENDBRANCH   1   8
BRANCH   4  19
ATOM     19  O   UNL     1       8.944   8.957  18.390  0.00  0.00    +0.000 OA
BRANCH  19  20
ATOM     20  C   UNL     1       8.530  10.177  17.762  0.00  0.00    +0.000 C 
BRANCH  20  21
ATOM     21  C   UNL     1       9.234  11.339  18.439  0.00  0.00    +0.000 C 
BRANCH  21  22
ATOM     22  C   UNL     1       8.901  12.647  17.760  0.00  0.00    +0.000 C 
ATOM     23  F   UNL     1       7.845  12.553  16.926  0.00  0.00    +0.000 F 
ATOM     24  F   UNL     1       8.609  13.598  18.676  0.00  0.00    +0.000 F 
ATOM     25  F   UNL     1       9.950  13.095  17.036  0.00  0.00    +0.000 F 
ENDBRANCH  21  22
ENDBRANCH  20  21
ENDBRANCH  19  20
ENDBRANCH   4  19
TORSDOF 7
ENDMDL
MODEL 7
REMARK VINA RESULT:      -7.4      4.964      6.430
REMARK  Name = 
REMARK  7 active torsions:
REMARK  status: ('A' for Active; 'I' for Inactive)
REMARK    1  A    between atoms: C_2  and  C_12
REMARK    2  A    between atoms: N_3  and  C_4
REMARK    3  A    between atoms: C_4  and  C_5
REMARK    4  A    between atoms: C_15  and  O_16
REMARK    5  A    between atoms: O_16  and  C_17
REMARK    6  A    between atoms: C_17  and  C_18
REMARK    7  A    between atoms: C_18  and  C_19
REMARK                            x       y       z     vdW  Elec       q    Type
REMARK                         _______ _______ _______ _____ _____    ______ ____
ROOT
ATOM      1  C   UNL     1       2.984   5.556  19.246  0.00  0.00    +0.000 A 
ATOM      2  C   UNL     1       3.285   6.247  18.070  0.00  0.00    +0.000 A 
ATOM      3  C   UNL     1       4.210   5.707  17.177  0.00  0.00    +0.000 A 
ATOM      4  C   UNL     1       4.772   4.476  17.477  0.00  0.00    +0.000 A 
ATOM      5  N   UNL     1       4.484   3.774  18.596  0.00  0.00    +0.000 NA
ATOM      6  C   UNL     1       3.592   4.327  19.452  0.00  0.00    +0.000 A 
ENDROOT
BRANCH   1   8
ATOM      7  O   UNL     1       1.109   5.390  20.637  0.00  0.00    +0.000 OA
ATOM      8  C   UNL     1       2.004   6.110  20.205  0.00  0.00    +0.000 C 
ATOM      9  N   UNL     1       2.152   7.441  20.533  0.00  0.00    +0.000 N 
ATOM     10  H   UNL     1       2.778   8.034  20.005  0.00  0.00    +0.000 HD
BRANCH   9  11
ATOM     11  C   UNL     1       1.236   8.102  21.440  0.00  0.00    +0.000 C 
BRANCH  11  12
ATOM     12  C   UNL     1       0.594   9.315  20.817  0.00  0.00    +0.000 A 
ATOM     13  C   UNL     1       0.851   9.591  19.461  0.00  0.00    +0.000 A 
ATOM     14  C   UNL     1       0.263  10.683  18.822  0.00  0.00    +0.000 A 
ATOM     15  C   UNL     1      -0.589  11.525  19.530  0.00  0.00    +0.000 A 
ATOM     16  C   UNL     1      -0.837  11.283  20.880  0.00  0.00    +0.000 A 
ATOM     17  C   UNL     1      -0.243  10.191  21.523  0.00  0.00    +0.000 A 
ATOM     18 CL   UNL     1      -0.578   9.976  23.205  0.00  0.00    +0.000 Cl
ENDBRANCH  11  12
ENDBRANCH   9  11
ENDBRANCH   1   8
BRANCH   4  19
ATOM     19  O   UNL     1       5.705   3.974  16.591  0.00  0.00    +0.000 OA
BRANCH  19  20
ATOM     20  C   UNL     1       6.866   4.809  16.507  0.00  0.00    +0.000 C 
BRANCH  20  21
ATOM     21  C   UNL     1       7.656   4.679  17.797  0.00  0.00    +0.000 C 
BRANCH  21  22
ATOM     22  C   UNL     1       7.517   5.920  18.648  0.00  0.00    +0.000 C 
ATOM     23  F   UNL     1       6.652   5.761  19.671  0.00  0.00    +0.000 F 
ATOM     24  F   UNL     1       8.711   6.269  19.179  0.00  0.00    +0.000 F 
ATOM     25  F   UNL     1       7.084   6.964  17.909  0.00  0.00    +0.000 F 
ENDBRANCH  21  22
ENDBRANCH  20  21
ENDBRANCH  19  20
ENDBRANCH   4  19
TORSDOF 7
ENDMDL
MODEL 8
REMARK VINA RESULT:      -7.3      5.969      7.549
REMARK  Name = 
REMARK  7 active torsions:
REMARK  status: ('A' for Active; 'I' for Inactive)
REMARK    1  A    between atoms: C_2  and  C_12
REMARK    2  A    between atoms: N_3  and  C_4
REMARK    3  A    between atoms: C_4  and  C_5
REMARK    4  A    between atoms: C_15  and  O_16
REMARK    5  A    between atoms: O_16  and  C_17
REMARK    6  A    between atoms: C_17  and  C_18
REMARK    7  A    between atoms: C_18  and  C_19
REMARK                            x       y       z     vdW  Elec       q    Type
REMARK                         _______ _______ _______ _____ _____    ______ ____
ROOT
ATOM      1  C   UNL     1       3.402   5.791  18.711  0.00  0.00    +0.000 A 
ATOM      2  C   UNL     1       3.788   6.760  17.782  0.00  0.00    +0.000 A 
ATOM      3  C   UNL     1       4.743   6.441  16.816  0.00  0.00    +0.000 A 
ATOM      4  C   UNL     1       5.248   5.151  16.794  0.00  0.00    +0.000 A 
ATOM      5  N   UNL     1       4.879   4.186  17.666  0.00  0.00    +0.000 NA
ATOM      6  C   UNL     1       3.960   4.526  18.601  0.00  0.00    +0.000 A 
ENDROOT
BRANCH   1   8
ATOM      7  O   UNL     1       1.728   5.202  20.236  0.00  0.00    +0.000 OA
ATOM      8  C   UNL     1       2.391   6.108  19.741  0.00  0.00    +0.000 C 
ATOM      9  N   UNL     1       2.240   7.440  20.063  0.00  0.00    +0.000 N 
ATOM     10  H   UNL     1       2.665   8.158  19.493  0.00  0.00    +0.000 HD
BRANCH   9  11
ATOM     11  C   UNL     1       1.260   7.876  21.037  0.00  0.00    +0.000 C 
BRANCH  11  12
ATOM     12  C   UNL     1       0.589   9.164  20.634  0.00  0.00    +0.000 A 
ATOM     13  C   UNL     1       0.691   9.585  19.296  0.00  0.00    +0.000 A 
ATOM     14  C   UNL     1       0.068  10.754  18.857  0.00  0.00    +0.000 A 
ATOM     15  C   UNL     1      -0.666  11.528  19.751  0.00  0.00    +0.000 A 
ATOM     16  C   UNL     1      -0.758  11.140  21.087  0.00  0.00    +0.000 A 
ATOM     17  C   UNL     1      -0.129   9.971  21.529  0.00  0.00    +0.000 A 
ATOM     18 CL   UNL     1      -0.268   9.575  23.206  0.00  0.00    +0.000 Cl
ENDBRANCH  11  12
ENDBRANCH   9  11
ENDBRANCH   1   8
BRANCH   4  19
ATOM     19  O   UNL     1       6.211   4.866  15.846  0.00  0.00    +0.000 OA
BRANCH  19  20
ATOM     20  C   UNL     1       5.647   4.721  14.537  0.00  0.00    +0.000 C 
BRANCH  20  21
ATOM     21  C   UNL     1       6.246   3.490  13.880  0.00  0.00    +0.000 C 
BRANCH  21  22
ATOM     22  C   UNL     1       5.850   3.404  12.424  0.00  0.00    +0.000 C 
ATOM     23  F   UNL     1       5.889   2.144  11.942  0.00  0.00    +0.000 F 
ATOM     24  F   UNL     1       4.592   3.866  12.245  0.00  0.00    +0.000 F 
ATOM     25  F   UNL     1       6.669   4.157  11.658  0.00  0.00    +0.000 F 
ENDBRANCH  21  22
ENDBRANCH  20  21
ENDBRANCH  19  20
ENDBRANCH   4  19
TORSDOF 7
ENDMDL
MODEL 9
REMARK VINA RESULT:      -7.3      1.521      1.829
REMARK  Name = 
REMARK  7 active torsions:
REMARK  status: ('A' for Active; 'I' for Inactive)
REMARK    1  A    between atoms: C_2  and  C_12
REMARK    2  A    between atoms: N_3  and  C_4
REMARK    3  A    between atoms: C_4  and  C_5
REMARK    4  A    between atoms: C_15  and  O_16
REMARK    5  A    between atoms: O_16  and  C_17
REMARK    6  A    between atoms: C_17  and  C_18
REMARK    7  A    between atoms: C_18  and  C_19
REMARK                            x       y       z     vdW  Elec       q    Type
REMARK                         _______ _______ _______ _____ _____    ______ ____
ROOT
ATOM      1  C   UNL     1       6.304   5.944  17.932  0.00  0.00    +0.000 A 
ATOM      2  C   UNL     1       7.432   6.024  18.752  0.00  0.00    +0.000 A 
ATOM      3  C   UNL     1       8.272   7.133  18.655  0.00  0.00    +0.000 A 
ATOM      4  C   UNL     1       7.930   8.140  17.767  0.00  0.00    +0.000 A 
ATOM      5  N   UNL     1       6.834   8.101  16.976  0.00  0.00    +0.000 NA
ATOM      6  C   UNL     1       6.043   7.007  17.081  0.00  0.00    +0.000 A 
ENDROOT
BRANCH   1   8
ATOM      7  O   UNL     1       5.714   3.824  18.726  0.00  0.00    +0.000 OA
ATOM      8  C   UNL     1       5.401   4.777  18.020  0.00  0.00    +0.000 C 
ATOM      9  N   UNL     1       4.252   4.831  17.260  0.00  0.00    +0.000 N 
ATOM     10  H   UNL     1       4.138   5.543  16.552  0.00  0.00    +0.000 HD
BRANCH   9  11
ATOM     11  C   UNL     1       3.305   3.735  17.242  0.00  0.00    +0.000 C 
BRANCH  11  12
ATOM     12  C   UNL     1       2.617   3.553  18.570  0.00  0.00    +0.000 A 
ATOM     13  C   UNL     1       1.863   4.622  19.088  0.00  0.00    +0.000 A 
ATOM     14  C   UNL     1       1.180   4.504  20.299  0.00  0.00    +0.000 A 
ATOM     15  C   UNL     1       1.243   3.315  21.019  0.00  0.00    +0.000 A 
ATOM     16  C   UNL     1       2.005   2.252  20.534  0.00  0.00    +0.000 A 
ATOM     17  C   UNL     1       2.695   2.372  19.323  0.00  0.00    +0.000 A 
ATOM     18 CL   UNL     1       3.639   1.021  18.805  0.00  0.00    +0.000 Cl
ENDBRANCH  11  12
ENDBRANCH   9  11
ENDBRANCH   1   8
BRANCH   4  19
ATOM     19  O   UNL     1       8.790   9.216  17.669  0.00  0.00    +0.000 OA
BRANCH  19  20
ATOM     20  C   UNL     1       8.791  10.009  18.862  0.00  0.00    +0.000 C 
BRANCH  20  21
ATOM     21  C   UNL     1       9.813  11.122  18.709  0.00  0.00    +0.000 C 
BRANCH  21  22
ATOM     22  C   UNL     1       9.203  12.332  18.041  0.00  0.00    +0.000 C 
ATOM     23  F   UNL     1       8.065  12.047  17.375  0.00  0.00    +0.000 F 
ATOM     24  F   UNL     1       8.908  13.282  18.957  0.00  0.00    +0.000 F 
ATOM     25  F   UNL     1      10.064  12.880  17.156  0.00  0.00    +0.000 F 
ENDBRANCH  21  22
ENDBRANCH  20  21
ENDBRANCH  19  20
ENDBRANCH   4  19
TORSDOF 7
ENDMDL
