MODEL 1
REMARK VINA RESULT:      -6.8      0.000      0.000
REMARK  Name = 
REMARK  11 active torsions:
REMARK  status: ('A' for Active; 'I' for Inactive)
REMARK    1  A    between atoms: C_1  and  O_2
REMARK    2  A    between atoms: O_2  and  C_3
REMARK    3  A    between atoms: C_7  and  C_8
REMARK    4  A    between atoms: C_8  and  N_9
REMARK    5  A    between atoms: N_9  and  C_10
REMARK    6  A    between atoms: C_10  and  C_11
REMARK    7  A    between atoms: C_16  and  S_17
REMARK    8  A    between atoms: N_18  and  C_19
REMARK    9  A    between atoms: C_25  and  O_26
REMARK   10  A    between atoms: C_30  and  O_31
REMARK   11  A    between atoms: O_31  and  C_32
REMARK                            x       y       z     vdW  Elec       q    Type
REMARK                         _______ _______ _______ _____ _____    ______ ____
ROOT
ATOM      1  C   UNL     1       4.296   6.002  18.604  0.00  0.00    +0.000 C 
ENDROOT
BRANCH   1   6
ATOM      2  C   UNL     1       0.103   9.855  20.981  0.00  0.00    +0.000 A 
ATOM      3  C   UNL     1       0.837   8.677  20.876  0.00  0.00    +0.000 A 
ATOM      4  C   UNL     1       1.610   8.421  19.737  0.00  0.00    +0.000 A 
ATOM      5  C   UNL     1       2.454   7.312  19.676  0.00  0.00    +0.000 A 
ATOM      6  C   UNL     1       3.212   7.043  18.538  0.00  0.00    +0.000 A 
ATOM      7  C   UNL     1       2.995   7.876  17.455  0.00  0.00    +0.000 A 
ATOM      8  N   UNL     1       2.242   8.997  17.491  0.00  0.00    +0.000 NA
ATOM      9  C   UNL     1       1.581   9.285  18.627  0.00  0.00    +0.000 A 
ATOM     10  C   UNL     1       0.870  10.475  18.759  0.00  0.00    +0.000 A 
ATOM     11  C   UNL     1       0.159  10.787  19.934  0.00  0.00    +0.000 A 
BRANCH   2  13
ATOM     12  C   UNL     1      -0.322   9.610  23.317  0.00  0.00    +0.000 C 
ATOM     13  O   UNL     1      -0.679  10.178  22.062  0.00  0.00    +0.000 OA
ENDBRANCH   2  13
BRANCH   7  14
ATOM     14  O   UNL     1       3.585   7.637  16.246  0.00  0.00    +0.000 OA
ATOM     15  H   UNL     1       3.534   8.470  15.750  0.00  0.00    +0.000 HD
ENDBRANCH   7  14
BRANCH  11  16
ATOM     16  O   UNL     1      -0.530  11.960  20.128  0.00  0.00    +0.000 OA
ATOM     17  C   UNL     1      -1.789  12.085  19.475  0.00  0.00    +0.000 C 
ENDBRANCH  11  16
ENDBRANCH   1   6
BRANCH   1  18
ATOM     18  N   UNL     1       4.022   4.707  17.969  0.00  0.00    +0.000 N 
ATOM     19  C   UNL     1       4.665   4.321  16.798  0.00  0.00    +0.000 C 
ATOM     20  N   UNL     1       5.032   5.174  15.889  0.00  0.00    +0.000 NA
BRANCH  20  21
ATOM     21  C   UNL     1       5.731   4.862  14.711  0.00  0.00    +0.000 A 
ATOM     22  C   UNL     1       7.058   5.232  14.470  0.00  0.00    +0.000 A 
ATOM     23  C   UNL     1       7.702   4.874  13.281  0.00  0.00    +0.000 A 
ATOM     24  C   UNL     1       7.050   4.074  12.345  0.00  0.00    +0.000 A 
ATOM     25  C   UNL     1       5.755   3.635  12.599  0.00  0.00    +0.000 A 
ATOM     26  C   UNL     1       5.103   4.033  13.770  0.00  0.00    +0.000 A 
ENDBRANCH  20  21
BRANCH  19  27
ATOM     27  S   UNL     1       4.967   2.582  16.720  0.00  0.00    +0.000 S 
ATOM     28  H   UNL     1       5.889   2.558  17.692  0.00  0.00    +0.000 HD
ENDBRANCH  19  27
BRANCH  18  29
ATOM     29  C   UNL     1       2.614   4.284  18.167  0.00  0.00    +0.000 C 
BRANCH  29  30
ATOM     30  C   UNL     1       2.222   3.666  19.496  0.00  0.00    +0.000 A 
ATOM     31  C   UNL     1       1.040   3.736  20.211  0.00  0.00    +0.000 A 
ATOM     32  C   UNL     1       1.075   2.969  21.416  0.00  0.00    +0.000 A 
ATOM     33  C   UNL     1       2.297   2.364  21.603  0.00  0.00    +0.000 A 
ATOM     34  S   UNL     1       3.385   2.716  20.337  0.00  0.00    +0.000 S 
ENDBRANCH  29  30
ENDBRANCH  18  29
ENDBRANCH   1  18
TORSDOF 9
ENDMDL
MODEL 2
REMARK VINA RESULT:      -6.6      4.212     10.202
REMARK  Name = 
REMARK  11 active torsions:
REMARK  status: ('A' for Active; 'I' for Inactive)
REMARK    1  A    between atoms: C_1  and  O_2
REMARK    2  A    between atoms: O_2  and  C_3
REMARK    3  A    between atoms: C_7  and  C_8
REMARK    4  A    between atoms: C_8  and  N_9
REMARK    5  A    between atoms: N_9  and  C_10
REMARK    6  A    between atoms: C_10  and  C_11
REMARK    7  A    between atoms: C_16  and  S_17
REMARK    8  A    between atoms: N_18  and  C_19
REMARK    9  A    between atoms: C_25  and  O_26
REMARK   10  A    between atoms: C_30  and  O_31
REMARK   11  A    between atoms: O_31  and  C_32
REMARK                            x       y       z     vdW  Elec       q    Type
REMARK                         _______ _______ _______ _____ _____    ______ ____
ROOT
ATOM      1  C   UNL     1      -0.124  10.519  19.443  0.00  0.00    +0.000 C 
ENDROOT
BRANCH   1   6
ATOM      2  C   UNL     1       2.656   5.061  20.195  0.00  0.00    +0.000 A 
ATOM      3  C   UNL     1       1.915   6.177  20.573  0.00  0.00    +0.000 A 
ATOM      4  C   UNL     1       1.862   7.307  19.748  0.00  0.00    +0.000 A 
ATOM      5  C   UNL     1       1.019   8.377  20.049  0.00  0.00    +0.000 A 
ATOM      6  C   UNL     1       0.976   9.511  19.240  0.00  0.00    +0.000 A 
ATOM      7  C   UNL     1       1.885   9.548  18.199  0.00  0.00    +0.000 A 
ATOM      8  N   UNL     1       2.670   8.512  17.831  0.00  0.00    +0.000 NA
ATOM      9  C   UNL     1       2.638   7.392  18.577  0.00  0.00    +0.000 A 
ATOM     10  C   UNL     1       3.347   6.256  18.195  0.00  0.00    +0.000 A 
ATOM     11  C   UNL     1       3.339   5.081  18.969  0.00  0.00    +0.000 A 
BRANCH   2  13
ATOM     12  C   UNL     1       1.548   3.266  21.310  0.00  0.00    +0.000 C 
ATOM     13  O   UNL     1       2.760   3.918  20.947  0.00  0.00    +0.000 OA
ENDBRANCH   2  13
BRANCH   7  14
ATOM     14  O   UNL     1       2.023  10.659  17.416  0.00  0.00    +0.000 OA
ATOM     15  H   UNL     1       2.976  10.770  17.267  0.00  0.00    +0.000 HD
ENDBRANCH   7  14
BRANCH  11  16
ATOM     16  O   UNL     1       3.994   3.925  18.621  0.00  0.00    +0.000 OA
ATOM     17  C   UNL     1       4.163   3.671  17.231  0.00  0.00    +0.000 C 
ENDBRANCH  11  16
ENDBRANCH   1   6
BRANCH   1  18
ATOM     18  N   UNL     1      -0.061  11.343  20.656  0.00  0.00    +0.000 N 
ATOM     19  C   UNL     1      -1.171  12.043  21.117  0.00  0.00    +0.000 C 
ATOM     20  N   UNL     1      -2.074  12.527  20.316  0.00  0.00    +0.000 NA
BRANCH  20  21
ATOM     21  C   UNL     1      -3.244  13.196  20.713  0.00  0.00    +0.000 A 
ATOM     22  C   UNL     1      -4.460  12.555  20.968  0.00  0.00    +0.000 A 
ATOM     23  C   UNL     1      -5.585  13.278  21.378  0.00  0.00    +0.000 A 
ATOM     24  C   UNL     1      -5.489  14.648  21.611  0.00  0.00    +0.000 A 
ATOM     25  C   UNL     1      -4.269  15.293  21.432  0.00  0.00    +0.000 A 
ATOM     26  C   UNL     1      -3.161  14.569  20.981  0.00  0.00    +0.000 A 
ENDBRANCH  20  21
BRANCH  19  27
ATOM     27  S   UNL     1      -1.237  12.146  22.879  0.00  0.00    +0.000 S 
ATOM     28  H   UNL     1      -1.713  13.398  22.927  0.00  0.00    +0.000 HD
ENDBRANCH  19  27
BRANCH  18  29
ATOM     29  C   UNL     1       1.278  11.955  20.838  0.00  0.00    +0.000 C 
BRANCH  29  30
ATOM     30  C   UNL     1       1.530  13.334  20.259  0.00  0.00    +0.000 A 
ATOM     31  C   UNL     1       1.413  13.806  18.964  0.00  0.00    +0.000 A 
ATOM     32  C   UNL     1       1.717  15.198  18.851  0.00  0.00    +0.000 A 
ATOM     33  C   UNL     1       2.091  15.739  20.060  0.00  0.00    +0.000 A 
ATOM     34  S   UNL     1       2.074  14.582  21.313  0.00  0.00    +0.000 S 
ENDBRANCH  29  30
ENDBRANCH  18  29
ENDBRANCH   1  18
TORSDOF 9
ENDMDL
MODEL 3
REMARK VINA RESULT:      -6.6      0.773      1.241
REMARK  Name = 
REMARK  11 active torsions:
REMARK  status: ('A' for Active; 'I' for Inactive)
REMARK    1  A    between atoms: C_1  and  O_2
REMARK    2  A    between atoms: O_2  and  C_3
REMARK    3  A    between atoms: C_7  and  C_8
REMARK    4  A    between atoms: C_8  and  N_9
REMARK    5  A    between atoms: N_9  and  C_10
REMARK    6  A    between atoms: C_10  and  C_11
REMARK    7  A    between atoms: C_16  and  S_17
REMARK    8  A    between atoms: N_18  and  C_19
REMARK    9  A    between atoms: C_25  and  O_26
REMARK   10  A    between atoms: C_30  and  O_31
REMARK   11  A    between atoms: O_31  and  C_32
REMARK                            x       y       z     vdW  Elec       q    Type
REMARK                         _______ _______ _______ _____ _____    ______ ____
ROOT
ATOM      1  C   UNL     1       4.543   5.645  18.455  0.00  0.00    +0.000 C 
ENDROOT
BRANCH   1   6
ATOM      2  C   UNL     1       0.231   9.228  21.034  0.00  0.00    +0.000 A 
ATOM      3  C   UNL     1       0.980   8.070  20.844  0.00  0.00    +0.000 A 
ATOM      4  C   UNL     1       1.796   7.929  19.715  0.00  0.00    +0.000 A 
ATOM      5  C   UNL     1       2.651   6.835  19.579  0.00  0.00    +0.000 A 
ATOM      6  C   UNL     1       3.452   6.681  18.449  0.00  0.00    +0.000 A 
ATOM      7  C   UNL     1       3.266   7.612  17.443  0.00  0.00    +0.000 A 
ATOM      8  N   UNL     1       2.502   8.720  17.558  0.00  0.00    +0.000 NA
ATOM      9  C   UNL     1       1.797   8.894  18.692  0.00  0.00    +0.000 A 
ATOM     10  C   UNL     1       1.071  10.062  18.911  0.00  0.00    +0.000 A 
ATOM     11  C   UNL     1       0.316  10.256  20.083  0.00  0.00    +0.000 A 
BRANCH   2  13
ATOM     12  C   UNL     1       0.030   9.634  23.377  0.00  0.00    +0.000 C 
ATOM     13  O   UNL     1      -0.591   9.442  22.111  0.00  0.00    +0.000 OA
ENDBRANCH   2  13
BRANCH   7  14
ATOM     14  O   UNL     1       3.901   7.493  16.239  0.00  0.00    +0.000 OA
ATOM     15  H   UNL     1       3.392   6.845  15.727  0.00  0.00    +0.000 HD
ENDBRANCH   7  14
BRANCH  11  16
ATOM     16  O   UNL     1      -0.391  11.401  20.362  0.00  0.00    +0.000 OA
ATOM     17  C   UNL     1      -0.022  12.578  19.653  0.00  0.00    +0.000 C 
ENDBRANCH  11  16
ENDBRANCH   1   6
BRANCH   1  18
ATOM     18  N   UNL     1       4.240   4.349  17.835  0.00  0.00    +0.000 N 
ATOM     19  C   UNL     1       4.818   3.967  16.629  0.00  0.00    +0.000 C 
ATOM     20  N   UNL     1       5.128   4.824  15.701  0.00  0.00    +0.000 NA
BRANCH  20  21
ATOM     21  C   UNL     1       5.761   4.516  14.485  0.00  0.00    +0.000 A 
ATOM     22  C   UNL     1       5.175   3.750  13.473  0.00  0.00    +0.000 A 
ATOM     23  C   UNL     1       5.854   3.495  12.277  0.00  0.00    +0.000 A 
ATOM     24  C   UNL     1       7.103   4.066  12.046  0.00  0.00    +0.000 A 
ATOM     25  C   UNL     1       7.673   4.890  13.011  0.00  0.00    +0.000 A 
ATOM     26  C   UNL     1       7.006   5.105  14.221  0.00  0.00    +0.000 A 
ENDBRANCH  20  21
BRANCH  19  27
ATOM     27  S   UNL     1       5.125   2.230  16.532  0.00  0.00    +0.000 S 
ATOM     28  H   UNL     1       4.222   1.984  15.574  0.00  0.00    +0.000 HD
ENDBRANCH  19  27
BRANCH  18  29
ATOM     29  C   UNL     1       2.848   3.918  18.112  0.00  0.00    +0.000 C 
BRANCH  29  30
ATOM     30  C   UNL     1       2.523   3.353  19.481  0.00  0.00    +0.000 A 
ATOM     31  C   UNL     1       3.324   2.712  20.409  0.00  0.00    +0.000 A 
ATOM     32  C   UNL     1       2.622   2.366  21.605  0.00  0.00    +0.000 A 
ATOM     33  C   UNL     1       1.294   2.723  21.539  0.00  0.00    +0.000 A 
ATOM     34  S   UNL     1       0.903   3.467  20.056  0.00  0.00    +0.000 S 
ENDBRANCH  29  30
ENDBRANCH  18  29
ENDBRANCH   1  18
TORSDOF 9
ENDMDL
MODEL 4
REMARK VINA RESULT:      -6.5      4.303     10.233
REMARK  Name = 
REMARK  11 active torsions:
REMARK  status: ('A' for Active; 'I' for Inactive)
REMARK    1  A    between atoms: C_1  and  O_2
REMARK    2  A    between atoms: O_2  and  C_3
REMARK    3  A    between atoms: C_7  and  C_8
REMARK    4  A    between atoms: C_8  and  N_9
REMARK    5  A    between atoms: N_9  and  C_10
REMARK    6  A    between atoms: C_10  and  C_11
REMARK    7  A    between atoms: C_16  and  S_17
REMARK    8  A    between atoms: N_18  and  C_19
REMARK    9  A    between atoms: C_25  and  O_26
REMARK   10  A    between atoms: C_30  and  O_31
REMARK   11  A    between atoms: O_31  and  C_32
REMARK                            x       y       z     vdW  Elec       q    Type
REMARK                         _______ _______ _______ _____ _____    ______ ____
ROOT
ATOM      1  C   UNL     1       0.509  11.146  19.573  0.00  0.00    +0.000 C 
ENDROOT
BRANCH   1   6
ATOM      2  C   UNL     1       3.667   6.152  17.791  0.00  0.00    +0.000 A 
ATOM      3  C   UNL     1       2.945   7.330  17.625  0.00  0.00    +0.000 A 
ATOM      4  C   UNL     1       2.251   7.896  18.702  0.00  0.00    +0.000 A 
ATOM      5  C   UNL     1       1.636   9.143  18.583  0.00  0.00    +0.000 A 
ATOM      6  C   UNL     1       0.930   9.702  19.647  0.00  0.00    +0.000 A 
ATOM      7  C   UNL     1       0.793   8.907  20.770  0.00  0.00    +0.000 A 
ATOM      8  N   UNL     1       1.426   7.728  20.953  0.00  0.00    +0.000 NA
ATOM      9  C   UNL     1       2.172   7.240  19.943  0.00  0.00    +0.000 A 
ATOM     10  C   UNL     1       2.926   6.082  20.106  0.00  0.00    +0.000 A 
ATOM     11  C   UNL     1       3.700   5.548  19.058  0.00  0.00    +0.000 A 
BRANCH   2  13
ATOM     12  C   UNL     1       5.367   6.302  16.124  0.00  0.00    +0.000 C 
ATOM     13  O   UNL     1       4.370   5.534  16.788  0.00  0.00    +0.000 OA
ENDBRANCH   2  13
BRANCH   7  14
ATOM     14  O   UNL     1       0.019   9.296  21.825  0.00  0.00    +0.000 OA
ATOM     15  H   UNL     1       0.026   8.556  22.454  0.00  0.00    +0.000 HD
ENDBRANCH   7  14
BRANCH  11  16
ATOM     16  O   UNL     1       4.487   4.427  19.175  0.00  0.00    +0.000 OA
ATOM     17  C   UNL     1       3.927   3.312  19.859  0.00  0.00    +0.000 C 
ENDBRANCH  11  16
ENDBRANCH   1   6
BRANCH   1  18
ATOM     18  N   UNL     1      -0.931  11.424  19.539  0.00  0.00    +0.000 N 
ATOM     19  C   UNL     1      -1.540  12.222  20.502  0.00  0.00    +0.000 C 
ATOM     20  N   UNL     1      -1.122  12.275  21.732  0.00  0.00    +0.000 NA
BRANCH  20  21
ATOM     21  C   UNL     1      -1.653  13.097  22.740  0.00  0.00    +0.000 A 
ATOM     22  C   UNL     1      -2.873  12.857  23.379  0.00  0.00    +0.000 A 
ATOM     23  C   UNL     1      -3.338  13.705  24.390  0.00  0.00    +0.000 A 
ATOM     24  C   UNL     1      -2.551  14.768  24.826  0.00  0.00    +0.000 A 
ATOM     25  C   UNL     1      -1.302  14.982  24.253  0.00  0.00    +0.000 A 
ATOM     26  C   UNL     1      -0.864  14.154  23.215  0.00  0.00    +0.000 A 
ENDBRANCH  20  21
BRANCH  19  27
ATOM     27  S   UNL     1      -2.880  13.176  19.858  0.00  0.00    +0.000 S 
ATOM     28  H   UNL     1      -2.605  12.947  18.567  0.00  0.00    +0.000 HD
ENDBRANCH  19  27
BRANCH  18  29
ATOM     29  C   UNL     1      -1.700  10.281  18.989  0.00  0.00    +0.000 C 
BRANCH  29  30
ATOM     30  C   UNL     1      -2.439  10.467  17.678  0.00  0.00    +0.000 A 
ATOM     31  C   UNL     1      -1.968  10.566  16.381  0.00  0.00    +0.000 A 
ATOM     32  C   UNL     1      -3.016  10.702  15.419  0.00  0.00    +0.000 A 
ATOM     33  C   UNL     1      -4.256  10.738  16.015  0.00  0.00    +0.000 A 
ATOM     34  S   UNL     1      -4.155  10.606  17.713  0.00  0.00    +0.000 S 
ENDBRANCH  29  30
ENDBRANCH  18  29
ENDBRANCH   1  18
TORSDOF 9
ENDMDL
MODEL 5
REMARK VINA RESULT:      -6.3      4.326      9.949
REMARK  Name = 
REMARK  11 active torsions:
REMARK  status: ('A' for Active; 'I' for Inactive)
REMARK    1  A    between atoms: C_1  and  O_2
REMARK    2  A    between atoms: O_2  and  C_3
REMARK    3  A    between atoms: C_7  and  C_8
REMARK    4  A    between atoms: C_8  and  N_9
REMARK    5  A    between atoms: N_9  and  C_10
REMARK    6  A    between atoms: C_10  and  C_11
REMARK    7  A    between atoms: C_16  and  S_17
REMARK    8  A    between atoms: N_18  and  C_19
REMARK    9  A    between atoms: C_25  and  O_26
REMARK   10  A    between atoms: C_30  and  O_31
REMARK   11  A    between atoms: O_31  and  C_32
REMARK                            x       y       z     vdW  Elec       q    Type
REMARK                         _______ _______ _______ _____ _____    ______ ____
ROOT
ATOM      1  C   UNL     1       0.634  11.378  20.007  0.00  0.00    +0.000 C 
ENDROOT
BRANCH   1   6
ATOM      2  C   UNL     1       2.224   5.416  19.957  0.00  0.00    +0.000 A 
ATOM      3  C   UNL     1       1.893   6.642  20.526  0.00  0.00    +0.000 A 
ATOM      4  C   UNL     1       1.854   7.802  19.741  0.00  0.00    +0.000 A 
ATOM      5  C   UNL     1       1.397   9.010  20.268  0.00  0.00    +0.000 A 
ATOM      6  C   UNL     1       1.372  10.170  19.496  0.00  0.00    +0.000 A 
ATOM      7  C   UNL     1       1.921  10.069  18.231  0.00  0.00    +0.000 A 
ATOM      8  N   UNL     1       2.312   8.909  17.658  0.00  0.00    +0.000 NA
ATOM      9  C   UNL     1       2.252   7.783  18.392  0.00  0.00    +0.000 A 
ATOM     10  C   UNL     1       2.546   6.544  17.828  0.00  0.00    +0.000 A 
ATOM     11  C   UNL     1       2.504   5.357  18.583  0.00  0.00    +0.000 A 
BRANCH   2  13
ATOM     12  C   UNL     1       1.087   3.476  20.756  0.00  0.00    +0.000 C 
ATOM     13  O   UNL     1       2.285   4.237  20.656  0.00  0.00    +0.000 OA
ENDBRANCH   2  13
BRANCH   7  14
ATOM     14  O   UNL     1       2.067  11.165  17.431  0.00  0.00    +0.000 OA
ATOM     15  H   UNL     1       2.189  10.828  16.528  0.00  0.00    +0.000 HD
ENDBRANCH   7  14
BRANCH  11  16
ATOM     16  O   UNL     1       2.753   4.108  18.067  0.00  0.00    +0.000 OA
ATOM     17  C   UNL     1       4.099   3.811  17.713  0.00  0.00    +0.000 C 
ENDBRANCH  11  16
ENDBRANCH   1   6
BRANCH   1  18
ATOM     18  N   UNL     1      -0.827  11.379  19.869  0.00  0.00    +0.000 N 
ATOM     19  C   UNL     1      -1.644  12.016  20.796  0.00  0.00    +0.000 C 
ATOM     20  N   UNL     1      -1.334  12.107  22.055  0.00  0.00    +0.000 NA
BRANCH  20  21
ATOM     21  C   UNL     1      -2.083  12.780  23.035  0.00  0.00    +0.000 A 
ATOM     22  C   UNL     1      -3.238  12.260  23.627  0.00  0.00    +0.000 A 
ATOM     23  C   UNL     1      -3.930  12.975  24.610  0.00  0.00    +0.000 A 
ATOM     24  C   UNL     1      -3.432  14.192  25.070  0.00  0.00    +0.000 A 
ATOM     25  C   UNL     1      -2.245  14.692  24.545  0.00  0.00    +0.000 A 
ATOM     26  C   UNL     1      -1.584  13.992  23.532  0.00  0.00    +0.000 A 
ENDBRANCH  20  21
BRANCH  19  27
ATOM     27  S   UNL     1      -3.093  12.719  20.069  0.00  0.00    +0.000 S 
ATOM     28  H   UNL     1      -2.594  12.813  18.829  0.00  0.00    +0.000 HD
ENDBRANCH  19  27
BRANCH  18  29
ATOM     29  C   UNL     1      -1.321  10.130  19.240  0.00  0.00    +0.000 C 
BRANCH  29  30
ATOM     30  C   UNL     1      -2.079  10.227  17.930  0.00  0.00    +0.000 A 
ATOM     31  C   UNL     1      -3.058   9.413  17.389  0.00  0.00    +0.000 A 
ATOM     32  C   UNL     1      -3.541   9.887  16.131  0.00  0.00    +0.000 A 
ATOM     33  C   UNL     1      -2.891  11.033  15.732  0.00  0.00    +0.000 A 
ATOM     34  S   UNL     1      -1.715  11.529  16.863  0.00  0.00    +0.000 S 
ENDBRANCH  29  30
ENDBRANCH  18  29
ENDBRANCH   1  18
TORSDOF 9
ENDMDL
MODEL 6
REMARK VINA RESULT:      -6.3      4.648      8.794
REMARK  Name = 
REMARK  11 active torsions:
REMARK  status: ('A' for Active; 'I' for Inactive)
REMARK    1  A    between atoms: C_1  and  O_2
REMARK    2  A    between atoms: O_2  and  C_3
REMARK    3  A    between atoms: C_7  and  C_8
REMARK    4  A    between atoms: C_8  and  N_9
REMARK    5  A    between atoms: N_9  and  C_10
REMARK    6  A    between atoms: C_10  and  C_11
REMARK    7  A    between atoms: C_16  and  S_17
REMARK    8  A    between atoms: N_18  and  C_19
REMARK    9  A    between atoms: C_25  and  O_26
REMARK   10  A    between atoms: C_30  and  O_31
REMARK   11  A    between atoms: O_31  and  C_32
REMARK                            x       y       z     vdW  Elec       q    Type
REMARK                         _______ _______ _______ _____ _____    ______ ____
ROOT
ATOM      1  C   UNL     1       0.046  11.414  19.006  0.00  0.00    +0.000 C 
ENDROOT
BRANCH   1   6
ATOM      2  C   UNL     1       2.278   5.772  20.134  0.00  0.00    +0.000 A 
ATOM      3  C   UNL     1       1.604   6.956  20.417  0.00  0.00    +0.000 A 
ATOM      4  C   UNL     1       1.719   8.060  19.563  0.00  0.00    +0.000 A 
ATOM      5  C   UNL     1       0.946   9.205  19.762  0.00  0.00    +0.000 A 
ATOM      6  C   UNL     1       1.070  10.313  18.925  0.00  0.00    +0.000 A 
ATOM      7  C   UNL     1       2.065  10.242  17.968  0.00  0.00    +0.000 A 
ATOM      8  N   UNL     1       2.787   9.133  17.697  0.00  0.00    +0.000 NA
ATOM      9  C   UNL     1       2.597   8.044  18.464  0.00  0.00    +0.000 A 
ATOM     10  C   UNL     1       3.237   6.842  18.173  0.00  0.00    +0.000 A 
ATOM     11  C   UNL     1       3.063   5.697  18.973  0.00  0.00    +0.000 A 
BRANCH   2  13
ATOM     12  C   UNL     1       1.135   3.753  20.694  0.00  0.00    +0.000 C 
ATOM     13  O   UNL     1       2.218   4.648  20.919  0.00  0.00    +0.000 OA
ENDBRANCH   2  13
BRANCH   7  14
ATOM     14  O   UNL     1       2.363  11.312  17.173  0.00  0.00    +0.000 OA
ATOM     15  H   UNL     1       2.488  12.067  17.771  0.00  0.00    +0.000 HD
ENDBRANCH   7  14
BRANCH  11  16
ATOM     16  O   UNL     1       3.644   4.479  18.711  0.00  0.00    +0.000 OA
ATOM     17  C   UNL     1       5.065   4.419  18.758  0.00  0.00    +0.000 C 
ENDBRANCH  11  16
ENDBRANCH   1   6
BRANCH   1  18
ATOM     18  N   UNL     1       0.178  12.372  20.110  0.00  0.00    +0.000 N 
ATOM     19  C   UNL     1       1.105  13.407  20.068  0.00  0.00    +0.000 C 
ATOM     20  N   UNL     1       2.249  13.297  19.458  0.00  0.00    +0.000 NA
BRANCH  20  21
ATOM     21  C   UNL     1       3.207  14.316  19.329  0.00  0.00    +0.000 A 
ATOM     22  C   UNL     1       4.193  14.584  20.283  0.00  0.00    +0.000 A 
ATOM     23  C   UNL     1       5.130  15.603  20.086  0.00  0.00    +0.000 A 
ATOM     24  C   UNL     1       5.139  16.324  18.894  0.00  0.00    +0.000 A 
ATOM     25  C   UNL     1       4.211  16.024  17.902  0.00  0.00    +0.000 A 
ATOM     26  C   UNL     1       3.252  15.032  18.125  0.00  0.00    +0.000 A 
ENDBRANCH  20  21
BRANCH  19  27
ATOM     27  S   UNL     1       0.537  14.874  20.871  0.00  0.00    +0.000 S 
ATOM     28  H   UNL     1      -0.658  14.908  20.267  0.00  0.00    +0.000 HD
ENDBRANCH  19  27
BRANCH  18  29
ATOM     29  C   UNL     1      -0.109  11.742  21.422  0.00  0.00    +0.000 C 
BRANCH  29  30
ATOM     30  C   UNL     1      -1.452  12.005  22.074  0.00  0.00    +0.000 A 
ATOM     31  C   UNL     1      -1.910  11.719  23.348  0.00  0.00    +0.000 A 
ATOM     32  C   UNL     1      -3.247  12.173  23.572  0.00  0.00    +0.000 A 
ATOM     33  C   UNL     1      -3.783  12.761  22.449  0.00  0.00    +0.000 A 
ATOM     34  S   UNL     1      -2.685  12.767  21.144  0.00  0.00    +0.000 S 
ENDBRANCH  29  30
ENDBRANCH  18  29
ENDBRANCH   1  18
TORSDOF 9
ENDMDL
MODEL 7
REMARK VINA RESULT:      -6.3      1.866      2.581
REMARK  Name = 
REMARK  11 active torsions:
REMARK  status: ('A' for Active; 'I' for Inactive)
REMARK    1  A    between atoms: C_1  and  O_2
REMARK    2  A    between atoms: O_2  and  C_3
REMARK    3  A    between atoms: C_7  and  C_8
REMARK    4  A    between atoms: C_8  and  N_9
REMARK    5  A    between atoms: N_9  and  C_10
REMARK    6  A    between atoms: C_10  and  C_11
REMARK    7  A    between atoms: C_16  and  S_17
REMARK    8  A    between atoms: N_18  and  C_19
REMARK    9  A    between atoms: C_25  and  O_26
REMARK   10  A    between atoms: C_30  and  O_31
REMARK   11  A    between atoms: O_31  and  C_32
REMARK                            x       y       z     vdW  Elec       q    Type
REMARK                         _______ _______ _______ _____ _____    ______ ____
ROOT
ATOM      1  C   UNL     1       3.039   5.818  17.969  0.00  0.00    +0.000 C 
ENDROOT
BRANCH   1   6
ATOM      2  C   UNL     1       1.390  11.737  18.544  0.00  0.00    +0.000 A 
ATOM      3  C   UNL     1       2.100  10.655  18.031  0.00  0.00    +0.000 A 
ATOM      4  C   UNL     1       2.055   9.409  18.667  0.00  0.00    +0.000 A 
ATOM      5  C   UNL     1       2.651   8.287  18.092  0.00  0.00    +0.000 A 
ATOM      6  C   UNL     1       2.624   7.048  18.730  0.00  0.00    +0.000 A 
ATOM      7  C   UNL     1       2.068   7.031  19.997  0.00  0.00    +0.000 A 
ATOM      8  N   UNL     1       1.422   8.073  20.562  0.00  0.00    +0.000 NA
ATOM      9  C   UNL     1       1.388   9.241  19.894  0.00  0.00    +0.000 A 
ATOM     10  C   UNL     1       0.654  10.321  20.378  0.00  0.00    +0.000 A 
ATOM     11  C   UNL     1       0.618  11.555  19.702  0.00  0.00    +0.000 A 
BRANCH   2  13
ATOM     12  C   UNL     1       2.555  13.780  18.141  0.00  0.00    +0.000 C 
ATOM     13  O   UNL     1       1.384  12.988  17.981  0.00  0.00    +0.000 OA
ENDBRANCH   2  13
BRANCH   7  14
ATOM     14  O   UNL     1       2.097   5.905  20.769  0.00  0.00    +0.000 OA
ATOM     15  H   UNL     1       2.012   5.155  20.158  0.00  0.00    +0.000 HD
ENDBRANCH   7  14
BRANCH  11  16
ATOM     16  O   UNL     1      -0.115  12.640  20.118  0.00  0.00    +0.000 OA
ATOM     17  C   UNL     1       0.286  13.264  21.333  0.00  0.00    +0.000 C 
ENDBRANCH  11  16
ENDBRANCH   1   6
BRANCH   1  18
ATOM     18  N   UNL     1       4.420   5.353  18.147  0.00  0.00    +0.000 N 
ATOM     19  C   UNL     1       5.277   5.188  17.065  0.00  0.00    +0.000 C 
ATOM     20  N   UNL     1       4.855   4.833  15.887  0.00  0.00    +0.000 NA
BRANCH  20  21
ATOM     21  C   UNL     1       5.655   4.699  14.740  0.00  0.00    +0.000 A 
ATOM     22  C   UNL     1       6.876   5.355  14.560  0.00  0.00    +0.000 A 
ATOM     23  C   UNL     1       7.633   5.164  13.399  0.00  0.00    +0.000 A 
ATOM     24  C   UNL     1       7.212   4.255  12.431  0.00  0.00    +0.000 A 
ATOM     25  C   UNL     1       6.035   3.539  12.624  0.00  0.00    +0.000 A 
ATOM     26  C   UNL     1       5.264   3.768  13.768  0.00  0.00    +0.000 A 
ENDBRANCH  20  21
BRANCH  19  27
ATOM     27  S   UNL     1       6.959   5.562  17.455  0.00  0.00    +0.000 S 
ATOM     28  H   UNL     1       7.032   4.767  18.531  0.00  0.00    +0.000 HD
ENDBRANCH  19  27
BRANCH  18  29
ATOM     29  C   UNL     1       4.540   4.412  19.287  0.00  0.00    +0.000 C 
BRANCH  29  30
ATOM     30  C   UNL     1       3.422   3.417  19.528  0.00  0.00    +0.000 A 
ATOM     31  C   UNL     1       2.706   3.122  20.675  0.00  0.00    +0.000 A 
ATOM     32  C   UNL     1       1.699   2.131  20.460  0.00  0.00    +0.000 A 
ATOM     33  C   UNL     1       1.699   1.674  19.162  0.00  0.00    +0.000 A 
ATOM     34  S   UNL     1       2.898   2.433  18.216  0.00  0.00    +0.000 S 
ENDBRANCH  29  30
ENDBRANCH  18  29
ENDBRANCH   1  18
TORSDOF 9
ENDMDL
MODEL 8
REMARK VINA RESULT:      -6.3      4.435      9.278
REMARK  Name = 
REMARK  11 active torsions:
REMARK  status: ('A' for Active; 'I' for Inactive)
REMARK    1  A    between atoms: C_1  and  O_2
REMARK    2  A    between atoms: O_2  and  C_3
REMARK    3  A    between atoms: C_7  and  C_8
REMARK    4  A    between atoms: C_8  and  N_9
REMARK    5  A    between atoms: N_9  and  C_10
REMARK    6  A    between atoms: C_10  and  C_11
REMARK    7  A    between atoms: C_16  and  S_17
REMARK    8  A    between atoms: N_18  and  C_19
REMARK    9  A    between atoms: C_25  and  O_26
REMARK   10  A    between atoms: C_30  and  O_31
REMARK   11  A    between atoms: O_31  and  C_32
REMARK                            x       y       z     vdW  Elec       q    Type
REMARK                         _______ _______ _______ _____ _____    ______ ____
ROOT
ATOM      1  C   UNL     1       0.157  10.865  21.338  0.00  0.00    +0.000 C 
ENDROOT
BRANCH   1   6
ATOM      2  C   UNL     1       3.310   6.598  18.187  0.00  0.00    +0.000 A 
ATOM      3  C   UNL     1       2.676   7.819  18.395  0.00  0.00    +0.000 A 
ATOM      4  C   UNL     1       1.857   8.013  19.514  0.00  0.00    +0.000 A 
ATOM      5  C   UNL     1       1.324   9.269  19.805  0.00  0.00    +0.000 A 
ATOM      6  C   UNL     1       0.494   9.462  20.908  0.00  0.00    +0.000 A 
ATOM      7  C   UNL     1       0.156   8.326  21.619  0.00  0.00    +0.000 A 
ATOM      8  N   UNL     1       0.699   7.106  21.415  0.00  0.00    +0.000 NA
ATOM      9  C   UNL     1       1.563   6.955  20.394  0.00  0.00    +0.000 A 
ATOM     10  C   UNL     1       2.231   5.750  20.193  0.00  0.00    +0.000 A 
ATOM     11  C   UNL     1       3.126   5.568  19.122  0.00  0.00    +0.000 A 
BRANCH   2  13
ATOM     12  C   UNL     1       5.420   6.919  17.120  0.00  0.00    +0.000 C 
ATOM     13  O   UNL     1       4.126   6.329  17.117  0.00  0.00    +0.000 OA
ENDBRANCH   2  13
BRANCH   7  14
ATOM     14  O   UNL     1      -0.748   8.371  22.642  0.00  0.00    +0.000 OA
ATOM     15  H   UNL     1      -0.404   7.784  23.335  0.00  0.00    +0.000 HD
ENDBRANCH   7  14
BRANCH  11  16
ATOM     16  O   UNL     1       3.835   4.412  18.899  0.00  0.00    +0.000 OA
ATOM     17  C   UNL     1       3.082   3.220  18.704  0.00  0.00    +0.000 C 
ENDBRANCH  11  16
ENDBRANCH   1   6
BRANCH   1  18
ATOM     18  N   UNL     1       0.018  11.875  20.282  0.00  0.00    +0.000 N 
ATOM     19  C   UNL     1       0.889  12.955  20.190  0.00  0.00    +0.000 C 
ATOM     20  N   UNL     1       1.439  13.500  21.235  0.00  0.00    +0.000 NA
BRANCH  20  21
ATOM     21  C   UNL     1       2.367  14.556  21.213  0.00  0.00    +0.000 A 
ATOM     22  C   UNL     1       2.014  15.906  21.293  0.00  0.00    +0.000 A 
ATOM     23  C   UNL     1       2.989  16.908  21.283  0.00  0.00    +0.000 A 
ATOM     24  C   UNL     1       4.340  16.569  21.266  0.00  0.00    +0.000 A 
ATOM     25  C   UNL     1       4.713  15.230  21.258  0.00  0.00    +0.000 A 
ATOM     26  C   UNL     1       3.731  14.235  21.226  0.00  0.00    +0.000 A 
ENDBRANCH  20  21
BRANCH  19  27
ATOM     27  S   UNL     1       1.199  13.450  18.523  0.00  0.00    +0.000 S 
ATOM     28  H   UNL     1       2.306  12.712  18.363  0.00  0.00    +0.000 HD
ENDBRANCH  19  27
BRANCH  18  29
ATOM     29  C   UNL     1      -1.401  12.086  19.905  0.00  0.00    +0.000 C 
BRANCH  29  30
ATOM     30  C   UNL     1      -1.958  11.321  18.720  0.00  0.00    +0.000 A 
ATOM     31  C   UNL     1      -1.357  10.413  17.866  0.00  0.00    +0.000 A 
ATOM     32  C   UNL     1      -2.258   9.891  16.888  0.00  0.00    +0.000 A 
ATOM     33  C   UNL     1      -3.514  10.442  17.003  0.00  0.00    +0.000 A 
ATOM     34  S   UNL     1      -3.602  11.574  18.276  0.00  0.00    +0.000 S 
ENDBRANCH  29  30
ENDBRANCH  18  29
ENDBRANCH   1  18
TORSDOF 9
ENDMDL
MODEL 9
REMARK VINA RESULT:      -6.2      3.908      9.718
REMARK  Name = 
REMARK  11 active torsions:
REMARK  status: ('A' for Active; 'I' for Inactive)
REMARK    1  A    between atoms: C_1  and  O_2
REMARK    2  A    between atoms: O_2  and  C_3
REMARK    3  A    between atoms: C_7  and  C_8
REMARK    4  A    between atoms: C_8  and  N_9
REMARK    5  A    between atoms: N_9  and  C_10
REMARK    6  A    between atoms: C_10  and  C_11
REMARK    7  A    between atoms: C_16  and  S_17
REMARK    8  A    between atoms: N_18  and  C_19
REMARK    9  A    between atoms: C_25  and  O_26
REMARK   10  A    between atoms: C_30  and  O_31
REMARK   11  A    between atoms: O_31  and  C_32
REMARK                            x       y       z     vdW  Elec       q    Type
REMARK                         _______ _______ _______ _____ _____    ______ ____
ROOT
ATOM      1  C   UNL     1       0.434   9.427  19.692  0.00  0.00    +0.000 C 
ENDROOT
BRANCH   1   6
ATOM      2  C   UNL     1       4.219   4.615  18.924  0.00  0.00    +0.000 A 
ATOM      3  C   UNL     1       3.384   5.480  19.624  0.00  0.00    +0.000 A 
ATOM      4  C   UNL     1       2.972   6.689  19.049  0.00  0.00    +0.000 A 
ATOM      5  C   UNL     1       2.030   7.501  19.682  0.00  0.00    +0.000 A 
ATOM      6  C   UNL     1       1.630   8.713  19.123  0.00  0.00    +0.000 A 
ATOM      7  C   UNL     1       2.295   9.099  17.973  0.00  0.00    +0.000 A 
ATOM      8  N   UNL     1       3.161   8.318  17.292  0.00  0.00    +0.000 NA
ATOM      9  C   UNL     1       3.474   7.114  17.806  0.00  0.00    +0.000 A 
ATOM     10  C   UNL     1       4.281   6.223  17.103  0.00  0.00    +0.000 A 
ATOM     11  C   UNL     1       4.632   4.966  17.630  0.00  0.00    +0.000 A 
BRANCH   2  13
ATOM     12  C   UNL     1       3.702   2.388  19.607  0.00  0.00    +0.000 C 
ATOM     13  O   UNL     1       4.668   3.415  19.417  0.00  0.00    +0.000 OA
ENDBRANCH   2  13
BRANCH   7  14
ATOM     14  O   UNL     1       2.079  10.322  17.404  0.00  0.00    +0.000 OA
ATOM     15  H   UNL     1       1.366  10.737  17.917  0.00  0.00    +0.000 HD
ENDBRANCH   7  14
BRANCH  11  16
ATOM     16  O   UNL     1       5.398   4.039  16.964  0.00  0.00    +0.000 OA
ATOM     17  C   UNL     1       6.392   4.538  16.078  0.00  0.00    +0.000 C 
ENDBRANCH  11  16
ENDBRANCH   1   6
BRANCH   1  18
ATOM     18  N   UNL     1      -0.187  10.463  18.858  0.00  0.00    +0.000 N 
ATOM     19  C   UNL     1      -0.654  11.653  19.406  0.00  0.00    +0.000 C 
ATOM     20  N   UNL     1      -1.138  11.726  20.611  0.00  0.00    +0.000 NA
BRANCH  20  21
ATOM     21  C   UNL     1      -1.577  12.901  21.245  0.00  0.00    +0.000 A 
ATOM     22  C   UNL     1      -2.865  13.425  21.110  0.00  0.00    +0.000 A 
ATOM     23  C   UNL     1      -3.244  14.591  21.784  0.00  0.00    +0.000 A 
ATOM     24  C   UNL     1      -2.358  15.209  22.663  0.00  0.00    +0.000 A 
ATOM     25  C   UNL     1      -1.096  14.663  22.866  0.00  0.00    +0.000 A 
ATOM     26  C   UNL     1      -0.711  13.521  22.156  0.00  0.00    +0.000 A 
ENDBRANCH  20  21
BRANCH  19  27
ATOM     27  S   UNL     1      -0.465  13.033  18.318  0.00  0.00    +0.000 S 
ATOM     28  H   UNL     1       0.660  13.497  18.879  0.00  0.00    +0.000 HD
ENDBRANCH  19  27
BRANCH  18  29
ATOM     29  C   UNL     1      -0.931   9.879  17.716  0.00  0.00    +0.000 C 
BRANCH  29  30
ATOM     30  C   UNL     1      -2.360  10.326  17.476  0.00  0.00    +0.000 A 
ATOM     31  C   UNL     1      -3.465  10.310  18.308  0.00  0.00    +0.000 A 
ATOM     32  C   UNL     1      -4.631  10.863  17.694  0.00  0.00    +0.000 A 
ATOM     33  C   UNL     1      -4.389  11.253  16.396  0.00  0.00    +0.000 A 
ATOM     34  S   UNL     1      -2.776  10.957  15.928  0.00  0.00    +0.000 S 
ENDBRANCH  29  30
ENDBRANCH  18  29
ENDBRANCH   1  18
TORSDOF 9
ENDMDL
