MODEL 1
REMARK VINA RESULT:      -7.6      0.000      0.000
REMARK  Name = 
REMARK  6 active torsions:
REMARK  status: ('A' for Active; 'I' for Inactive)
REMARK    1  A    between atoms: N_3  and  C_4
REMARK    2  A    between atoms: C_4  and  C_5
REMARK    3  A    between atoms: C_9  and  O_10
REMARK    4  A    between atoms: O_10  and  C_11
REMARK    5  A    between atoms: N_18  and  C_19
REMARK    6  A    between atoms: C_23  and  C_24
REMARK                            x       y       z     vdW  Elec       q    Type
REMARK                         _______ _______ _______ _____ _____    ______ ____
ROOT
ATOM      1  O   UNL     1       8.167   8.856  17.178  0.00  0.00    +0.000 OA
ATOM      2  C   UNL     1       8.470   8.611  18.335  0.00  0.00    +0.000 C 
ATOM      3  N   UNL     1       8.442   7.357  18.917  0.00  0.00    +0.000 N 
ATOM      4  N   UNL     1       8.852   9.563  19.256  0.00  0.00    +0.000 N 
ATOM      5  H   UNL     1       8.302   7.354  19.912  0.00  0.00    +0.000 HD
ATOM      6  H   UNL     1       9.410   9.232  20.030  0.00  0.00    +0.000 HD
ENDROOT
BRANCH   4   7
ATOM      7  C   UNL     1       8.958  11.004  18.950  0.00  0.00    +0.000 C 
ATOM      8  C   UNL     1      10.136  11.276  18.027  0.00  0.00    +0.000 C 
ATOM      9  C   UNL     1      11.313  11.212  18.982  0.00  0.00    +0.000 C 
ATOM     10  O   UNL     1      10.828  11.608  20.277  0.00  0.00    +0.000 OA
ATOM     11  C   UNL     1       9.405  11.848  20.162  0.00  0.00    +0.000 C 
BRANCH  11  12
ATOM     12  C   UNL     1       8.748  11.553  21.479  0.00  0.00    +0.000 C 
ATOM     13  C   UNL     1       9.152  12.383  22.677  0.00  0.00    +0.000 C 
ATOM     14  C   UNL     1       7.762  12.500  22.127  0.00  0.00    +0.000 C 
ENDBRANCH  11  12
ENDBRANCH   4   7
BRANCH   3  15
ATOM     15  C   UNL     1       7.884   6.235  18.182  0.00  0.00    +0.000 C 
BRANCH  15  16
ATOM     16  C   UNL     1       6.372   6.223  18.167  0.00  0.00    +0.000 A 
ATOM     17  C   UNL     1       5.659   6.957  17.216  0.00  0.00    +0.000 A 
ATOM     18  C   UNL     1       4.272   6.968  17.275  0.00  0.00    +0.000 A 
ATOM     19  N   UNL     1       3.542   6.296  18.198  0.00  0.00    +0.000 NA
ATOM     20  C   UNL     1       4.233   5.573  19.107  0.00  0.00    +0.000 A 
ATOM     21  C   UNL     1       5.624   5.510  19.128  0.00  0.00    +0.000 A 
BRANCH  20  22
ATOM     22  O   UNL     1       3.549   4.869  20.098  0.00  0.00    +0.000 OA
BRANCH  22  23
ATOM     23  C   UNL     1       3.572   3.431  19.954  0.00  0.00    +0.000 C 
ATOM     24  C   UNL     1       2.709   2.770  21.036  0.00  0.00    +0.000 C 
ATOM     25  C   UNL     1       1.224   3.094  20.879  0.00  0.00    +0.000 C 
ATOM     26  C   UNL     1       0.683   2.726  19.501  0.00  0.00    +0.000 C 
ATOM     27  C   UNL     1       1.548   3.237  18.354  0.00  0.00    +0.000 C 
ATOM     28  C   UNL     1       3.047   3.018  18.564  0.00  0.00    +0.000 C 
ENDBRANCH  22  23
ENDBRANCH  20  22
ENDBRANCH  15  16
ENDBRANCH   3  15
TORSDOF 6
ENDMDL
MODEL 2
REMARK VINA RESULT:      -7.5      5.456      8.653
REMARK  Name = 
REMARK  6 active torsions:
REMARK  status: ('A' for Active; 'I' for Inactive)
REMARK    1  A    between atoms: N_3  and  C_4
REMARK    2  A    between atoms: C_4  and  C_5
REMARK    3  A    between atoms: C_9  and  O_10
REMARK    4  A    between atoms: O_10  and  C_11
REMARK    5  A    between atoms: N_18  and  C_19
REMARK    6  A    between atoms: C_23  and  C_24
REMARK                            x       y       z     vdW  Elec       q    Type
REMARK                         _______ _______ _______ _____ _____    ______ ____
ROOT
ATOM      1  O   UNL     1       1.530  10.614  19.633  0.00  0.00    +0.000 OA
ATOM      2  C   UNL     1       0.501  10.002  19.872  0.00  0.00    +0.000 C 
ATOM      3  N   UNL     1       0.425   8.815  20.576  0.00  0.00    +0.000 N 
ATOM      4  N   UNL     1      -0.751  10.388  19.441  0.00  0.00    +0.000 N 
ATOM      5  H   UNL     1      -0.361   8.234  20.345  0.00  0.00    +0.000 HD
ATOM      6  H   UNL     1      -1.532  10.040  19.977  0.00  0.00    +0.000 HD
ENDROOT
BRANCH   4   7
ATOM      7  C   UNL     1      -1.003  11.605  18.642  0.00  0.00    +0.000 C 
ATOM      8  C   UNL     1      -1.320  12.788  19.544  0.00  0.00    +0.000 C 
ATOM      9  C   UNL     1      -2.766  12.523  19.923  0.00  0.00    +0.000 C 
ATOM     10  O   UNL     1      -3.360  11.789  18.838  0.00  0.00    +0.000 OA
ATOM     11  C   UNL     1      -2.327  11.545  17.852  0.00  0.00    +0.000 C 
BRANCH  11  12
ATOM     12  C   UNL     1      -2.632  10.268  17.126  0.00  0.00    +0.000 C 
ATOM     13  C   UNL     1      -3.921  10.187  16.339  0.00  0.00    +0.000 C 
ATOM     14  C   UNL     1      -2.608  10.164  15.617  0.00  0.00    +0.000 C 
ENDBRANCH  11  12
ENDBRANCH   4   7
BRANCH   3  15
ATOM     15  C   UNL     1       1.646   8.126  20.959  0.00  0.00    +0.000 C 
BRANCH  15  16
ATOM     16  C   UNL     1       1.828   6.797  20.261  0.00  0.00    +0.000 A 
ATOM     17  C   UNL     1       1.280   5.627  20.793  0.00  0.00    +0.000 A 
ATOM     18  C   UNL     1       1.524   4.420  20.154  0.00  0.00    +0.000 A 
ATOM     19  N   UNL     1       2.259   4.288  19.023  0.00  0.00    +0.000 NA
ATOM     20  C   UNL     1       2.775   5.423  18.501  0.00  0.00    +0.000 A 
ATOM     21  C   UNL     1       2.588   6.677  19.078  0.00  0.00    +0.000 A 
BRANCH  20  22
ATOM     22  O   UNL     1       3.556   5.364  17.347  0.00  0.00    +0.000 OA
BRANCH  22  23
ATOM     23  C   UNL     1       4.568   4.332  17.344  0.00  0.00    +0.000 C 
ATOM     24  C   UNL     1       5.156   4.162  15.938  0.00  0.00    +0.000 C 
ATOM     25  C   UNL     1       5.936   5.392  15.477  0.00  0.00    +0.000 C 
ATOM     26  C   UNL     1       7.045   5.784  16.448  0.00  0.00    +0.000 C 
ATOM     27  C   UNL     1       6.582   5.859  17.899  0.00  0.00    +0.000 C 
ATOM     28  C   UNL     1       5.702   4.684  18.328  0.00  0.00    +0.000 C 
ENDBRANCH  22  23
ENDBRANCH  20  22
ENDBRANCH  15  16
ENDBRANCH   3  15
TORSDOF 6
ENDMDL
MODEL 3
REMARK VINA RESULT:      -7.4      5.425      8.656
REMARK  Name = 
REMARK  6 active torsions:
REMARK  status: ('A' for Active; 'I' for Inactive)
REMARK    1  A    between atoms: N_3  and  C_4
REMARK    2  A    between atoms: C_4  and  C_5
REMARK    3  A    between atoms: C_9  and  O_10
REMARK    4  A    between atoms: O_10  and  C_11
REMARK    5  A    between atoms: N_18  and  C_19
REMARK    6  A    between atoms: C_23  and  C_24
REMARK                            x       y       z     vdW  Elec       q    Type
REMARK                         _______ _______ _______ _____ _____    ______ ____
ROOT
ATOM      1  O   UNL     1       1.549  10.828  19.519  0.00  0.00    +0.000 OA
ATOM      2  C   UNL     1       0.581  10.091  19.624  0.00  0.00    +0.000 C 
ATOM      3  N   UNL     1       0.593   8.839  20.208  0.00  0.00    +0.000 N 
ATOM      4  N   UNL     1      -0.675  10.385  19.137  0.00  0.00    +0.000 N 
ATOM      5  H   UNL     1      -0.107   8.204  19.868  0.00  0.00    +0.000 HD
ATOM      6  H   UNL     1      -1.445   9.906  19.579  0.00  0.00    +0.000 HD
ENDROOT
BRANCH   4   7
ATOM      7  C   UNL     1      -1.009  11.641  18.436  0.00  0.00    +0.000 C 
ATOM      8  C   UNL     1      -1.333  12.747  19.430  0.00  0.00    +0.000 C 
ATOM      9  C   UNL     1      -2.748  12.396  19.849  0.00  0.00    +0.000 C 
ATOM     10  O   UNL     1      -3.360  11.713  18.741  0.00  0.00    +0.000 OA
ATOM     11  C   UNL     1      -2.364  11.580  17.699  0.00  0.00    +0.000 C 
BRANCH  11  12
ATOM     12  C   UNL     1      -2.650  10.343  16.899  0.00  0.00    +0.000 C 
ATOM     13  C   UNL     1      -3.949  10.281  16.126  0.00  0.00    +0.000 C 
ATOM     14  C   UNL     1      -2.646  10.333  15.386  0.00  0.00    +0.000 C 
ENDBRANCH  11  12
ENDBRANCH   4   7
BRANCH   3  15
ATOM     15  C   UNL     1       1.856   8.248  20.617  0.00  0.00    +0.000 C 
BRANCH  15  16
ATOM     16  C   UNL     1       2.045   6.834  20.116  0.00  0.00    +0.000 A 
ATOM     17  C   UNL     1       1.249   5.790  20.596  0.00  0.00    +0.000 A 
ATOM     18  C   UNL     1       1.497   4.498  20.156  0.00  0.00    +0.000 A 
ATOM     19  N   UNL     1       2.466   4.166  19.268  0.00  0.00    +0.000 NA
ATOM     20  C   UNL     1       3.224   5.179  18.793  0.00  0.00    +0.000 A 
ATOM     21  C   UNL     1       3.052   6.504  19.183  0.00  0.00    +0.000 A 
BRANCH  20  22
ATOM     22  O   UNL     1       4.251   4.911  17.888  0.00  0.00    +0.000 OA
BRANCH  22  23
ATOM     23  C   UNL     1       5.123   6.027  17.602  0.00  0.00    +0.000 C 
ATOM     24  C   UNL     1       6.580   5.665  17.920  0.00  0.00    +0.000 C 
ATOM     25  C   UNL     1       7.125   4.575  16.998  0.00  0.00    +0.000 C 
ATOM     26  C   UNL     1       7.001   4.935  15.521  0.00  0.00    +0.000 C 
ATOM     27  C   UNL     1       5.611   5.428  15.133  0.00  0.00    +0.000 C 
ATOM     28  C   UNL     1       5.014   6.433  16.118  0.00  0.00    +0.000 C 
ENDBRANCH  22  23
ENDBRANCH  20  22
ENDBRANCH  15  16
ENDBRANCH   3  15
TORSDOF 6
ENDMDL
MODEL 4
REMARK VINA RESULT:      -7.4      5.851      8.356
REMARK  Name = 
REMARK  6 active torsions:
REMARK  status: ('A' for Active; 'I' for Inactive)
REMARK    1  A    between atoms: N_3  and  C_4
REMARK    2  A    between atoms: C_4  and  C_5
REMARK    3  A    between atoms: C_9  and  O_10
REMARK    4  A    between atoms: O_10  and  C_11
REMARK    5  A    between atoms: N_18  and  C_19
REMARK    6  A    between atoms: C_23  and  C_24
REMARK                            x       y       z     vdW  Elec       q    Type
REMARK                         _______ _______ _______ _____ _____    ______ ____
ROOT
ATOM      1  O   UNL     1       2.620   5.890  18.405  0.00  0.00    +0.000 OA
ATOM      2  C   UNL     1       3.370   6.776  18.025  0.00  0.00    +0.000 C 
ATOM      3  N   UNL     1       2.993   8.080  17.764  0.00  0.00    +0.000 N 
ATOM      4  N   UNL     1       4.711   6.599  17.761  0.00  0.00    +0.000 N 
ATOM      5  H   UNL     1       3.565   8.561  17.093  0.00  0.00    +0.000 HD
ATOM      6  H   UNL     1       5.286   7.426  17.813  0.00  0.00    +0.000 HD
ENDROOT
BRANCH   4   7
ATOM      7  C   UNL     1       5.414   5.309  17.920  0.00  0.00    +0.000 C 
ATOM      8  C   UNL     1       6.408   5.372  19.071  0.00  0.00    +0.000 C 
ATOM      9  C   UNL     1       7.567   6.131  18.452  0.00  0.00    +0.000 C 
ATOM     10  O   UNL     1       7.549   5.852  17.041  0.00  0.00    +0.000 OA
ATOM     11  C   UNL     1       6.400   5.013  16.771  0.00  0.00    +0.000 C 
BRANCH  11  12
ATOM     12  C   UNL     1       5.918   5.275  15.374  0.00  0.00    +0.000 C 
ATOM     13  C   UNL     1       6.841   4.928  14.226  0.00  0.00    +0.000 C 
ATOM     14  C   UNL     1       5.566   4.161  14.412  0.00  0.00    +0.000 C 
ENDBRANCH  11  12
ENDBRANCH   4   7
BRANCH   3  15
ATOM     15  C   UNL     1       1.586   8.442  17.790  0.00  0.00    +0.000 C 
BRANCH  15  16
ATOM     16  C   UNL     1       1.345   9.878  18.196  0.00  0.00    +0.000 A 
ATOM     17  C   UNL     1       2.313  10.859  17.970  0.00  0.00    +0.000 A 
ATOM     18  C   UNL     1       2.078  12.153  18.414  0.00  0.00    +0.000 A 
ATOM     19  N   UNL     1       0.950  12.547  19.054  0.00  0.00    +0.000 NA
ATOM     20  C   UNL     1       0.007  11.600  19.258  0.00  0.00    +0.000 A 
ATOM     21  C   UNL     1       0.161  10.276  18.853  0.00  0.00    +0.000 A 
BRANCH  20  22
ATOM     22  O   UNL     1      -1.173  11.928  19.925  0.00  0.00    +0.000 OA
BRANCH  22  23
ATOM     23  C   UNL     1      -1.055  12.999  20.888  0.00  0.00    +0.000 C 
ATOM     24  C   UNL     1      -2.409  13.691  21.088  0.00  0.00    +0.000 C 
ATOM     25  C   UNL     1      -3.445  12.775  21.738  0.00  0.00    +0.000 C 
ATOM     26  C   UNL     1      -2.969  12.196  23.066  0.00  0.00    +0.000 C 
ATOM     27  C   UNL     1      -1.571  11.590  22.997  0.00  0.00    +0.000 C 
ATOM     28  C   UNL     1      -0.560  12.455  22.244  0.00  0.00    +0.000 C 
ENDBRANCH  22  23
ENDBRANCH  20  22
ENDBRANCH  15  16
ENDBRANCH   3  15
TORSDOF 6
ENDMDL
MODEL 5
REMARK VINA RESULT:      -7.4      4.797      8.964
REMARK  Name = 
REMARK  6 active torsions:
REMARK  status: ('A' for Active; 'I' for Inactive)
REMARK    1  A    between atoms: N_3  and  C_4
REMARK    2  A    between atoms: C_4  and  C_5
REMARK    3  A    between atoms: C_9  and  O_10
REMARK    4  A    between atoms: O_10  and  C_11
REMARK    5  A    between atoms: N_18  and  C_19
REMARK    6  A    between atoms: C_23  and  C_24
REMARK                            x       y       z     vdW  Elec       q    Type
REMARK                         _______ _______ _______ _____ _____    ______ ____
ROOT
ATOM      1  O   UNL     1       2.625   5.902  18.299  0.00  0.00    +0.000 OA
ATOM      2  C   UNL     1       3.419   6.753  17.929  0.00  0.00    +0.000 C 
ATOM      3  N   UNL     1       3.104   8.071  17.658  0.00  0.00    +0.000 N 
ATOM      4  N   UNL     1       4.755   6.515  17.686  0.00  0.00    +0.000 N 
ATOM      5  H   UNL     1       3.707   8.524  16.994  0.00  0.00    +0.000 HD
ATOM      6  H   UNL     1       5.365   7.317  17.743  0.00  0.00    +0.000 HD
ENDROOT
BRANCH   4   7
ATOM      7  C   UNL     1       5.398   5.197  17.859  0.00  0.00    +0.000 C 
ATOM      8  C   UNL     1       6.388   5.225  19.013  0.00  0.00    +0.000 C 
ATOM      9  C   UNL     1       7.584   5.924  18.393  0.00  0.00    +0.000 C 
ATOM     10  O   UNL     1       7.559   5.634  16.984  0.00  0.00    +0.000 OA
ATOM     11  C   UNL     1       6.374   4.846  16.717  0.00  0.00    +0.000 C 
BRANCH  11  12
ATOM     12  C   UNL     1       5.910   5.116  15.315  0.00  0.00    +0.000 C 
ATOM     13  C   UNL     1       6.856   4.799  14.179  0.00  0.00    +0.000 C 
ATOM     14  C   UNL     1       5.592   4.008  14.335  0.00  0.00    +0.000 C 
ENDBRANCH  11  12
ENDBRANCH   4   7
BRANCH   3  15
ATOM     15  C   UNL     1       1.715   8.495  17.662  0.00  0.00    +0.000 C 
BRANCH  15  16
ATOM     16  C   UNL     1       1.453   9.683  18.560  0.00  0.00    +0.000 A 
ATOM     17  C   UNL     1       0.835   9.520  19.802  0.00  0.00    +0.000 A 
ATOM     18  C   UNL     1       0.558  10.644  20.568  0.00  0.00    +0.000 A 
ATOM     19  N   UNL     1       0.858  11.913  20.200  0.00  0.00    +0.000 NA
ATOM     20  C   UNL     1       1.470  12.067  19.004  0.00  0.00    +0.000 A 
ATOM     21  C   UNL     1       1.781  10.999  18.167  0.00  0.00    +0.000 A 
BRANCH  20  22
ATOM     22  O   UNL     1       1.795  13.345  18.551  0.00  0.00    +0.000 OA
BRANCH  22  23
ATOM     23  C   UNL     1       2.870  13.994  19.266  0.00  0.00    +0.000 C 
ATOM     24  C   UNL     1       3.952  14.471  18.288  0.00  0.00    +0.000 C 
ATOM     25  C   UNL     1       3.456  15.580  17.362  0.00  0.00    +0.000 C 
ATOM     26  C   UNL     1       2.894  16.776  18.122  0.00  0.00    +0.000 C 
ATOM     27  C   UNL     1       1.894  16.390  19.207  0.00  0.00    +0.000 C 
ATOM     28  C   UNL     1       2.339  15.203  20.062  0.00  0.00    +0.000 C 
ENDBRANCH  22  23
ENDBRANCH  20  22
ENDBRANCH  15  16
ENDBRANCH   3  15
TORSDOF 6
ENDMDL
MODEL 6
REMARK VINA RESULT:      -7.3      4.825      7.263
REMARK  Name = 
REMARK  6 active torsions:
REMARK  status: ('A' for Active; 'I' for Inactive)
REMARK    1  A    between atoms: N_3  and  C_4
REMARK    2  A    between atoms: C_4  and  C_5
REMARK    3  A    between atoms: C_9  and  O_10
REMARK    4  A    between atoms: O_10  and  C_11
REMARK    5  A    between atoms: N_18  and  C_19
REMARK    6  A    between atoms: C_23  and  C_24
REMARK                            x       y       z     vdW  Elec       q    Type
REMARK                         _______ _______ _______ _____ _____    ______ ____
ROOT
ATOM      1  O   UNL     1       0.463   9.396  22.081  0.00  0.00    +0.000 OA
ATOM      2  C   UNL     1       0.790   9.340  20.906  0.00  0.00    +0.000 C 
ATOM      3  N   UNL     1       1.365   8.245  20.290  0.00  0.00    +0.000 N 
ATOM      4  N   UNL     1       0.668  10.386  20.015  0.00  0.00    +0.000 N 
ATOM      5  H   UNL     1       1.943   8.458  19.497  0.00  0.00    +0.000 HD
ATOM      6  H   UNL     1       0.619  10.133  19.039  0.00  0.00    +0.000 HD
ENDROOT
BRANCH   4   7
ATOM      7  C   UNL     1       0.109  11.706  20.373  0.00  0.00    +0.000 C 
ATOM      8  C   UNL     1      -1.378  11.768  20.057  0.00  0.00    +0.000 C 
ATOM      9  C   UNL     1      -1.378  11.977  18.554  0.00  0.00    +0.000 C 
ATOM     10  O   UNL     1      -0.163  12.673  18.224  0.00  0.00    +0.000 OA
ATOM     11  C   UNL     1       0.597  12.839  19.446  0.00  0.00    +0.000 C 
BRANCH  11  12
ATOM     12  C   UNL     1       2.060  12.868  19.114  0.00  0.00    +0.000 C 
ATOM     13  C   UNL     1       2.557  13.948  18.180  0.00  0.00    +0.000 C 
ATOM     14  C   UNL     1       2.987  13.953  19.616  0.00  0.00    +0.000 C 
ENDBRANCH  11  12
ENDBRANCH   4   7
BRANCH   3  15
ATOM     15  C   UNL     1       1.763   7.097  21.088  0.00  0.00    +0.000 C 
BRANCH  15  16
ATOM     16  C   UNL     1       1.983   5.846  20.269  0.00  0.00    +0.000 A 
ATOM     17  C   UNL     1       1.115   4.757  20.376  0.00  0.00    +0.000 A 
ATOM     18  C   UNL     1       1.388   3.604  19.653  0.00  0.00    +0.000 A 
ATOM     19  N   UNL     1       2.450   3.456  18.824  0.00  0.00    +0.000 NA
ATOM     20  C   UNL     1       3.281   4.517  18.710  0.00  0.00    +0.000 A 
ATOM     21  C   UNL     1       3.089   5.710  19.402  0.00  0.00    +0.000 A 
BRANCH  20  22
ATOM     22  O   UNL     1       4.405   4.432  17.888  0.00  0.00    +0.000 OA
BRANCH  22  23
ATOM     23  C   UNL     1       5.133   5.669  17.716  0.00  0.00    +0.000 C 
ATOM     24  C   UNL     1       6.624   5.458  18.007  0.00  0.00    +0.000 C 
ATOM     25  C   UNL     1       7.294   4.536  16.989  0.00  0.00    +0.000 C 
ATOM     26  C   UNL     1       7.119   5.017  15.553  0.00  0.00    +0.000 C 
ATOM     27  C   UNL     1       5.677   5.372  15.204  0.00  0.00    +0.000 C 
ATOM     28  C   UNL     1       4.967   6.198  16.277  0.00  0.00    +0.000 C 
ENDBRANCH  22  23
ENDBRANCH  20  22
ENDBRANCH  15  16
ENDBRANCH   3  15
TORSDOF 6
ENDMDL
MODEL 7
REMARK VINA RESULT:      -7.3      6.231      9.364
REMARK  Name = 
REMARK  6 active torsions:
REMARK  status: ('A' for Active; 'I' for Inactive)
REMARK    1  A    between atoms: N_3  and  C_4
REMARK    2  A    between atoms: C_4  and  C_5
REMARK    3  A    between atoms: C_9  and  O_10
REMARK    4  A    between atoms: O_10  and  C_11
REMARK    5  A    between atoms: N_18  and  C_19
REMARK    6  A    between atoms: C_23  and  C_24
REMARK                            x       y       z     vdW  Elec       q    Type
REMARK                         _______ _______ _______ _____ _____    ______ ____
ROOT
ATOM      1  O   UNL     1      -0.676  11.974  19.208  0.00  0.00    +0.000 OA
ATOM      2  C   UNL     1      -1.234  10.888  19.180  0.00  0.00    +0.000 C 
ATOM      3  N   UNL     1      -0.736   9.723  19.734  0.00  0.00    +0.000 N 
ATOM      4  N   UNL     1      -2.438  10.648  18.553  0.00  0.00    +0.000 N 
ATOM      5  H   UNL     1      -1.054   8.876  19.298  0.00  0.00    +0.000 HD
ATOM      6  H   UNL     1      -2.963   9.855  18.889  0.00  0.00    +0.000 HD
ENDROOT
BRANCH   4   7
ATOM      7  C   UNL     1      -3.214  11.687  17.845  0.00  0.00    +0.000 C 
ATOM      8  C   UNL     1      -4.230  12.332  18.775  0.00  0.00    +0.000 C 
ATOM      9  C   UNL     1      -5.331  11.288  18.820  0.00  0.00    +0.000 C 
ATOM     10  O   UNL     1      -5.294  10.580  17.568  0.00  0.00    +0.000 OA
ATOM     11  C   UNL     1      -4.186  11.105  16.797  0.00  0.00    +0.000 C 
BRANCH  11  12
ATOM     12  C   UNL     1      -3.656  10.025  15.900  0.00  0.00    +0.000 C 
ATOM     13  C   UNL     1      -4.089  10.027  14.451  0.00  0.00    +0.000 C 
ATOM     14  C   UNL     1      -2.656  10.299  14.798  0.00  0.00    +0.000 C 
ENDBRANCH  11  12
ENDBRANCH   4   7
BRANCH   3  15
ATOM     15  C   UNL     1       0.611   9.703  20.278  0.00  0.00    +0.000 C 
BRANCH  15  16
ATOM     16  C   UNL     1       1.544   8.777  19.532  0.00  0.00    +0.000 A 
ATOM     17  C   UNL     1       1.949   9.066  18.226  0.00  0.00    +0.000 A 
ATOM     18  C   UNL     1       2.756   8.159  17.555  0.00  0.00    +0.000 A 
ATOM     19  N   UNL     1       3.200   6.994  18.086  0.00  0.00    +0.000 NA
ATOM     20  C   UNL     1       2.821   6.723  19.355  0.00  0.00    +0.000 A 
ATOM     21  C   UNL     1       2.007   7.571  20.101  0.00  0.00    +0.000 A 
BRANCH  20  22
ATOM     22  O   UNL     1       3.226   5.534  19.961  0.00  0.00    +0.000 OA
BRANCH  22  23
ATOM     23  C   UNL     1       2.979   4.337  19.191  0.00  0.00    +0.000 C 
ATOM     24  C   UNL     1       3.566   3.111  19.902  0.00  0.00    +0.000 C 
ATOM     25  C   UNL     1       2.858   2.806  21.221  0.00  0.00    +0.000 C 
ATOM     26  C   UNL     1       1.353   2.626  21.055  0.00  0.00    +0.000 C 
ATOM     27  C   UNL     1       0.695   3.741  20.249  0.00  0.00    +0.000 C 
ATOM     28  C   UNL     1       1.465   4.128  18.986  0.00  0.00    +0.000 C 
ENDBRANCH  22  23
ENDBRANCH  20  22
ENDBRANCH  15  16
ENDBRANCH   3  15
TORSDOF 6
ENDMDL
MODEL 8
REMARK VINA RESULT:      -7.3      6.316      8.953
REMARK  Name = 
REMARK  6 active torsions:
REMARK  status: ('A' for Active; 'I' for Inactive)
REMARK    1  A    between atoms: N_3  and  C_4
REMARK    2  A    between atoms: C_4  and  C_5
REMARK    3  A    between atoms: C_9  and  O_10
REMARK    4  A    between atoms: O_10  and  C_11
REMARK    5  A    between atoms: N_18  and  C_19
REMARK    6  A    between atoms: C_23  and  C_24
REMARK                            x       y       z     vdW  Elec       q    Type
REMARK                         _______ _______ _______ _____ _____    ______ ____
ROOT
ATOM      1  O   UNL     1       2.810   7.525  17.310  0.00  0.00    +0.000 OA
ATOM      2  C   UNL     1       2.771   7.052  18.435  0.00  0.00    +0.000 C 
ATOM      3  N   UNL     1       2.157   7.640  19.525  0.00  0.00    +0.000 N 
ATOM      4  N   UNL     1       3.372   5.866  18.801  0.00  0.00    +0.000 N 
ATOM      5  H   UNL     1       2.541   7.385  20.418  0.00  0.00    +0.000 HD
ATOM      6  H   UNL     1       2.985   5.405  19.611  0.00  0.00    +0.000 HD
ENDROOT
BRANCH   4   7
ATOM      7  C   UNL     1       4.130   5.009  17.866  0.00  0.00    +0.000 C 
ATOM      8  C   UNL     1       3.634   3.572  17.925  0.00  0.00    +0.000 C 
ATOM      9  C   UNL     1       4.282   3.062  19.199  0.00  0.00    +0.000 C 
ATOM     10  O   UNL     1       5.502   3.802  19.379  0.00  0.00    +0.000 OA
ATOM     11  C   UNL     1       5.589   4.776  18.310  0.00  0.00    +0.000 C 
BRANCH  11  12
ATOM     12  C   UNL     1       6.355   5.972  18.795  0.00  0.00    +0.000 C 
ATOM     13  C   UNL     1       7.814   5.787  19.147  0.00  0.00    +0.000 C 
ATOM     14  C   UNL     1       7.435   6.636  17.970  0.00  0.00    +0.000 C 
ENDBRANCH  11  12
ENDBRANCH   4   7
BRANCH   3  15
ATOM     15  C   UNL     1       1.626   8.987  19.412  0.00  0.00    +0.000 C 
BRANCH  15  16
ATOM     16  C   UNL     1       1.025   9.504  20.700  0.00  0.00    +0.000 A 
ATOM     17  C   UNL     1       1.043   8.728  21.861  0.00  0.00    +0.000 A 
ATOM     18  C   UNL     1       0.426   9.214  23.005  0.00  0.00    +0.000 A 
ATOM     19  N   UNL     1      -0.196  10.415  23.086  0.00  0.00    +0.000 NA
ATOM     20  C   UNL     1      -0.199  11.172  21.965  0.00  0.00    +0.000 A 
ATOM     21  C   UNL     1       0.389  10.762  20.771  0.00  0.00    +0.000 A 
BRANCH  20  22
ATOM     22  O   UNL     1      -0.835  12.413  21.968  0.00  0.00    +0.000 OA
BRANCH  22  23
ATOM     23  C   UNL     1      -1.632  12.691  23.141  0.00  0.00    +0.000 C 
ATOM     24  C   UNL     1      -1.405  14.132  23.614  0.00  0.00    +0.000 C 
ATOM     25  C   UNL     1      -1.920  15.165  22.613  0.00  0.00    +0.000 C 
ATOM     26  C   UNL     1      -3.393  14.969  22.269  0.00  0.00    +0.000 C 
ATOM     27  C   UNL     1      -3.743  13.530  21.902  0.00  0.00    +0.000 C 
ATOM     28  C   UNL     1      -3.130  12.488  22.838  0.00  0.00    +0.000 C 
ENDBRANCH  22  23
ENDBRANCH  20  22
ENDBRANCH  15  16
ENDBRANCH   3  15
TORSDOF 6
ENDMDL
MODEL 9
REMARK VINA RESULT:      -7.3      5.489      8.613
REMARK  Name = 
REMARK  6 active torsions:
REMARK  status: ('A' for Active; 'I' for Inactive)
REMARK    1  A    between atoms: N_3  and  C_4
REMARK    2  A    between atoms: C_4  and  C_5
REMARK    3  A    between atoms: C_9  and  O_10
REMARK    4  A    between atoms: O_10  and  C_11
REMARK    5  A    between atoms: N_18  and  C_19
REMARK    6  A    between atoms: C_23  and  C_24
REMARK                            x       y       z     vdW  Elec       q    Type
REMARK                         _______ _______ _______ _____ _____    ______ ____
ROOT
ATOM      1  O   UNL     1       2.632   5.715  18.250  0.00  0.00    +0.000 OA
ATOM      2  C   UNL     1       3.457   6.550  17.913  0.00  0.00    +0.000 C 
ATOM      3  N   UNL     1       3.201   7.897  17.737  0.00  0.00    +0.000 N 
ATOM      4  N   UNL     1       4.773   6.266  17.617  0.00  0.00    +0.000 N 
ATOM      5  H   UNL     1       3.808   8.363  17.087  0.00  0.00    +0.000 HD
ATOM      6  H   UNL     1       5.424   7.032  17.709  0.00  0.00    +0.000 HD
ENDROOT
BRANCH   4   7
ATOM      7  C   UNL     1       5.355   4.910  17.685  0.00  0.00    +0.000 C 
ATOM      8  C   UNL     1       6.305   4.787  18.868  0.00  0.00    +0.000 C 
ATOM      9  C   UNL     1       7.549   5.488  18.353  0.00  0.00    +0.000 C 
ATOM     10  O   UNL     1       7.562   5.330  16.923  0.00  0.00    +0.000 OA
ATOM     11  C   UNL     1       6.355   4.623  16.546  0.00  0.00    +0.000 C 
BRANCH  11  12
ATOM     12  C   UNL     1       5.952   5.042  15.162  0.00  0.00    +0.000 C 
ATOM     13  C   UNL     1       6.973   4.911  14.054  0.00  0.00    +0.000 C 
ATOM     14  C   UNL     1       5.745   4.050  14.039  0.00  0.00    +0.000 C 
ENDBRANCH  11  12
ENDBRANCH   4   7
BRANCH   3  15
ATOM     15  C   UNL     1       1.834   8.384  17.809  0.00  0.00    +0.000 C 
BRANCH  15  16
ATOM     16  C   UNL     1       1.514   9.081  19.112  0.00  0.00    +0.000 A 
ATOM     17  C   UNL     1       1.502   8.375  20.318  0.00  0.00    +0.000 A 
ATOM     18  C   UNL     1       1.142   9.039  21.482  0.00  0.00    +0.000 A 
ATOM     19  N   UNL     1       0.807  10.350  21.541  0.00  0.00    +0.000 NA
ATOM     20  C   UNL     1       0.834  11.035  20.376  0.00  0.00    +0.000 A 
ATOM     21  C   UNL     1       1.176  10.450  19.159  0.00  0.00    +0.000 A 
BRANCH  20  22
ATOM     22  O   UNL     1       0.485  12.385  20.357  0.00  0.00    +0.000 OA
BRANCH  22  23
ATOM     23  C   UNL     1      -0.696  12.702  19.586  0.00  0.00    +0.000 C 
ATOM     24  C   UNL     1      -1.767  13.335  20.483  0.00  0.00    +0.000 C 
ATOM     25  C   UNL     1      -1.348  14.702  21.020  0.00  0.00    +0.000 C 
ATOM     26  C   UNL     1      -0.968  15.680  19.913  0.00  0.00    +0.000 C 
ATOM     27  C   UNL     1       0.006  15.095  18.895  0.00  0.00    +0.000 C 
ATOM     28  C   UNL     1      -0.350  13.679  18.443  0.00  0.00    +0.000 C 
ENDBRANCH  22  23
ENDBRANCH  20  22
ENDBRANCH  15  16
ENDBRANCH   3  15
TORSDOF 6
ENDMDL
