MODEL 1
REMARK VINA RESULT:      -7.4      0.000      0.000
REMARK  Name = 
REMARK  7 active torsions:
REMARK  status: ('A' for Active; 'I' for Inactive)
REMARK    1  A    between atoms: C_1  and  N_2
REMARK    2  A    between atoms: N_2  and  C_3
REMARK    3  A    between atoms: N_2  and  C_4
REMARK    4  A    between atoms: C_7  and  C_8
REMARK    5  A    between atoms: C_9  and  C_10
REMARK    6  A    between atoms: C_10  and  C_12
REMARK    7  A    between atoms: C_13  and  C_14
REMARK                            x       y       z     vdW  Elec       q    Type
REMARK                         _______ _______ _______ _____ _____    ______ ____
ROOT
ATOM      1  C   UNL     1       3.322   5.897  18.635  0.00  0.00    +0.000 C 
ATOM      2  C   UNL     1       4.651   5.781  18.491  0.00  0.00    +0.000 C 
ENDROOT
BRANCH   1   6
ATOM      3  C   UNL     1       1.162   9.648  19.008  0.00  0.00    +0.000 A 
ATOM      4  C   UNL     1       1.296   8.739  20.069  0.00  0.00    +0.000 A 
ATOM      5  C   UNL     1       2.009   7.536  19.940  0.00  0.00    +0.000 A 
ATOM      6  C   UNL     1       2.614   7.184  18.733  0.00  0.00    +0.000 A 
ATOM      7  C   UNL     1       2.533   8.094  17.678  0.00  0.00    +0.000 A 
ATOM      8  C   UNL     1       1.816   9.295  17.817  0.00  0.00    +0.000 A 
BRANCH   3  10
ATOM      9  C   UNL     1       1.117  12.113  19.289  0.00  0.00    +0.000 C 
ATOM     10  N   UNL     1       0.439  10.832  19.128  0.00  0.00    +0.000 N 
ATOM     11  C   UNL     1      -1.004  10.799  19.330  0.00  0.00    +0.000 C 
ENDBRANCH   3  10
ENDBRANCH   1   6
BRANCH   2  12
ATOM     12  C   UNL     1       5.289   4.446  18.327  0.00  0.00    +0.000 C 
ATOM     13  O   UNL     1       5.465   3.666  19.256  0.00  0.00    +0.000 OA
BRANCH  12  14
ATOM     14  C   UNL     1       5.691   4.140  16.931  0.00  0.00    +0.000 C 
ATOM     15  C   UNL     1       6.067   5.105  16.079  0.00  0.00    +0.000 C 
BRANCH  15  16
ATOM     16  C   UNL     1       6.412   4.819  14.678  0.00  0.00    +0.000 A 
ATOM     17  C   UNL     1       5.679   3.902  13.933  0.00  0.00    +0.000 A 
ATOM     18  C   UNL     1       6.086   3.615  12.630  0.00  0.00    +0.000 A 
ATOM     19  C   UNL     1       7.204   4.255  12.108  0.00  0.00    +0.000 A 
ATOM     20  C   UNL     1       7.863   5.169  12.908  0.00  0.00    +0.000 A 
ATOM     21  N   UNL     1       7.495   5.462  14.174  0.00  0.00    +0.000 NA
ENDBRANCH  15  16
ENDBRANCH  12  14
ENDBRANCH   2  12
TORSDOF 5
ENDMDL
MODEL 2
REMARK VINA RESULT:      -7.3      0.694      1.298
REMARK  Name = 
REMARK  7 active torsions:
REMARK  status: ('A' for Active; 'I' for Inactive)
REMARK    1  A    between atoms: C_1  and  N_2
REMARK    2  A    between atoms: N_2  and  C_3
REMARK    3  A    between atoms: N_2  and  C_4
REMARK    4  A    between atoms: C_7  and  C_8
REMARK    5  A    between atoms: C_9  and  C_10
REMARK    6  A    between atoms: C_10  and  C_12
REMARK    7  A    between atoms: C_13  and  C_14
REMARK                            x       y       z     vdW  Elec       q    Type
REMARK                         _______ _______ _______ _____ _____    ______ ____
ROOT
ATOM      1  C   UNL     1       3.765   6.503  18.213  0.00  0.00    +0.000 C 
ATOM      2  C   UNL     1       3.802   5.254  18.700  0.00  0.00    +0.000 C 
ENDROOT
BRANCH   1   6
ATOM      3  C   UNL     1       0.849   9.543  19.278  0.00  0.00    +0.000 A 
ATOM      4  C   UNL     1       1.441   9.469  18.008  0.00  0.00    +0.000 A 
ATOM      5  C   UNL     1       2.372   8.473  17.671  0.00  0.00    +0.000 A 
ATOM      6  C   UNL     1       2.761   7.507  18.600  0.00  0.00    +0.000 A 
ATOM      7  C   UNL     1       2.151   7.534  19.855  0.00  0.00    +0.000 A 
ATOM      8  C   UNL     1       1.221   8.536  20.182  0.00  0.00    +0.000 A 
BRANCH   3  10
ATOM      9  C   UNL     1      -0.519  10.699  20.995  0.00  0.00    +0.000 C 
ATOM     10  N   UNL     1      -0.058  10.542  19.620  0.00  0.00    +0.000 N 
ATOM     11  C   UNL     1      -0.747  11.301  18.584  0.00  0.00    +0.000 C 
ENDBRANCH   3  10
ENDBRANCH   1   6
BRANCH   2  12
ATOM     12  C   UNL     1       4.892   4.315  18.315  0.00  0.00    +0.000 C 
ATOM     13  O   UNL     1       5.525   3.651  19.128  0.00  0.00    +0.000 OA
BRANCH  12  14
ATOM     14  C   UNL     1       5.143   4.252  16.854  0.00  0.00    +0.000 C 
ATOM     15  C   UNL     1       6.355   4.497  16.335  0.00  0.00    +0.000 C 
BRANCH  15  16
ATOM     16  C   UNL     1       6.600   4.494  14.885  0.00  0.00    +0.000 A 
ATOM     17  C   UNL     1       5.868   3.671  14.037  0.00  0.00    +0.000 A 
ATOM     18  C   UNL     1       6.184   3.655  12.678  0.00  0.00    +0.000 A 
ATOM     19  C   UNL     1       7.210   4.464  12.206  0.00  0.00    +0.000 A 
ATOM     20  C   UNL     1       7.873   5.269  13.113  0.00  0.00    +0.000 A 
ATOM     21  N   UNL     1       7.593   5.301  14.434  0.00  0.00    +0.000 NA
ENDBRANCH  15  16
ENDBRANCH  12  14
ENDBRANCH   2  12
TORSDOF 5
ENDMDL
MODEL 3
REMARK VINA RESULT:      -7.1      5.737      7.275
REMARK  Name = 
REMARK  7 active torsions:
REMARK  status: ('A' for Active; 'I' for Inactive)
REMARK    1  A    between atoms: C_1  and  N_2
REMARK    2  A    between atoms: N_2  and  C_3
REMARK    3  A    between atoms: N_2  and  C_4
REMARK    4  A    between atoms: C_7  and  C_8
REMARK    5  A    between atoms: C_9  and  C_10
REMARK    6  A    between atoms: C_10  and  C_12
REMARK    7  A    between atoms: C_13  and  C_14
REMARK                            x       y       z     vdW  Elec       q    Type
REMARK                         _______ _______ _______ _____ _____    ______ ____
ROOT
ATOM      1  C   UNL     1       7.825   8.689  17.458  0.00  0.00    +0.000 C 
ATOM      2  C   UNL     1       7.699   7.452  17.961  0.00  0.00    +0.000 C 
ENDROOT
BRANCH   1   6
ATOM      3  C   UNL     1       9.626  12.072  19.505  0.00  0.00    +0.000 A 
ATOM      4  C   UNL     1       8.884  12.206  18.321  0.00  0.00    +0.000 A 
ATOM      5  C   UNL     1       8.295  11.107  17.676  0.00  0.00    +0.000 A 
ATOM      6  C   UNL     1       8.431   9.815  18.186  0.00  0.00    +0.000 A 
ATOM      7  C   UNL     1       9.126   9.664  19.387  0.00  0.00    +0.000 A 
ATOM      8  C   UNL     1       9.713  10.770  20.024  0.00  0.00    +0.000 A 
BRANCH   3  10
ATOM      9  C   UNL     1       9.478  14.003  21.054  0.00  0.00    +0.000 C 
ATOM     10  N   UNL     1      10.228  13.158  20.134  0.00  0.00    +0.000 N 
ATOM     11  C   UNL     1      11.547  13.616  19.715  0.00  0.00    +0.000 C 
ENDBRANCH   3  10
ENDBRANCH   1   6
BRANCH   2  12
ATOM     12  C   UNL     1       7.139   6.344  17.138  0.00  0.00    +0.000 C 
ATOM     13  O   UNL     1       7.563   6.054  16.025  0.00  0.00    +0.000 OA
BRANCH  12  14
ATOM     14  C   UNL     1       6.020   5.620  17.788  0.00  0.00    +0.000 C 
ATOM     15  C   UNL     1       4.757   6.066  17.720  0.00  0.00    +0.000 C 
BRANCH  15  16
ATOM     16  C   UNL     1       3.649   5.386  18.409  0.00  0.00    +0.000 A 
ATOM     17  C   UNL     1       2.659   4.725  17.693  0.00  0.00    +0.000 A 
ATOM     18  C   UNL     1       1.593   4.153  18.389  0.00  0.00    +0.000 A 
ATOM     19  C   UNL     1       1.553   4.251  19.775  0.00  0.00    +0.000 A 
ATOM     20  C   UNL     1       2.589   4.907  20.411  0.00  0.00    +0.000 A 
ATOM     21  N   UNL     1       3.630   5.474  19.763  0.00  0.00    +0.000 NA
ENDBRANCH  15  16
ENDBRANCH  12  14
ENDBRANCH   2  12
TORSDOF 5
ENDMDL
MODEL 4
REMARK VINA RESULT:      -7.1      0.798      1.310
REMARK  Name = 
REMARK  7 active torsions:
REMARK  status: ('A' for Active; 'I' for Inactive)
REMARK    1  A    between atoms: C_1  and  N_2
REMARK    2  A    between atoms: N_2  and  C_3
REMARK    3  A    between atoms: N_2  and  C_4
REMARK    4  A    between atoms: C_7  and  C_8
REMARK    5  A    between atoms: C_9  and  C_10
REMARK    6  A    between atoms: C_10  and  C_12
REMARK    7  A    between atoms: C_13  and  C_14
REMARK                            x       y       z     vdW  Elec       q    Type
REMARK                         _______ _______ _______ _____ _____    ______ ____
ROOT
ATOM      1  C   UNL     1       3.261   5.745  19.066  0.00  0.00    +0.000 C 
ATOM      2  C   UNL     1       3.606   5.244  17.870  0.00  0.00    +0.000 C 
ENDROOT
BRANCH   1   6
ATOM      3  C   UNL     1       1.095   9.483  19.519  0.00  0.00    +0.000 A 
ATOM      4  C   UNL     1       1.682   9.086  18.307  0.00  0.00    +0.000 A 
ATOM      5  C   UNL     1       2.368   7.868  18.170  0.00  0.00    +0.000 A 
ATOM      6  C   UNL     1       2.505   6.994  19.248  0.00  0.00    +0.000 A 
ATOM      7  C   UNL     1       1.891   7.348  20.451  0.00  0.00    +0.000 A 
ATOM      8  C   UNL     1       1.208   8.569  20.578  0.00  0.00    +0.000 A 
BRANCH   3  10
ATOM      9  C   UNL     1       0.743  11.830  18.796  0.00  0.00    +0.000 C 
ATOM     10  N   UNL     1       0.433  10.699  19.663  0.00  0.00    +0.000 N 
ATOM     11  C   UNL     1      -0.413  10.947  20.824  0.00  0.00    +0.000 C 
ENDBRANCH   3  10
ENDBRANCH   1   6
BRANCH   2  12
ATOM     12  C   UNL     1       4.310   3.936  17.762  0.00  0.00    +0.000 C 
ATOM     13  O   UNL     1       4.276   3.080  18.639  0.00  0.00    +0.000 OA
BRANCH  12  14
ATOM     14  C   UNL     1       5.058   3.760  16.493  0.00  0.00    +0.000 C 
ATOM     15  C   UNL     1       5.322   4.794  15.680  0.00  0.00    +0.000 C 
BRANCH  15  16
ATOM     16  C   UNL     1       6.011   4.619  14.392  0.00  0.00    +0.000 A 
ATOM     17  C   UNL     1       5.565   3.687  13.462  0.00  0.00    +0.000 A 
ATOM     18  C   UNL     1       6.292   3.512  12.285  0.00  0.00    +0.000 A 
ATOM     19  C   UNL     1       7.433   4.274  12.067  0.00  0.00    +0.000 A 
ATOM     20  C   UNL     1       7.794   5.194  13.032  0.00  0.00    +0.000 A 
ATOM     21  N   UNL     1       7.113   5.382  14.184  0.00  0.00    +0.000 NA
ENDBRANCH  15  16
ENDBRANCH  12  14
ENDBRANCH   2  12
TORSDOF 5
ENDMDL
MODEL 5
REMARK VINA RESULT:      -7.1      5.782      7.509
REMARK  Name = 
REMARK  7 active torsions:
REMARK  status: ('A' for Active; 'I' for Inactive)
REMARK    1  A    between atoms: C_1  and  N_2
REMARK    2  A    between atoms: N_2  and  C_3
REMARK    3  A    between atoms: N_2  and  C_4
REMARK    4  A    between atoms: C_7  and  C_8
REMARK    5  A    between atoms: C_9  and  C_10
REMARK    6  A    between atoms: C_10  and  C_12
REMARK    7  A    between atoms: C_13  and  C_14
REMARK                            x       y       z     vdW  Elec       q    Type
REMARK                         _______ _______ _______ _____ _____    ______ ____
ROOT
ATOM      1  C   UNL     1       7.616   8.510  17.707  0.00  0.00    +0.000 C 
ATOM      2  C   UNL     1       7.938   7.269  18.104  0.00  0.00    +0.000 C 
ENDROOT
BRANCH   1   6
ATOM      3  C   UNL     1       9.758  12.125  18.812  0.00  0.00    +0.000 A 
ATOM      4  C   UNL     1       8.787  12.095  17.798  0.00  0.00    +0.000 A 
ATOM      5  C   UNL     1       8.092  10.923  17.460  0.00  0.00    +0.000 A 
ATOM      6  C   UNL     1       8.345   9.720  18.119  0.00  0.00    +0.000 A 
ATOM      7  C   UNL     1       9.273   9.736  19.161  0.00  0.00    +0.000 A 
ATOM      8  C   UNL     1       9.965  10.914  19.491  0.00  0.00    +0.000 A 
BRANCH   3  10
ATOM      9  C   UNL     1      10.071  14.576  18.592  0.00  0.00    +0.000 C 
ATOM     10  N   UNL     1      10.463  13.281  19.135  0.00  0.00    +0.000 N 
ATOM     11  C   UNL     1      11.742  13.196  19.829  0.00  0.00    +0.000 C 
ENDBRANCH   3  10
ENDBRANCH   1   6
BRANCH   2  12
ATOM     12  C   UNL     1       7.197   6.085  17.589  0.00  0.00    +0.000 C 
ATOM     13  O   UNL     1       7.593   5.399  16.653  0.00  0.00    +0.000 OA
BRANCH  12  14
ATOM     14  C   UNL     1       5.933   5.805  18.313  0.00  0.00    +0.000 C 
ATOM     15  C   UNL     1       5.620   4.571  18.737  0.00  0.00    +0.000 C 
BRANCH  15  16
ATOM     16  C   UNL     1       4.344   4.274  19.404  0.00  0.00    +0.000 A 
ATOM     17  C   UNL     1       3.455   5.291  19.734  0.00  0.00    +0.000 A 
ATOM     18  C   UNL     1       2.288   4.966  20.427  0.00  0.00    +0.000 A 
ATOM     19  C   UNL     1       2.040   3.640  20.760  0.00  0.00    +0.000 A 
ATOM     20  C   UNL     1       2.964   2.688  20.375  0.00  0.00    +0.000 A 
ATOM     21  N   UNL     1       4.105   2.974  19.710  0.00  0.00    +0.000 NA
ENDBRANCH  15  16
ENDBRANCH  12  14
ENDBRANCH   2  12
TORSDOF 5
ENDMDL
MODEL 6
REMARK VINA RESULT:      -7.0      5.918      7.215
REMARK  Name = 
REMARK  7 active torsions:
REMARK  status: ('A' for Active; 'I' for Inactive)
REMARK    1  A    between atoms: C_1  and  N_2
REMARK    2  A    between atoms: N_2  and  C_3
REMARK    3  A    between atoms: N_2  and  C_4
REMARK    4  A    between atoms: C_7  and  C_8
REMARK    5  A    between atoms: C_9  and  C_10
REMARK    6  A    between atoms: C_10  and  C_12
REMARK    7  A    between atoms: C_13  and  C_14
REMARK                            x       y       z     vdW  Elec       q    Type
REMARK                         _______ _______ _______ _____ _____    ______ ____
ROOT
ATOM      1  C   UNL     1       8.117   8.876  17.571  0.00  0.00    +0.000 C 
ATOM      2  C   UNL     1       7.797   7.692  18.114  0.00  0.00    +0.000 C 
ENDROOT
BRANCH   1   6
ATOM      3  C   UNL     1       9.791  12.265  19.713  0.00  0.00    +0.000 A 
ATOM      4  C   UNL     1       9.195  12.384  18.448  0.00  0.00    +0.000 A 
ATOM      5  C   UNL     1       8.645  11.283  17.772  0.00  0.00    +0.000 A 
ATOM      6  C   UNL     1       8.676  10.006  18.331  0.00  0.00    +0.000 A 
ATOM      7  C   UNL     1       9.224   9.872  19.608  0.00  0.00    +0.000 A 
ATOM      8  C   UNL     1       9.773  10.979  20.276  0.00  0.00    +0.000 A 
BRANCH   3  10
ATOM      9  C   UNL     1       9.792  13.842  21.628  0.00  0.00    +0.000 C 
ATOM     10  N   UNL     1      10.356  13.351  20.376  0.00  0.00    +0.000 N 
ATOM     11  C   UNL     1      11.372  14.169  19.724  0.00  0.00    +0.000 C 
ENDBRANCH   3  10
ENDBRANCH   1   6
BRANCH   2  12
ATOM     12  C   UNL     1       7.303   6.571  17.268  0.00  0.00    +0.000 C 
ATOM     13  O   UNL     1       7.637   6.413  16.099  0.00  0.00    +0.000 OA
BRANCH  12  14
ATOM     14  C   UNL     1       6.366   5.657  17.968  0.00  0.00    +0.000 C 
ATOM     15  C   UNL     1       5.552   4.830  17.296  0.00  0.00    +0.000 C 
BRANCH  15  16
ATOM     16  C   UNL     1       4.581   3.963  17.979  0.00  0.00    +0.000 A 
ATOM     17  C   UNL     1       4.764   3.589  19.306  0.00  0.00    +0.000 A 
ATOM     18  C   UNL     1       3.850   2.711  19.889  0.00  0.00    +0.000 A 
ATOM     19  C   UNL     1       2.780   2.241  19.138  0.00  0.00    +0.000 A 
ATOM     20  C   UNL     1       2.659   2.680  17.833  0.00  0.00    +0.000 A 
ATOM     21  N   UNL     1       3.531   3.524  17.240  0.00  0.00    +0.000 NA
ENDBRANCH  15  16
ENDBRANCH  12  14
ENDBRANCH   2  12
TORSDOF 5
ENDMDL
MODEL 7
REMARK VINA RESULT:      -7.0      5.149      5.761
REMARK  Name = 
REMARK  7 active torsions:
REMARK  status: ('A' for Active; 'I' for Inactive)
REMARK    1  A    between atoms: C_1  and  N_2
REMARK    2  A    between atoms: N_2  and  C_3
REMARK    3  A    between atoms: N_2  and  C_4
REMARK    4  A    between atoms: C_7  and  C_8
REMARK    5  A    between atoms: C_9  and  C_10
REMARK    6  A    between atoms: C_10  and  C_12
REMARK    7  A    between atoms: C_13  and  C_14
REMARK                            x       y       z     vdW  Elec       q    Type
REMARK                         _______ _______ _______ _____ _____    ______ ____
ROOT
ATOM      1  C   UNL     1       7.798   7.912  17.874  0.00  0.00    +0.000 C 
ATOM      2  C   UNL     1       7.899   6.847  18.684  0.00  0.00    +0.000 C 
ENDROOT
BRANCH   1   6
ATOM      3  C   UNL     1       9.424  11.802  18.920  0.00  0.00    +0.000 A 
ATOM      4  C   UNL     1       9.693  10.641  19.661  0.00  0.00    +0.000 A 
ATOM      5  C   UNL     1       9.173   9.387  19.304  0.00  0.00    +0.000 A 
ATOM      6  C   UNL     1       8.348   9.240  18.189  0.00  0.00    +0.000 A 
ATOM      7  C   UNL     1       8.103  10.373  17.411  0.00  0.00    +0.000 A 
ATOM      8  C   UNL     1       8.628  11.624  17.777  0.00  0.00    +0.000 A 
BRANCH   3  10
ATOM      9  C   UNL     1      10.540  13.928  18.296  0.00  0.00    +0.000 C 
ATOM     10  N   UNL     1       9.922  13.051  19.283  0.00  0.00    +0.000 N 
ATOM     11  C   UNL     1      10.052  13.414  20.689  0.00  0.00    +0.000 C 
ENDBRANCH   3  10
ENDBRANCH   1   6
BRANCH   2  12
ATOM     12  C   UNL     1       7.380   5.515  18.265  0.00  0.00    +0.000 C 
ATOM     13  O   UNL     1       6.857   4.724  19.042  0.00  0.00    +0.000 OA
BRANCH  12  14
ATOM     14  C   UNL     1       7.550   5.232  16.819  0.00  0.00    +0.000 C 
ATOM     15  C   UNL     1       6.504   5.186  15.981  0.00  0.00    +0.000 C 
BRANCH  15  16
ATOM     16  C   UNL     1       6.657   4.848  14.557  0.00  0.00    +0.000 A 
ATOM     17  C   UNL     1       5.849   3.888  13.959  0.00  0.00    +0.000 A 
ATOM     18  C   UNL     1       6.078   3.554  12.624  0.00  0.00    +0.000 A 
ATOM     19  C   UNL     1       7.095   4.192  11.925  0.00  0.00    +0.000 A 
ATOM     20  C   UNL     1       7.837   5.151  12.589  0.00  0.00    +0.000 A 
ATOM     21  N   UNL     1       7.642   5.490  13.882  0.00  0.00    +0.000 NA
ENDBRANCH  15  16
ENDBRANCH  12  14
ENDBRANCH   2  12
TORSDOF 5
ENDMDL
MODEL 8
REMARK VINA RESULT:      -7.0      5.926      7.538
REMARK  Name = 
REMARK  7 active torsions:
REMARK  status: ('A' for Active; 'I' for Inactive)
REMARK    1  A    between atoms: C_1  and  N_2
REMARK    2  A    between atoms: N_2  and  C_3
REMARK    3  A    between atoms: N_2  and  C_4
REMARK    4  A    between atoms: C_7  and  C_8
REMARK    5  A    between atoms: C_9  and  C_10
REMARK    6  A    between atoms: C_10  and  C_12
REMARK    7  A    between atoms: C_13  and  C_14
REMARK                            x       y       z     vdW  Elec       q    Type
REMARK                         _______ _______ _______ _____ _____    ______ ____
ROOT
ATOM      1  C   UNL     1       7.697   8.794  17.745  0.00  0.00    +0.000 C 
ATOM      2  C   UNL     1       8.022   7.527  18.042  0.00  0.00    +0.000 C 
ENDROOT
BRANCH   1   6
ATOM      3  C   UNL     1       9.959  12.215  19.177  0.00  0.00    +0.000 A 
ATOM      4  C   UNL     1       9.997  10.961  19.806  0.00  0.00    +0.000 A 
ATOM      5  C   UNL     1       9.272   9.859  19.325  0.00  0.00    +0.000 A 
ATOM      6  C   UNL     1       8.465   9.967  18.192  0.00  0.00    +0.000 A 
ATOM      7  C   UNL     1       8.447  11.193  17.524  0.00  0.00    +0.000 A 
ATOM      8  C   UNL     1       9.175  12.290  18.015  0.00  0.00    +0.000 A 
BRANCH   3  10
ATOM      9  C   UNL     1      10.363  13.875  20.977  0.00  0.00    +0.000 C 
ATOM     10  N   UNL     1      10.661  13.315  19.664  0.00  0.00    +0.000 N 
ATOM     11  C   UNL     1      11.542  14.076  18.787  0.00  0.00    +0.000 C 
ENDBRANCH   3  10
ENDBRANCH   1   6
BRANCH   2  12
ATOM     12  C   UNL     1       7.236   6.387  17.494  0.00  0.00    +0.000 C 
ATOM     13  O   UNL     1       7.625   5.689  16.564  0.00  0.00    +0.000 OA
BRANCH  12  14
ATOM     14  C   UNL     1       5.937   6.169  18.177  0.00  0.00    +0.000 C 
ATOM     15  C   UNL     1       5.576   4.962  18.637  0.00  0.00    +0.000 C 
BRANCH  15  16
ATOM     16  C   UNL     1       4.266   4.724  19.263  0.00  0.00    +0.000 A 
ATOM     17  C   UNL     1       3.373   5.768  19.474  0.00  0.00    +0.000 A 
ATOM     18  C   UNL     1       2.172   5.504  20.132  0.00  0.00    +0.000 A 
ATOM     19  C   UNL     1       1.894   4.208  20.551  0.00  0.00    +0.000 A 
ATOM     20  C   UNL     1       2.826   3.224  20.282  0.00  0.00    +0.000 A 
ATOM     21  N   UNL     1       4.000   3.452  19.652  0.00  0.00    +0.000 NA
ENDBRANCH  15  16
ENDBRANCH  12  14
ENDBRANCH   2  12
TORSDOF 5
ENDMDL
MODEL 9
REMARK VINA RESULT:      -7.0      5.757      7.173
REMARK  Name = 
REMARK  7 active torsions:
REMARK  status: ('A' for Active; 'I' for Inactive)
REMARK    1  A    between atoms: C_1  and  N_2
REMARK    2  A    between atoms: N_2  and  C_3
REMARK    3  A    between atoms: N_2  and  C_4
REMARK    4  A    between atoms: C_7  and  C_8
REMARK    5  A    between atoms: C_9  and  C_10
REMARK    6  A    between atoms: C_10  and  C_12
REMARK    7  A    between atoms: C_13  and  C_14
REMARK                            x       y       z     vdW  Elec       q    Type
REMARK                         _______ _______ _______ _____ _____    ______ ____
ROOT
ATOM      1  C   UNL     1       8.345   8.427  18.017  0.00  0.00    +0.000 C 
ATOM      2  C   UNL     1       7.178   8.101  17.441  0.00  0.00    +0.000 C 
ENDROOT
BRANCH   1   6
ATOM      3  C   UNL     1       9.415  12.488  19.130  0.00  0.00    +0.000 A 
ATOM      4  C   UNL     1       8.774  12.175  17.922  0.00  0.00    +0.000 A 
ATOM      5  C   UNL     1       8.421  10.859  17.579  0.00  0.00    +0.000 A 
ATOM      6  C   UNL     1       8.703   9.793  18.433  0.00  0.00    +0.000 A 
ATOM      7  C   UNL     1       9.299  10.086  19.661  0.00  0.00    +0.000 A 
ATOM      8  C   UNL     1       9.650  11.406  19.993  0.00  0.00    +0.000 A 
BRANCH   3  10
ATOM      9  C   UNL     1       9.870  14.828  18.444  0.00  0.00    +0.000 C 
ATOM     10  N   UNL     1       9.784  13.788  19.463  0.00  0.00    +0.000 N 
ATOM     11  C   UNL     1      10.319  14.089  20.785  0.00  0.00    +0.000 C 
ENDBRANCH   3  10
ENDBRANCH   1   6
BRANCH   2  12
ATOM     12  C   UNL     1       6.857   6.684  17.112  0.00  0.00    +0.000 C 
ATOM     13  O   UNL     1       7.479   6.029  16.283  0.00  0.00    +0.000 OA
BRANCH  12  14
ATOM     14  C   UNL     1       5.714   6.133  17.881  0.00  0.00    +0.000 C 
ATOM     15  C   UNL     1       5.057   5.035  17.479  0.00  0.00    +0.000 C 
BRANCH  15  16
ATOM     16  C   UNL     1       3.887   4.515  18.203  0.00  0.00    +0.000 A 
ATOM     17  C   UNL     1       2.615   4.579  17.647  0.00  0.00    +0.000 A 
ATOM     18  C   UNL     1       1.528   4.135  18.401  0.00  0.00    +0.000 A 
ATOM     19  C   UNL     1       1.744   3.633  19.678  0.00  0.00    +0.000 A 
ATOM     20  C   UNL     1       3.043   3.583  20.147  0.00  0.00    +0.000 A 
ATOM     21  N   UNL     1       4.113   4.012  19.442  0.00  0.00    +0.000 NA
ENDBRANCH  15  16
ENDBRANCH  12  14
ENDBRANCH   2  12
TORSDOF 5
ENDMDL
