MODEL 1
REMARK VINA RESULT:      -8.5      0.000      0.000
REMARK  Name = 
REMARK  7 active torsions:
REMARK  status: ('A' for Active; 'I' for Inactive)
REMARK    1  A    between atoms: C_1  and  C_2
REMARK    2  A    between atoms: C_2  and  N_3
REMARK    3  A    between atoms: C_5  and  C_6
REMARK    4  A    between atoms: C_9  and  C_10
REMARK    5  A    between atoms: C_13  and  C_14
REMARK    6  A    between atoms: C_15  and  N_16
REMARK    7  A    between atoms: C_18  and  N_19
REMARK                            x       y       z     vdW  Elec       q    Type
REMARK                         _______ _______ _______ _____ _____    ______ ____
ROOT
ATOM      1  C   UNL     1       4.337   3.784  17.436  0.00  0.00    +0.000 A 
ATOM      2  C   UNL     1       3.090   4.394  17.546  0.00  0.00    +0.000 A 
ATOM      3  C   UNL     1       2.715   4.640  18.872  0.00  0.00    +0.000 A 
ATOM      4  C   UNL     1       2.159   5.744  19.600  0.00  0.00    +0.000 A 
ATOM      5  N   UNL     1       1.938   5.381  20.884  0.00  0.00    +0.000 NA
ATOM      6  N   UNL     1       2.542   4.186  20.996  0.00  0.00    +0.000 N 
ATOM      7  C   UNL     1       3.228   3.826  19.872  0.00  0.00    +0.000 A 
ATOM      8  C   UNL     1       4.254   2.928  19.629  0.00  0.00    +0.000 A 
ATOM      9  N   UNL     1       4.881   3.014  18.426  0.00  0.00    +0.000 NA
ATOM     10  H   UNL     1       2.553   3.744  21.909  0.00  0.00    +0.000 HD
ENDROOT
BRANCH   4  11
ATOM     11  C   UNL     1       2.147   7.168  19.189  0.00  0.00    +0.000 A 
ATOM     12  C   UNL     1       2.989   7.543  18.148  0.00  0.00    +0.000 A 
ATOM     13  C   UNL     1       2.918   8.846  17.671  0.00  0.00    +0.000 A 
ATOM     14  C   UNL     1       2.032   9.754  18.249  0.00  0.00    +0.000 A 
ATOM     15  C   UNL     1       2.143  11.195  17.818  0.00  0.00    +0.000 C 
ATOM     16  C   UNL     1       1.175   9.301  19.277  0.00  0.00    +0.000 A 
ATOM     17  N   UNL     1       1.231   8.003  19.728  0.00  0.00    +0.000 NA
BRANCH  16  18
ATOM     18  N   UNL     1       0.304  10.149  19.923  0.00  0.00    +0.000 N 
ATOM     19  C   UNL     1       0.438  10.356  21.366  0.00  0.00    +0.000 C 
ATOM     20  C   UNL     1       0.291  11.881  21.630  0.00  0.00    +0.000 C 
ATOM     21  C   UNL     1      -1.032  12.417  21.040  0.00  0.00    +0.000 C 
ATOM     22  C   UNL     1      -1.290  11.968  19.597  0.00  0.00    +0.000 C 
ATOM     23  F   UNL     1      -0.461  12.662  18.762  0.00  0.00    +0.000 F 
ATOM     24  C   UNL     1      -1.045  10.459  19.420  0.00  0.00    +0.000 C 
BRANCH  20  25
ATOM     25  N   UNL     1       1.428  12.629  21.058  0.00  0.00    +0.000 NA
ATOM     26  H   UNL     1       1.349  13.597  21.393  0.00  0.00    +0.000 HD
ATOM     27  H   UNL     1       1.286  12.715  20.050  0.00  0.00    +0.000 HD
ENDBRANCH  20  25
ENDBRANCH  16  18
ENDBRANCH   4  11
BRANCH   1  30
ATOM     28  N   UNL     1       6.837   5.952  16.971  0.00  0.00    +0.000 N 
ATOM     29  C   UNL     1       6.667   4.589  16.888  0.00  0.00    +0.000 A 
ATOM     30  C   UNL     1       5.319   4.490  16.584  0.00  0.00    +0.000 A 
ATOM     31  C   UNL     1       5.073   5.708  15.878  0.00  0.00    +0.000 A 
ATOM     32  N   UNL     1       6.035   6.612  16.109  0.00  0.00    +0.000 NA
BRANCH  28  34
ATOM     33  C   UNL     1       7.866   8.098  17.740  0.00  0.00    +0.000 C 
ATOM     34  C   UNL     1       7.498   6.649  18.065  0.00  0.00    +0.000 C 
ENDBRANCH  28  34
ENDBRANCH   1  30
TORSDOF 5
ENDMDL
MODEL 2
REMARK VINA RESULT:      -8.2      2.861      8.752
REMARK  Name = 
REMARK  7 active torsions:
REMARK  status: ('A' for Active; 'I' for Inactive)
REMARK    1  A    between atoms: C_1  and  C_2
REMARK    2  A    between atoms: C_2  and  N_3
REMARK    3  A    between atoms: C_5  and  C_6
REMARK    4  A    between atoms: C_9  and  C_10
REMARK    5  A    between atoms: C_13  and  C_14
REMARK    6  A    between atoms: C_15  and  N_16
REMARK    7  A    between atoms: C_18  and  N_19
REMARK                            x       y       z     vdW  Elec       q    Type
REMARK                         _______ _______ _______ _____ _____    ______ ____
ROOT
ATOM      1  C   UNL     1      -0.946  11.830  19.804  0.00  0.00    +0.000 A 
ATOM      2  C   UNL     1      -0.678  10.757  18.958  0.00  0.00    +0.000 A 
ATOM      3  C   UNL     1       0.619  10.783  18.433  0.00  0.00    +0.000 A 
ATOM      4  C   UNL     1       1.682   9.837  18.261  0.00  0.00    +0.000 A 
ATOM      5  N   UNL     1       2.718  10.421  17.616  0.00  0.00    +0.000 NA
ATOM      6  N   UNL     1       2.397  11.726  17.597  0.00  0.00    +0.000 N 
ATOM      7  C   UNL     1       1.259  12.008  18.297  0.00  0.00    +0.000 A 
ATOM      8  C   UNL     1       0.746  13.166  18.856  0.00  0.00    +0.000 A 
ATOM      9  N   UNL     1      -0.298  13.031  19.716  0.00  0.00    +0.000 NA
ATOM     10  H   UNL     1       3.071  12.375  17.205  0.00  0.00    +0.000 HD
ENDROOT
BRANCH   4  11
ATOM     11  C   UNL     1       1.847   8.541  18.964  0.00  0.00    +0.000 A 
ATOM     12  C   UNL     1       1.466   8.483  20.300  0.00  0.00    +0.000 A 
ATOM     13  C   UNL     1       1.506   7.256  20.951  0.00  0.00    +0.000 A 
ATOM     14  C   UNL     1       1.943   6.120  20.272  0.00  0.00    +0.000 A 
ATOM     15  C   UNL     1       2.147   4.867  21.086  0.00  0.00    +0.000 C 
ATOM     16  C   UNL     1       2.278   6.236  18.904  0.00  0.00    +0.000 A 
ATOM     17  N   UNL     1       2.211   7.448  18.257  0.00  0.00    +0.000 NA
BRANCH  16  18
ATOM     18  N   UNL     1       2.756   5.168  18.180  0.00  0.00    +0.000 N 
ATOM     19  C   UNL     1       4.064   5.267  17.529  0.00  0.00    +0.000 C 
ATOM     20  C   UNL     1       4.815   3.933  17.795  0.00  0.00    +0.000 C 
ATOM     21  C   UNL     1       3.972   2.723  17.331  0.00  0.00    +0.000 C 
ATOM     22  C   UNL     1       2.515   2.769  17.805  0.00  0.00    +0.000 C 
ATOM     23  F   UNL     1       2.475   2.476  19.139  0.00  0.00    +0.000 F 
ATOM     24  C   UNL     1       1.883   4.152  17.568  0.00  0.00    +0.000 C 
BRANCH  20  25
ATOM     25  N   UNL     1       5.142   3.786  19.228  0.00  0.00    +0.000 NA
ATOM     26  H   UNL     1       4.265   3.902  19.750  0.00  0.00    +0.000 HD
ATOM     27  H   UNL     1       5.700   4.591  19.518  0.00  0.00    +0.000 HD
ENDBRANCH  20  25
ENDBRANCH  16  18
ENDBRANCH   4  11
BRANCH   1  30
ATOM     28  N   UNL     1      -1.505  12.526  23.025  0.00  0.00    +0.000 N 
ATOM     29  C   UNL     1      -2.269  12.258  21.912  0.00  0.00    +0.000 A 
ATOM     30  C   UNL     1      -1.410  11.470  21.162  0.00  0.00    +0.000 A 
ATOM     31  C   UNL     1      -0.613  10.842  22.168  0.00  0.00    +0.000 A 
ATOM     32  N   UNL     1      -0.689  11.495  23.335  0.00  0.00    +0.000 NA
BRANCH  28  34
ATOM     33  C   UNL     1      -0.387  14.748  22.763  0.00  0.00    +0.000 C 
ATOM     34  C   UNL     1      -1.297  13.847  23.600  0.00  0.00    +0.000 C 
ENDBRANCH  28  34
ENDBRANCH   1  30
TORSDOF 5
ENDMDL
MODEL 3
REMARK VINA RESULT:      -8.1      0.981      1.704
REMARK  Name = 
REMARK  7 active torsions:
REMARK  status: ('A' for Active; 'I' for Inactive)
REMARK    1  A    between atoms: C_1  and  C_2
REMARK    2  A    between atoms: C_2  and  N_3
REMARK    3  A    between atoms: C_5  and  C_6
REMARK    4  A    between atoms: C_9  and  C_10
REMARK    5  A    between atoms: C_13  and  C_14
REMARK    6  A    between atoms: C_15  and  N_16
REMARK    7  A    between atoms: C_18  and  N_19
REMARK                            x       y       z     vdW  Elec       q    Type
REMARK                         _______ _______ _______ _____ _____    ______ ____
ROOT
ATOM      1  C   UNL     1       4.721   4.121  17.888  0.00  0.00    +0.000 A 
ATOM      2  C   UNL     1       3.445   4.662  17.753  0.00  0.00    +0.000 A 
ATOM      3  C   UNL     1       2.802   4.863  18.980  0.00  0.00    +0.000 A 
ATOM      4  C   UNL     1       2.053   5.921  19.592  0.00  0.00    +0.000 A 
ATOM      5  N   UNL     1       1.603   5.523  20.804  0.00  0.00    +0.000 NA
ATOM      6  N   UNL     1       2.239   4.359  21.024  0.00  0.00    +0.000 N 
ATOM      7  C   UNL     1       3.152   4.058  20.055  0.00  0.00    +0.000 A 
ATOM      8  C   UNL     1       4.254   3.220  20.013  0.00  0.00    +0.000 A 
ATOM      9  N   UNL     1       5.101   3.362  18.959  0.00  0.00    +0.000 NA
ATOM     10  H   UNL     1       2.094   3.901  21.917  0.00  0.00    +0.000 HD
ENDROOT
BRANCH   4  11
ATOM     11  C   UNL     1       2.044   7.351  19.199  0.00  0.00    +0.000 A 
ATOM     12  C   UNL     1       2.888   7.739  18.166  0.00  0.00    +0.000 A 
ATOM     13  C   UNL     1       2.820   9.047  17.705  0.00  0.00    +0.000 A 
ATOM     14  C   UNL     1       1.933   9.948  18.292  0.00  0.00    +0.000 A 
ATOM     15  C   UNL     1       2.047  11.395  17.879  0.00  0.00    +0.000 C 
ATOM     16  C   UNL     1       1.072   9.483  19.311  0.00  0.00    +0.000 A 
ATOM     17  N   UNL     1       1.126   8.180  19.746  0.00  0.00    +0.000 NA
BRANCH  16  18
ATOM     18  N   UNL     1       0.200  10.324  19.965  0.00  0.00    +0.000 N 
ATOM     19  C   UNL     1       0.324  10.505  21.413  0.00  0.00    +0.000 C 
ATOM     20  C   UNL     1       0.181  12.025  21.702  0.00  0.00    +0.000 C 
ATOM     21  C   UNL     1      -1.135  12.578  21.111  0.00  0.00    +0.000 C 
ATOM     22  C   UNL     1      -1.383  12.155  19.659  0.00  0.00    +0.000 C 
ATOM     23  F   UNL     1      -0.545  12.860  18.843  0.00  0.00    +0.000 F 
ATOM     24  C   UNL     1      -1.143  10.648  19.457  0.00  0.00    +0.000 C 
BRANCH  20  25
ATOM     25  N   UNL     1       1.325  12.779  21.152  0.00  0.00    +0.000 NA
ATOM     26  H   UNL     1       1.026  13.160  20.246  0.00  0.00    +0.000 HD
ATOM     27  H   UNL     1       2.060  12.116  20.900  0.00  0.00    +0.000 HD
ENDBRANCH  20  25
ENDBRANCH  16  18
ENDBRANCH   4  11
BRANCH   1  30
ATOM     28  N   UNL     1       6.770   4.807  15.338  0.00  0.00    +0.000 N 
ATOM     29  C   UNL     1       5.727   5.435  15.979  0.00  0.00    +0.000 A 
ATOM     30  C   UNL     1       5.811   4.894  17.253  0.00  0.00    +0.000 A 
ATOM     31  C   UNL     1       7.205   4.604  17.371  0.00  0.00    +0.000 A 
ATOM     32  N   UNL     1       7.804   4.569  16.173  0.00  0.00    +0.000 NA
BRANCH  28  34
ATOM     33  C   UNL     1       5.245   3.921  13.564  0.00  0.00    +0.000 C 
ATOM     34  C   UNL     1       6.680   4.143  14.046  0.00  0.00    +0.000 C 
ENDBRANCH  28  34
ENDBRANCH   1  30
TORSDOF 5
ENDMDL
MODEL 4
REMARK VINA RESULT:      -8.0      2.942      8.207
REMARK  Name = 
REMARK  7 active torsions:
REMARK  status: ('A' for Active; 'I' for Inactive)
REMARK    1  A    between atoms: C_1  and  C_2
REMARK    2  A    between atoms: C_2  and  N_3
REMARK    3  A    between atoms: C_5  and  C_6
REMARK    4  A    between atoms: C_9  and  C_10
REMARK    5  A    between atoms: C_13  and  C_14
REMARK    6  A    between atoms: C_15  and  N_16
REMARK    7  A    between atoms: C_18  and  N_19
REMARK                            x       y       z     vdW  Elec       q    Type
REMARK                         _______ _______ _______ _____ _____    ______ ____
ROOT
ATOM      1  C   UNL     1      -1.222  12.665  21.145  0.00  0.00    +0.000 A 
ATOM      2  C   UNL     1       0.047  12.110  21.289  0.00  0.00    +0.000 A 
ATOM      3  C   UNL     1       0.043  10.912  22.013  0.00  0.00    +0.000 A 
ATOM      4  C   UNL     1       0.631   9.613  21.863  0.00  0.00    +0.000 A 
ATOM      5  N   UNL     1       0.328   8.846  22.935  0.00  0.00    +0.000 NA
ATOM      6  N   UNL     1      -0.592   9.564  23.602  0.00  0.00    +0.000 N 
ATOM      7  C   UNL     1      -0.965  10.700  22.944  0.00  0.00    +0.000 A 
ATOM      8  C   UNL     1      -2.072  11.527  23.023  0.00  0.00    +0.000 A 
ATOM      9  N   UNL     1      -2.242  12.435  22.026  0.00  0.00    +0.000 NA
ATOM     10  H   UNL     1      -1.011   9.148  24.427  0.00  0.00    +0.000 HD
ENDROOT
BRANCH   4  11
ATOM     11  C   UNL     1       1.171   9.016  20.617  0.00  0.00    +0.000 A 
ATOM     12  C   UNL     1       1.286   9.843  19.506  0.00  0.00    +0.000 A 
ATOM     13  C   UNL     1       1.890   9.340  18.361  0.00  0.00    +0.000 A 
ATOM     14  C   UNL     1       2.346   8.023  18.334  0.00  0.00    +0.000 A 
ATOM     15  C   UNL     1       2.812   7.483  17.005  0.00  0.00    +0.000 C 
ATOM     16  C   UNL     1       2.237   7.245  19.508  0.00  0.00    +0.000 A 
ATOM     17  N   UNL     1       1.662   7.757  20.648  0.00  0.00    +0.000 NA
BRANCH  16  18
ATOM     18  N   UNL     1       2.627   5.926  19.544  0.00  0.00    +0.000 N 
ATOM     19  C   UNL     1       1.677   4.906  19.994  0.00  0.00    +0.000 C 
ATOM     20  C   UNL     1       1.789   3.706  19.013  0.00  0.00    +0.000 C 
ATOM     21  C   UNL     1       3.248   3.206  18.918  0.00  0.00    +0.000 C 
ATOM     22  C   UNL     1       4.272   4.328  18.710  0.00  0.00    +0.000 C 
ATOM     23  F   UNL     1       4.182   4.775  17.422  0.00  0.00    +0.000 F 
ATOM     24  C   UNL     1       4.032   5.502  19.676  0.00  0.00    +0.000 C 
BRANCH  20  25
ATOM     25  N   UNL     1       1.304   4.074  17.668  0.00  0.00    +0.000 NA
ATOM     26  H   UNL     1       0.676   4.879  17.785  0.00  0.00    +0.000 HD
ATOM     27  H   UNL     1       0.684   3.335  17.332  0.00  0.00    +0.000 HD
ENDBRANCH  20  25
ENDBRANCH  16  18
ENDBRANCH   4  11
BRANCH   1  30
ATOM     28  N   UNL     1      -1.857  11.706  18.008  0.00  0.00    +0.000 N 
ATOM     29  C   UNL     1      -2.587  12.166  19.079  0.00  0.00    +0.000 A 
ATOM     30  C   UNL     1      -1.648  12.931  19.753  0.00  0.00    +0.000 A 
ATOM     31  C   UNL     1      -0.789  13.364  18.696  0.00  0.00    +0.000 A 
ATOM     32  N   UNL     1      -0.937  12.606  17.601  0.00  0.00    +0.000 NA
BRANCH  28  34
ATOM     33  C   UNL     1      -2.727   9.993  16.406  0.00  0.00    +0.000 C 
ATOM     34  C   UNL     1      -1.792  10.318  17.573  0.00  0.00    +0.000 C 
ENDBRANCH  28  34
ENDBRANCH   1  30
TORSDOF 5
ENDMDL
MODEL 5
REMARK VINA RESULT:      -8.0      1.507      2.131
REMARK  Name = 
REMARK  7 active torsions:
REMARK  status: ('A' for Active; 'I' for Inactive)
REMARK    1  A    between atoms: C_1  and  C_2
REMARK    2  A    between atoms: C_2  and  N_3
REMARK    3  A    between atoms: C_5  and  C_6
REMARK    4  A    between atoms: C_9  and  C_10
REMARK    5  A    between atoms: C_13  and  C_14
REMARK    6  A    between atoms: C_15  and  N_16
REMARK    7  A    between atoms: C_18  and  N_19
REMARK                            x       y       z     vdW  Elec       q    Type
REMARK                         _______ _______ _______ _____ _____    ______ ____
ROOT
ATOM      1  C   UNL     1       4.815   3.903  17.777  0.00  0.00    +0.000 A 
ATOM      2  C   UNL     1       3.497   4.351  17.730  0.00  0.00    +0.000 A 
ATOM      3  C   UNL     1       2.884   4.382  18.988  0.00  0.00    +0.000 A 
ATOM      4  C   UNL     1       2.077   5.315  19.719  0.00  0.00    +0.000 A 
ATOM      5  N   UNL     1       1.701   4.770  20.899  0.00  0.00    +0.000 NA
ATOM      6  N   UNL     1       2.431   3.645  20.987  0.00  0.00    +0.000 N 
ATOM      7  C   UNL     1       3.331   3.510  19.970  0.00  0.00    +0.000 A 
ATOM      8  C   UNL     1       4.492   2.771  19.817  0.00  0.00    +0.000 A 
ATOM      9  N   UNL     1       5.289   3.078  18.759  0.00  0.00    +0.000 NA
ATOM     10  H   UNL     1       2.353   3.094  21.835  0.00  0.00    +0.000 HD
ENDROOT
BRANCH   4  11
ATOM     11  C   UNL     1       1.944   6.770  19.467  0.00  0.00    +0.000 A 
ATOM     12  C   UNL     1       2.634   7.299  18.382  0.00  0.00    +0.000 A 
ATOM     13  C   UNL     1       2.441   8.637  18.058  0.00  0.00    +0.000 A 
ATOM     14  C   UNL     1       1.586   9.424  18.828  0.00  0.00    +0.000 A 
ATOM     15  C   UNL     1       1.572  10.906  18.543  0.00  0.00    +0.000 C 
ATOM     16  C   UNL     1       0.883   8.819  19.893  0.00  0.00    +0.000 A 
ATOM     17  N   UNL     1       1.058   7.488  20.194  0.00  0.00    +0.000 NA
BRANCH  16  18
ATOM     18  N   UNL     1       0.055   9.542  20.721  0.00  0.00    +0.000 N 
ATOM     19  C   UNL     1      -0.677   8.853  21.787  0.00  0.00    +0.000 C 
ATOM     20  C   UNL     1      -0.557   9.725  23.068  0.00  0.00    +0.000 C 
ATOM     21  C   UNL     1      -1.045  11.167  22.801  0.00  0.00    +0.000 C 
ATOM     22  C   UNL     1      -0.468  11.786  21.522  0.00  0.00    +0.000 C 
ATOM     23  F   UNL     1       0.841  12.109  21.739  0.00  0.00    +0.000 F 
ATOM     24  C   UNL     1      -0.564  10.819  20.329  0.00  0.00    +0.000 C 
BRANCH  20  25
ATOM     25  N   UNL     1       0.836   9.758  23.558  0.00  0.00    +0.000 NA
ATOM     26  H   UNL     1       0.853   9.247  24.449  0.00  0.00    +0.000 HD
ATOM     27  H   UNL     1       1.063  10.716  23.828  0.00  0.00    +0.000 HD
ENDBRANCH  20  25
ENDBRANCH  16  18
ENDBRANCH   4  11
BRANCH   1  30
ATOM     28  N   UNL     1       6.741   4.966  15.262  0.00  0.00    +0.000 N 
ATOM     29  C   UNL     1       5.662   5.447  15.967  0.00  0.00    +0.000 A 
ATOM     30  C   UNL     1       5.820   4.817  17.192  0.00  0.00    +0.000 A 
ATOM     31  C   UNL     1       7.237   4.642  17.266  0.00  0.00    +0.000 A 
ATOM     32  N   UNL     1       7.810   4.755  16.060  0.00  0.00    +0.000 NA
BRANCH  28  34
ATOM     33  C   UNL     1       5.315   3.820  13.557  0.00  0.00    +0.000 C 
ATOM     34  C   UNL     1       6.682   4.401  13.922  0.00  0.00    +0.000 C 
ENDBRANCH  28  34
ENDBRANCH   1  30
TORSDOF 5
ENDMDL
MODEL 6
REMARK VINA RESULT:      -7.9      1.081      1.209
REMARK  Name = 
REMARK  7 active torsions:
REMARK  status: ('A' for Active; 'I' for Inactive)
REMARK    1  A    between atoms: C_1  and  C_2
REMARK    2  A    between atoms: C_2  and  N_3
REMARK    3  A    between atoms: C_5  and  C_6
REMARK    4  A    between atoms: C_9  and  C_10
REMARK    5  A    between atoms: C_13  and  C_14
REMARK    6  A    between atoms: C_15  and  N_16
REMARK    7  A    between atoms: C_18  and  N_19
REMARK                            x       y       z     vdW  Elec       q    Type
REMARK                         _______ _______ _______ _____ _____    ______ ____
ROOT
ATOM      1  C   UNL     1       4.447   3.653  17.325  0.00  0.00    +0.000 A 
ATOM      2  C   UNL     1       3.170   4.176  17.511  0.00  0.00    +0.000 A 
ATOM      3  C   UNL     1       2.829   4.323  18.860  0.00  0.00    +0.000 A 
ATOM      4  C   UNL     1       2.233   5.346  19.669  0.00  0.00    +0.000 A 
ATOM      5  N   UNL     1       2.081   4.898  20.936  0.00  0.00    +0.000 NA
ATOM      6  N   UNL     1       2.761   3.739  20.958  0.00  0.00    +0.000 N 
ATOM      7  C   UNL     1       3.427   3.487  19.794  0.00  0.00    +0.000 A 
ATOM      8  C   UNL     1       4.496   2.671  19.465  0.00  0.00    +0.000 A 
ATOM      9  N   UNL     1       5.073   2.864  18.249  0.00  0.00    +0.000 NA
ATOM     10  H   UNL     1       2.832   3.248  21.843  0.00  0.00    +0.000 HD
ENDROOT
BRANCH   4  11
ATOM     11  C   UNL     1       2.119   6.788  19.343  0.00  0.00    +0.000 A 
ATOM     12  C   UNL     1       2.821   7.254  18.237  0.00  0.00    +0.000 A 
ATOM     13  C   UNL     1       2.646   8.575  17.844  0.00  0.00    +0.000 A 
ATOM     14  C   UNL     1       1.797   9.410  18.569  0.00  0.00    +0.000 A 
ATOM     15  C   UNL     1       1.802  10.876  18.210  0.00  0.00    +0.000 C 
ATOM     16  C   UNL     1       1.081   8.868  19.660  0.00  0.00    +0.000 A 
ATOM     17  N   UNL     1       1.239   7.552  20.028  0.00  0.00    +0.000 NA
BRANCH  16  18
ATOM     18  N   UNL     1       0.258   9.641  20.445  0.00  0.00    +0.000 N 
ATOM     19  C   UNL     1      -0.585   8.999  21.456  0.00  0.00    +0.000 C 
ATOM     20  C   UNL     1      -0.482   9.848  22.753  0.00  0.00    +0.000 C 
ATOM     21  C   UNL     1      -0.847  11.324  22.476  0.00  0.00    +0.000 C 
ATOM     22  C   UNL     1      -0.151  11.911  21.244  0.00  0.00    +0.000 C 
ATOM     23  F   UNL     1       1.163  12.136  21.543  0.00  0.00    +0.000 F 
ATOM     24  C   UNL     1      -0.243  10.964  20.034  0.00  0.00    +0.000 C 
BRANCH  20  25
ATOM     25  N   UNL     1       0.877   9.775  23.327  0.00  0.00    +0.000 NA
ATOM     26  H   UNL     1       1.491  10.329  22.718  0.00  0.00    +0.000 HD
ATOM     27  H   UNL     1       1.227   8.822  23.213  0.00  0.00    +0.000 HD
ENDBRANCH  20  25
ENDBRANCH  16  18
ENDBRANCH   4  11
BRANCH   1  30
ATOM     28  N   UNL     1       6.814   5.975  16.909  0.00  0.00    +0.000 N 
ATOM     29  C   UNL     1       6.707   4.614  16.735  0.00  0.00    +0.000 A 
ATOM     30  C   UNL     1       5.352   4.467  16.483  0.00  0.00    +0.000 A 
ATOM     31  C   UNL     1       5.015   5.717  15.879  0.00  0.00    +0.000 A 
ATOM     32  N   UNL     1       5.942   6.651  16.132  0.00  0.00    +0.000 NA
BRANCH  28  34
ATOM     33  C   UNL     1       7.869   8.083  17.744  0.00  0.00    +0.000 C 
ATOM     34  C   UNL     1       7.492   6.626  18.020  0.00  0.00    +0.000 C 
ENDBRANCH  28  34
ENDBRANCH   1  30
TORSDOF 5
ENDMDL
MODEL 7
REMARK VINA RESULT:      -7.7      1.304      1.629
REMARK  Name = 
REMARK  7 active torsions:
REMARK  status: ('A' for Active; 'I' for Inactive)
REMARK    1  A    between atoms: C_1  and  C_2
REMARK    2  A    between atoms: C_2  and  N_3
REMARK    3  A    between atoms: C_5  and  C_6
REMARK    4  A    between atoms: C_9  and  C_10
REMARK    5  A    between atoms: C_13  and  C_14
REMARK    6  A    between atoms: C_15  and  N_16
REMARK    7  A    between atoms: C_18  and  N_19
REMARK                            x       y       z     vdW  Elec       q    Type
REMARK                         _______ _______ _______ _____ _____    ______ ____
ROOT
ATOM      1  C   UNL     1       4.392   3.698  17.348  0.00  0.00    +0.000 A 
ATOM      2  C   UNL     1       3.124   4.241  17.537  0.00  0.00    +0.000 A 
ATOM      3  C   UNL     1       2.783   4.382  18.888  0.00  0.00    +0.000 A 
ATOM      4  C   UNL     1       2.205   5.408  19.705  0.00  0.00    +0.000 A 
ATOM      5  N   UNL     1       2.043   4.951  20.968  0.00  0.00    +0.000 NA
ATOM      6  N   UNL     1       2.703   3.780  20.981  0.00  0.00    +0.000 N 
ATOM      7  C   UNL     1       3.366   3.527  19.814  0.00  0.00    +0.000 A 
ATOM      8  C   UNL     1       4.421   2.696  19.479  0.00  0.00    +0.000 A 
ATOM      9  N   UNL     1       5.003   2.890  18.266  0.00  0.00    +0.000 NA
ATOM     10  H   UNL     1       2.764   3.280  21.861  0.00  0.00    +0.000 HD
ENDROOT
BRANCH   4  11
ATOM     11  C   UNL     1       2.117   6.855  19.392  0.00  0.00    +0.000 A 
ATOM     12  C   UNL     1       2.471   7.257  18.110  0.00  0.00    +0.000 A 
ATOM     13  C   UNL     1       2.294   8.589  17.757  0.00  0.00    +0.000 A 
ATOM     14  C   UNL     1       1.791   9.496  18.688  0.00  0.00    +0.000 A 
ATOM     15  C   UNL     1       1.807  10.956  18.305  0.00  0.00    +0.000 C 
ATOM     16  C   UNL     1       1.412   9.018  19.962  0.00  0.00    +0.000 A 
ATOM     17  N   UNL     1       1.565   7.693  20.298  0.00  0.00    +0.000 NA
BRANCH  16  18
ATOM     18  N   UNL     1       0.947   9.861  20.946  0.00  0.00    +0.000 N 
ATOM     19  C   UNL     1       0.843  11.297  20.673  0.00  0.00    +0.000 C 
ATOM     20  C   UNL     1      -0.525  11.776  21.234  0.00  0.00    +0.000 C 
ATOM     21  C   UNL     1      -0.667  11.409  22.728  0.00  0.00    +0.000 C 
ATOM     22  C   UNL     1      -0.295   9.956  23.044  0.00  0.00    +0.000 C 
ATOM     23  F   UNL     1      -1.291   9.136  22.593  0.00  0.00    +0.000 F 
ATOM     24  C   UNL     1       1.036   9.553  22.383  0.00  0.00    +0.000 C 
BRANCH  20  25
ATOM     25  N   UNL     1      -1.645  11.189  20.472  0.00  0.00    +0.000 NA
ATOM     26  H   UNL     1      -1.870  11.845  19.715  0.00  0.00    +0.000 HD
ATOM     27  H   UNL     1      -2.481  11.206  21.058  0.00  0.00    +0.000 HD
ENDBRANCH  20  25
ENDBRANCH  16  18
ENDBRANCH   4  11
BRANCH   1  30
ATOM     28  N   UNL     1       6.823   5.958  16.959  0.00  0.00    +0.000 N 
ATOM     29  C   UNL     1       6.674   4.605  16.756  0.00  0.00    +0.000 A 
ATOM     30  C   UNL     1       5.313   4.503  16.516  0.00  0.00    +0.000 A 
ATOM     31  C   UNL     1       5.007   5.776  15.942  0.00  0.00    +0.000 A 
ATOM     32  N   UNL     1       5.963   6.677  16.207  0.00  0.00    +0.000 NA
BRANCH  28  34
ATOM     33  C   UNL     1       7.927   8.023  17.839  0.00  0.00    +0.000 C 
ATOM     34  C   UNL     1       7.530   6.565  18.077  0.00  0.00    +0.000 C 
ENDBRANCH  28  34
ENDBRANCH   1  30
TORSDOF 5
ENDMDL
MODEL 8
REMARK VINA RESULT:      -7.6      1.597      2.295
REMARK  Name = 
REMARK  7 active torsions:
REMARK  status: ('A' for Active; 'I' for Inactive)
REMARK    1  A    between atoms: C_1  and  C_2
REMARK    2  A    between atoms: C_2  and  N_3
REMARK    3  A    between atoms: C_5  and  C_6
REMARK    4  A    between atoms: C_9  and  C_10
REMARK    5  A    between atoms: C_13  and  C_14
REMARK    6  A    between atoms: C_15  and  N_16
REMARK    7  A    between atoms: C_18  and  N_19
REMARK                            x       y       z     vdW  Elec       q    Type
REMARK                         _______ _______ _______ _____ _____    ______ ____
ROOT
ATOM      1  C   UNL     1       4.838   4.022  17.861  0.00  0.00    +0.000 A 
ATOM      2  C   UNL     1       3.548   4.529  17.717  0.00  0.00    +0.000 A 
ATOM      3  C   UNL     1       2.846   4.591  18.927  0.00  0.00    +0.000 A 
ATOM      4  C   UNL     1       2.031   5.561  19.598  0.00  0.00    +0.000 A 
ATOM      5  N   UNL     1       1.545   5.036  20.746  0.00  0.00    +0.000 NA
ATOM      6  N   UNL     1       2.215   3.879  20.887  0.00  0.00    +0.000 N 
ATOM      7  C   UNL     1       3.181   3.701  19.938  0.00  0.00    +0.000 A 
ATOM      8  C   UNL     1       4.315   2.910  19.870  0.00  0.00    +0.000 A 
ATOM      9  N   UNL     1       5.201   3.179  18.874  0.00  0.00    +0.000 NA
ATOM     10  H   UNL     1       2.050   3.335  21.727  0.00  0.00    +0.000 HD
ENDROOT
BRANCH   4  11
ATOM     11  C   UNL     1       1.983   7.020  19.338  0.00  0.00    +0.000 A 
ATOM     12  C   UNL     1       2.359   7.460  18.074  0.00  0.00    +0.000 A 
ATOM     13  C   UNL     1       2.219   8.808  17.769  0.00  0.00    +0.000 A 
ATOM     14  C   UNL     1       1.731   9.693  18.729  0.00  0.00    +0.000 A 
ATOM     15  C   UNL     1       1.788  11.165  18.401  0.00  0.00    +0.000 C 
ATOM     16  C   UNL     1       1.328   9.179  19.982  0.00  0.00    +0.000 A 
ATOM     17  N   UNL     1       1.444   7.839  20.269  0.00  0.00    +0.000 NA
BRANCH  16  18
ATOM     18  N   UNL     1       0.876   9.997  20.991  0.00  0.00    +0.000 N 
ATOM     19  C   UNL     1       0.811  11.443  20.771  0.00  0.00    +0.000 C 
ATOM     20  C   UNL     1      -0.549  11.937  21.338  0.00  0.00    +0.000 C 
ATOM     21  C   UNL     1      -0.714  11.519  22.817  0.00  0.00    +0.000 C 
ATOM     22  C   UNL     1      -0.382  10.046  23.082  0.00  0.00    +0.000 C 
ATOM     23  F   UNL     1      -1.394   9.269  22.593  0.00  0.00    +0.000 F 
ATOM     24  C   UNL     1       0.943   9.634  22.417  0.00  0.00    +0.000 C 
BRANCH  20  25
ATOM     25  N   UNL     1      -1.677  11.406  20.546  0.00  0.00    +0.000 NA
ATOM     26  H   UNL     1      -2.525  11.884  20.874  0.00  0.00    +0.000 HD
ATOM     27  H   UNL     1      -1.833  10.433  20.814  0.00  0.00    +0.000 HD
ENDBRANCH  20  25
ENDBRANCH  16  18
ENDBRANCH   4  11
BRANCH   1  30
ATOM     28  N   UNL     1       6.838   5.142  15.430  0.00  0.00    +0.000 N 
ATOM     29  C   UNL     1       5.818   5.652  16.199  0.00  0.00    +0.000 A 
ATOM     30  C   UNL     1       5.923   4.888  17.351  0.00  0.00    +0.000 A 
ATOM     31  C   UNL     1       7.316   4.570  17.381  0.00  0.00    +0.000 A 
ATOM     32  N   UNL     1       7.888   4.748  16.183  0.00  0.00    +0.000 NA
BRANCH  28  34
ATOM     33  C   UNL     1       5.507   3.821  13.776  0.00  0.00    +0.000 C 
ATOM     34  C   UNL     1       6.712   4.725  14.041  0.00  0.00    +0.000 C 
ENDBRANCH  28  34
ENDBRANCH   1  30
TORSDOF 5
ENDMDL
MODEL 9
REMARK VINA RESULT:      -7.5      5.976     10.975
REMARK  Name = 
REMARK  7 active torsions:
REMARK  status: ('A' for Active; 'I' for Inactive)
REMARK    1  A    between atoms: C_1  and  C_2
REMARK    2  A    between atoms: C_2  and  N_3
REMARK    3  A    between atoms: C_5  and  C_6
REMARK    4  A    between atoms: C_9  and  C_10
REMARK    5  A    between atoms: C_13  and  C_14
REMARK    6  A    between atoms: C_15  and  N_16
REMARK    7  A    between atoms: C_18  and  N_19
REMARK                            x       y       z     vdW  Elec       q    Type
REMARK                         _______ _______ _______ _____ _____    ______ ____
ROOT
ATOM      1  C   UNL     1      -7.094  13.860  21.768  0.00  0.00    +0.000 A 
ATOM      2  C   UNL     1      -6.056  14.387  22.532  0.00  0.00    +0.000 A 
ATOM      3  C   UNL     1      -5.566  13.486  23.485  0.00  0.00    +0.000 A 
ATOM      4  C   UNL     1      -4.272  13.048  23.922  0.00  0.00    +0.000 A 
ATOM      5  N   UNL     1      -4.405  12.184  24.955  0.00  0.00    +0.000 NA
ATOM      6  N   UNL     1      -5.724  11.927  24.999  0.00  0.00    +0.000 N 
ATOM      7  C   UNL     1      -6.416  12.504  23.974  0.00  0.00    +0.000 A 
ATOM      8  C   UNL     1      -7.650  12.253  23.397  0.00  0.00    +0.000 A 
ATOM      9  N   UNL     1      -7.916  12.862  22.211  0.00  0.00    +0.000 NA
ATOM     10  H   UNL     1      -6.052  11.245  25.674  0.00  0.00    +0.000 HD
ENDROOT
BRANCH   4  11
ATOM     11  C   UNL     1      -2.991  13.179  23.188  0.00  0.00    +0.000 A 
ATOM     12  C   UNL     1      -2.079  14.121  23.651  0.00  0.00    +0.000 A 
ATOM     13  C   UNL     1      -0.828  14.188  23.050  0.00  0.00    +0.000 A 
ATOM     14  C   UNL     1      -0.516  13.336  21.992  0.00  0.00    +0.000 A 
ATOM     15  C   UNL     1       0.779  13.592  21.261  0.00  0.00    +0.000 C 
ATOM     16  C   UNL     1      -1.470  12.373  21.594  0.00  0.00    +0.000 A 
ATOM     17  N   UNL     1      -2.698  12.294  22.209  0.00  0.00    +0.000 NA
BRANCH  16  18
ATOM     18  N   UNL     1      -1.249  11.528  20.531  0.00  0.00    +0.000 N 
ATOM     19  C   UNL     1      -2.153  11.567  19.379  0.00  0.00    +0.000 C 
ATOM     20  C   UNL     1      -1.274  11.524  18.099  0.00  0.00    +0.000 C 
ATOM     21  C   UNL     1      -0.333  10.298  18.117  0.00  0.00    +0.000 C 
ATOM     22  C   UNL     1       0.417  10.117  19.441  0.00  0.00    +0.000 C 
ATOM     23  F   UNL     1       1.400  11.062  19.526  0.00  0.00    +0.000 F 
ATOM     24  C   UNL     1      -0.525  10.251  20.651  0.00  0.00    +0.000 C 
BRANCH  20  25
ATOM     25  N   UNL     1      -0.475  12.759  17.964  0.00  0.00    +0.000 NA
ATOM     26  H   UNL     1      -0.884  13.453  18.601  0.00  0.00    +0.000 HD
ATOM     27  H   UNL     1      -0.644  13.156  17.039  0.00  0.00    +0.000 HD
ENDBRANCH  20  25
ENDBRANCH  16  18
ENDBRANCH   4  11
BRANCH   1  30
ATOM     28  N   UNL     1      -6.782  12.382  18.787  0.00  0.00    +0.000 N 
ATOM     29  C   UNL     1      -7.690  13.215  19.400  0.00  0.00    +0.000 A 
ATOM     30  C   UNL     1      -6.887  13.893  20.303  0.00  0.00    +0.000 A 
ATOM     31  C   UNL     1      -5.616  13.886  19.649  0.00  0.00    +0.000 A 
ATOM     32  N   UNL     1      -5.562  12.952  18.689  0.00  0.00    +0.000 NA
BRANCH  28  34
ATOM     33  C   UNL     1      -7.101  10.159  19.888  0.00  0.00    +0.000 C 
ATOM     34  C   UNL     1      -6.961  10.951  18.587  0.00  0.00    +0.000 C 
ENDBRANCH  28  34
ENDBRANCH   1  30
TORSDOF 5
ENDMDL
