MODEL 1
REMARK VINA RESULT:      -8.2      0.000      0.000
REMARK  Name = 
REMARK  7 active torsions:
REMARK  status: ('A' for Active; 'I' for Inactive)
REMARK    1  A    between atoms: C_1  and  C_2
REMARK    2  A    between atoms: C_5  and  C_6
REMARK    3  A    between atoms: C_6  and  N_7
REMARK    4  A    between atoms: C_8  and  C_10
REMARK    5  A    between atoms: C_12  and  N_13
REMARK    6  A    between atoms: C_19  and  C_20
REMARK    7  A    between atoms: C_23  and  O_24
REMARK                            x       y       z     vdW  Elec       q    Type
REMARK                         _______ _______ _______ _____ _____    ______ ____
ROOT
ATOM      1  C   UNL     1       4.109   5.203  18.888  0.00  0.00    +0.000 A 
ATOM      2  C   UNL     1       5.385   5.548  19.336  0.00  0.00    +0.000 A 
ATOM      3  C   UNL     1       6.450   5.556  18.447  0.00  0.00    +0.000 A 
ATOM      4  C   UNL     1       6.316   5.179  17.092  0.00  0.00    +0.000 A 
ATOM      5  C   UNL     1       7.346   5.265  16.133  0.00  0.00    +0.000 A 
ATOM      6  C   UNL     1       7.148   4.819  14.839  0.00  0.00    +0.000 A 
ATOM      7  C   UNL     1       5.942   4.228  14.532  0.00  0.00    +0.000 A 
ATOM      8  C   UNL     1       5.794   3.558  13.187  0.00  0.00    +0.000 C 
ATOM      9  N   UNL     1       4.897   4.189  15.406  0.00  0.00    +0.000 NA
ATOM     10  C   UNL     1       5.068   4.690  16.662  0.00  0.00    +0.000 A 
ATOM     11  C   UNL     1       3.977   4.741  17.566  0.00  0.00    +0.000 A 
ENDROOT
BRANCH   1  13
ATOM     12  N   UNL     1       2.433   6.664  19.984  0.00  0.00    +0.000 N 
ATOM     13  C   UNL     1       3.018   5.427  19.887  0.00  0.00    +0.000 C 
ATOM     14  O   UNL     1       2.708   4.503  20.635  0.00  0.00    +0.000 OA
ATOM     15  H   UNL     1       2.768   7.421  19.395  0.00  0.00    +0.000 HD
BRANCH  12  16
ATOM     16  C   UNL     1       1.519   6.954  21.073  0.00  0.00    +0.000 C 
BRANCH  16  21
ATOM     17  C   UNL     1      -0.491  12.413  20.916  0.00  0.00    +0.000 C 
ATOM     18  C   UNL     1       0.042  11.012  20.957  0.00  0.00    +0.000 A 
ATOM     19  C   UNL     1       0.620  10.432  19.823  0.00  0.00    +0.000 A 
ATOM     20  C   UNL     1       1.108   9.125  19.870  0.00  0.00    +0.000 A 
ATOM     21  C   UNL     1       1.033   8.376  21.051  0.00  0.00    +0.000 A 
ATOM     22  C   UNL     1       0.437   8.952  22.181  0.00  0.00    +0.000 A 
ATOM     23  C   UNL     1      -0.050  10.261  22.133  0.00  0.00    +0.000 A 
ENDBRANCH  16  21
ENDBRANCH  12  16
ENDBRANCH   1  13
BRANCH   3  24
ATOM     24  N   UNL     1       7.743   5.938  18.986  0.00  0.00    +0.000 N 
ATOM     25  O   UNL     1       8.306   5.117  19.721  0.00  0.00    +0.000 OA
ATOM     26  O   UNL     1       8.174   7.057  18.683  0.00  0.00    +0.000 OA
ENDBRANCH   3  24
BRANCH  11  27
ATOM     27  O   UNL     1       2.746   4.332  17.094  0.00  0.00    +0.000 OA
ATOM     28  H   UNL     1       2.638   4.799  16.235  0.00  0.00    +0.000 HD
ENDBRANCH  11  27
TORSDOF 5
ENDMDL
MODEL 2
REMARK VINA RESULT:      -8.2      0.105      1.129
REMARK  Name = 
REMARK  7 active torsions:
REMARK  status: ('A' for Active; 'I' for Inactive)
REMARK    1  A    between atoms: C_1  and  C_2
REMARK    2  A    between atoms: C_5  and  C_6
REMARK    3  A    between atoms: C_6  and  N_7
REMARK    4  A    between atoms: C_8  and  C_10
REMARK    5  A    between atoms: C_12  and  N_13
REMARK    6  A    between atoms: C_19  and  C_20
REMARK    7  A    between atoms: C_23  and  O_24
REMARK                            x       y       z     vdW  Elec       q    Type
REMARK                         _______ _______ _______ _____ _____    ______ ____
ROOT
ATOM      1  C   UNL     1       4.092   5.222  18.900  0.00  0.00    +0.000 A 
ATOM      2  C   UNL     1       5.370   5.561  19.344  0.00  0.00    +0.000 A 
ATOM      3  C   UNL     1       6.433   5.560  18.452  0.00  0.00    +0.000 A 
ATOM      4  C   UNL     1       6.293   5.180  17.099  0.00  0.00    +0.000 A 
ATOM      5  C   UNL     1       7.321   5.257  16.137  0.00  0.00    +0.000 A 
ATOM      6  C   UNL     1       7.117   4.808  14.844  0.00  0.00    +0.000 A 
ATOM      7  C   UNL     1       5.907   4.223  14.542  0.00  0.00    +0.000 A 
ATOM      8  C   UNL     1       5.751   3.550  13.200  0.00  0.00    +0.000 C 
ATOM      9  N   UNL     1       4.863   4.193  15.420  0.00  0.00    +0.000 NA
ATOM     10  C   UNL     1       5.041   4.697  16.674  0.00  0.00    +0.000 A 
ATOM     11  C   UNL     1       3.953   4.756  17.580  0.00  0.00    +0.000 A 
ENDROOT
BRANCH   1  13
ATOM     12  N   UNL     1       2.452   6.705  20.022  0.00  0.00    +0.000 N 
ATOM     13  C   UNL     1       3.004   5.455  19.902  0.00  0.00    +0.000 C 
ATOM     14  O   UNL     1       2.669   4.525  20.631  0.00  0.00    +0.000 OA
ATOM     15  H   UNL     1       2.808   7.463  19.448  0.00  0.00    +0.000 HD
BRANCH  12  16
ATOM     16  C   UNL     1       1.543   6.997  21.115  0.00  0.00    +0.000 C 
BRANCH  16  21
ATOM     17  C   UNL     1      -0.701  12.355  20.770  0.00  0.00    +0.000 C 
ATOM     18  C   UNL     1      -0.138  10.968  20.857  0.00  0.00    +0.000 A 
ATOM     19  C   UNL     1      -0.302  10.199  22.014  0.00  0.00    +0.000 A 
ATOM     20  C   UNL     1       0.232   8.912  22.087  0.00  0.00    +0.000 A 
ATOM     21  C   UNL     1       0.933   8.366  21.004  0.00  0.00    +0.000 A 
ATOM     22  C   UNL     1       1.113   9.144  19.853  0.00  0.00    +0.000 A 
ATOM     23  C   UNL     1       0.578  10.433  19.780  0.00  0.00    +0.000 A 
ENDBRANCH  16  21
ENDBRANCH  12  16
ENDBRANCH   1  13
BRANCH   3  24
ATOM     24  N   UNL     1       7.729   5.936  18.986  0.00  0.00    +0.000 N 
ATOM     25  O   UNL     1       8.153   7.059  18.684  0.00  0.00    +0.000 OA
ATOM     26  O   UNL     1       8.317   5.102  19.686  0.00  0.00    +0.000 OA
ENDBRANCH   3  24
BRANCH  11  27
ATOM     27  O   UNL     1       2.718   4.353  17.113  0.00  0.00    +0.000 OA
ATOM     28  H   UNL     1       2.071   4.916  17.594  0.00  0.00    +0.000 HD
ENDBRANCH  11  27
TORSDOF 5
ENDMDL
MODEL 3
REMARK VINA RESULT:      -8.2      2.507      4.274
REMARK  Name = 
REMARK  7 active torsions:
REMARK  status: ('A' for Active; 'I' for Inactive)
REMARK    1  A    between atoms: C_1  and  C_2
REMARK    2  A    between atoms: C_5  and  C_6
REMARK    3  A    between atoms: C_6  and  N_7
REMARK    4  A    between atoms: C_8  and  C_10
REMARK    5  A    between atoms: C_12  and  N_13
REMARK    6  A    between atoms: C_19  and  C_20
REMARK    7  A    between atoms: C_23  and  O_24
REMARK                            x       y       z     vdW  Elec       q    Type
REMARK                         _______ _______ _______ _____ _____    ______ ____
ROOT
ATOM      1  C   UNL     1       2.037   7.027  19.755  0.00  0.00    +0.000 A 
ATOM      2  C   UNL     1       1.697   5.915  20.527  0.00  0.00    +0.000 A 
ATOM      3  C   UNL     1       2.296   4.690  20.275  0.00  0.00    +0.000 A 
ATOM      4  C   UNL     1       3.218   4.494  19.223  0.00  0.00    +0.000 A 
ATOM      5  C   UNL     1       3.923   3.295  18.990  0.00  0.00    +0.000 A 
ATOM      6  C   UNL     1       4.765   3.168  17.900  0.00  0.00    +0.000 A 
ATOM      7  C   UNL     1       4.844   4.218  17.013  0.00  0.00    +0.000 A 
ATOM      8  C   UNL     1       5.597   4.011  15.721  0.00  0.00    +0.000 C 
ATOM      9  N   UNL     1       4.237   5.419  17.237  0.00  0.00    +0.000 NA
ATOM     10  C   UNL     1       3.460   5.569  18.346  0.00  0.00    +0.000 A 
ATOM     11  C   UNL     1       2.884   6.828  18.650  0.00  0.00    +0.000 A 
ENDROOT
BRANCH   1  13
ATOM     12  N   UNL     1       1.048   9.264  19.351  0.00  0.00    +0.000 N 
ATOM     13  C   UNL     1       1.478   8.323  20.252  0.00  0.00    +0.000 C 
ATOM     14  O   UNL     1       1.469   8.533  21.463  0.00  0.00    +0.000 OA
ATOM     15  H   UNL     1       1.139   9.078  18.357  0.00  0.00    +0.000 HD
BRANCH  12  16
ATOM     16  C   UNL     1       0.691  10.595  19.804  0.00  0.00    +0.000 C 
BRANCH  16  21
ATOM     17  C   UNL     1      -4.740  11.998  18.255  0.00  0.00    +0.000 C 
ATOM     18  C   UNL     1      -3.335  11.645  18.641  0.00  0.00    +0.000 A 
ATOM     19  C   UNL     1      -2.623  10.668  17.938  0.00  0.00    +0.000 A 
ATOM     20  C   UNL     1      -1.318  10.342  18.309  0.00  0.00    +0.000 A 
ATOM     21  C   UNL     1      -0.698  10.991  19.386  0.00  0.00    +0.000 A 
ATOM     22  C   UNL     1      -1.419  11.956  20.100  0.00  0.00    +0.000 A 
ATOM     23  C   UNL     1      -2.726  12.282  19.727  0.00  0.00    +0.000 A 
ENDBRANCH  16  21
ENDBRANCH  12  16
ENDBRANCH   1  13
BRANCH   3  24
ATOM     24  N   UNL     1       1.900   3.585  21.128  0.00  0.00    +0.000 N 
ATOM     25  O   UNL     1       0.969   2.874  20.726  0.00  0.00    +0.000 OA
ATOM     26  O   UNL     1       2.509   3.447  22.196  0.00  0.00    +0.000 OA
ENDBRANCH   3  24
BRANCH  11  27
ATOM     27  O   UNL     1       3.203   7.885  17.821  0.00  0.00    +0.000 OA
ATOM     28  H   UNL     1       2.343   8.320  17.626  0.00  0.00    +0.000 HD
ENDBRANCH  11  27
TORSDOF 5
ENDMDL
MODEL 4
REMARK VINA RESULT:      -8.1      2.871      4.052
REMARK  Name = 
REMARK  7 active torsions:
REMARK  status: ('A' for Active; 'I' for Inactive)
REMARK    1  A    between atoms: C_1  and  C_2
REMARK    2  A    between atoms: C_5  and  C_6
REMARK    3  A    between atoms: C_6  and  N_7
REMARK    4  A    between atoms: C_8  and  C_10
REMARK    5  A    between atoms: C_12  and  N_13
REMARK    6  A    between atoms: C_19  and  C_20
REMARK    7  A    between atoms: C_23  and  O_24
REMARK                            x       y       z     vdW  Elec       q    Type
REMARK                         _______ _______ _______ _____ _____    ______ ____
ROOT
ATOM      1  C   UNL     1       2.591   7.233  18.783  0.00  0.00    +0.000 A 
ATOM      2  C   UNL     1       3.590   7.552  17.863  0.00  0.00    +0.000 A 
ATOM      3  C   UNL     1       4.285   6.539  17.219  0.00  0.00    +0.000 A 
ATOM      4  C   UNL     1       4.060   5.170  17.487  0.00  0.00    +0.000 A 
ATOM      5  C   UNL     1       4.671   4.108  16.790  0.00  0.00    +0.000 A 
ATOM      6  C   UNL     1       4.440   2.794  17.156  0.00  0.00    +0.000 A 
ATOM      7  C   UNL     1       3.653   2.555  18.260  0.00  0.00    +0.000 A 
ATOM      8  C   UNL     1       3.564   1.142  18.786  0.00  0.00    +0.000 C 
ATOM      9  N   UNL     1       2.987   3.546  18.919  0.00  0.00    +0.000 NA
ATOM     10  C   UNL     1       3.159   4.837  18.517  0.00  0.00    +0.000 A 
ATOM     11  C   UNL     1       2.418   5.879  19.126  0.00  0.00    +0.000 A 
ENDROOT
BRANCH   1  13
ATOM     12  N   UNL     1       1.445   9.392  18.367  0.00  0.00    +0.000 N 
ATOM     13  C   UNL     1       1.784   8.402  19.255  0.00  0.00    +0.000 C 
ATOM     14  O   UNL     1       1.488   8.469  20.445  0.00  0.00    +0.000 OA
ATOM     15  H   UNL     1       1.770   9.332  17.407  0.00  0.00    +0.000 HD
BRANCH  12  16
ATOM     16  C   UNL     1       0.838  10.620  18.845  0.00  0.00    +0.000 C 
BRANCH  16  21
ATOM     17  C   UNL     1      -4.803  11.063  17.483  0.00  0.00    +0.000 C 
ATOM     18  C   UNL     1      -3.354  10.942  17.848  0.00  0.00    +0.000 A 
ATOM     19  C   UNL     1      -2.786  11.777  18.815  0.00  0.00    +0.000 A 
ATOM     20  C   UNL     1      -1.434  11.660  19.143  0.00  0.00    +0.000 A 
ATOM     21  C   UNL     1      -0.627  10.702  18.515  0.00  0.00    +0.000 A 
ATOM     22  C   UNL     1      -1.192   9.878  17.534  0.00  0.00    +0.000 A 
ATOM     23  C   UNL     1      -2.546   9.996  17.206  0.00  0.00    +0.000 A 
ENDBRANCH  16  21
ENDBRANCH  12  16
ENDBRANCH   1  13
BRANCH   3  24
ATOM     24  N   UNL     1       5.299   6.950  16.267  0.00  0.00    +0.000 N 
ATOM     25  O   UNL     1       4.956   7.021  15.080  0.00  0.00    +0.000 OA
ATOM     26  O   UNL     1       6.431   7.181  16.709  0.00  0.00    +0.000 OA
ENDBRANCH   3  24
BRANCH  11  27
ATOM     27  O   UNL     1       1.482   5.519  20.075  0.00  0.00    +0.000 OA
ATOM     28  H   UNL     1       1.988   5.458  20.917  0.00  0.00    +0.000 HD
ENDBRANCH  11  27
TORSDOF 5
ENDMDL
MODEL 5
REMARK VINA RESULT:      -8.1      2.848      3.967
REMARK  Name = 
REMARK  7 active torsions:
REMARK  status: ('A' for Active; 'I' for Inactive)
REMARK    1  A    between atoms: C_1  and  C_2
REMARK    2  A    between atoms: C_5  and  C_6
REMARK    3  A    between atoms: C_6  and  N_7
REMARK    4  A    between atoms: C_8  and  C_10
REMARK    5  A    between atoms: C_12  and  N_13
REMARK    6  A    between atoms: C_19  and  C_20
REMARK    7  A    between atoms: C_23  and  O_24
REMARK                            x       y       z     vdW  Elec       q    Type
REMARK                         _______ _______ _______ _____ _____    ______ ____
ROOT
ATOM      1  C   UNL     1       2.581   7.232  18.835  0.00  0.00    +0.000 A 
ATOM      2  C   UNL     1       3.574   7.549  17.908  0.00  0.00    +0.000 A 
ATOM      3  C   UNL     1       4.261   6.534  17.258  0.00  0.00    +0.000 A 
ATOM      4  C   UNL     1       4.033   5.165  17.526  0.00  0.00    +0.000 A 
ATOM      5  C   UNL     1       4.635   4.102  16.822  0.00  0.00    +0.000 A 
ATOM      6  C   UNL     1       4.402   2.788  17.188  0.00  0.00    +0.000 A 
ATOM      7  C   UNL     1       3.622   2.551  18.297  0.00  0.00    +0.000 A 
ATOM      8  C   UNL     1       3.532   1.137  18.821  0.00  0.00    +0.000 C 
ATOM      9  N   UNL     1       2.964   3.543  18.962  0.00  0.00    +0.000 NA
ATOM     10  C   UNL     1       3.139   4.834  18.561  0.00  0.00    +0.000 A 
ATOM     11  C   UNL     1       2.405   5.878  19.177  0.00  0.00    +0.000 A 
ENDROOT
BRANCH   1  13
ATOM     12  N   UNL     1       1.473   9.414  18.441  0.00  0.00    +0.000 N 
ATOM     13  C   UNL     1       1.781   8.402  19.315  0.00  0.00    +0.000 C 
ATOM     14  O   UNL     1       1.465   8.451  20.501  0.00  0.00    +0.000 OA
ATOM     15  H   UNL     1       1.815   9.368  17.486  0.00  0.00    +0.000 HD
BRANCH  12  16
ATOM     16  C   UNL     1       0.874  10.642  18.931  0.00  0.00    +0.000 C 
BRANCH  16  21
ATOM     17  C   UNL     1      -4.759  11.010  17.517  0.00  0.00    +0.000 C 
ATOM     18  C   UNL     1      -3.304  10.922  17.867  0.00  0.00    +0.000 A 
ATOM     19  C   UNL     1      -2.473   9.983  17.248  0.00  0.00    +0.000 A 
ATOM     20  C   UNL     1      -1.121   9.906  17.585  0.00  0.00    +0.000 A 
ATOM     21  C   UNL     1      -0.573  10.769  18.543  0.00  0.00    +0.000 A 
ATOM     22  C   UNL     1      -1.410  11.697  19.176  0.00  0.00    +0.000 A 
ATOM     23  C   UNL     1      -2.764  11.774  18.837  0.00  0.00    +0.000 A 
ENDBRANCH  16  21
ENDBRANCH  12  16
ENDBRANCH   1  13
BRANCH   3  24
ATOM     24  N   UNL     1       5.270   6.943  16.299  0.00  0.00    +0.000 N 
ATOM     25  O   UNL     1       6.394   7.201  16.747  0.00  0.00    +0.000 OA
ATOM     26  O   UNL     1       4.927   7.019  15.113  0.00  0.00    +0.000 OA
ENDBRANCH   3  24
BRANCH  11  27
ATOM     27  O   UNL     1       1.475   5.519  20.133  0.00  0.00    +0.000 OA
ATOM     28  H   UNL     1       2.007   5.190  20.891  0.00  0.00    +0.000 HD
ENDBRANCH  11  27
TORSDOF 5
ENDMDL
MODEL 6
REMARK VINA RESULT:      -8.0      2.604      4.457
REMARK  Name = 
REMARK  7 active torsions:
REMARK  status: ('A' for Active; 'I' for Inactive)
REMARK    1  A    between atoms: C_1  and  C_2
REMARK    2  A    between atoms: C_5  and  C_6
REMARK    3  A    between atoms: C_6  and  N_7
REMARK    4  A    between atoms: C_8  and  C_10
REMARK    5  A    between atoms: C_12  and  N_13
REMARK    6  A    between atoms: C_19  and  C_20
REMARK    7  A    between atoms: C_23  and  O_24
REMARK                            x       y       z     vdW  Elec       q    Type
REMARK                         _______ _______ _______ _____ _____    ______ ____
ROOT
ATOM      1  C   UNL     1       1.832   7.127  20.102  0.00  0.00    +0.000 A 
ATOM      2  C   UNL     1       1.511   5.947  20.775  0.00  0.00    +0.000 A 
ATOM      3  C   UNL     1       2.086   4.748  20.377  0.00  0.00    +0.000 A 
ATOM      4  C   UNL     1       2.962   4.651  19.273  0.00  0.00    +0.000 A 
ATOM      5  C   UNL     1       3.643   3.476  18.895  0.00  0.00    +0.000 A 
ATOM      6  C   UNL     1       4.438   3.451  17.763  0.00  0.00    +0.000 A 
ATOM      7  C   UNL     1       4.492   4.584  16.981  0.00  0.00    +0.000 A 
ATOM      8  C   UNL     1       5.190   4.500  15.645  0.00  0.00    +0.000 C 
ATOM      9  N   UNL     1       3.909   5.760  17.347  0.00  0.00    +0.000 NA
ATOM     10  C   UNL     1       3.180   5.806  18.498  0.00  0.00    +0.000 A 
ATOM     11  C   UNL     1       2.631   7.032  18.948  0.00  0.00    +0.000 A 
ENDROOT
BRANCH   1  13
ATOM     12  N   UNL     1       0.749   9.353  19.969  0.00  0.00    +0.000 N 
ATOM     13  C   UNL     1       1.309   8.372  20.747  0.00  0.00    +0.000 C 
ATOM     14  O   UNL     1       1.445   8.505  21.961  0.00  0.00    +0.000 OA
ATOM     15  H   UNL     1       0.721   9.233  18.961  0.00  0.00    +0.000 HD
BRANCH  12  16
ATOM     16  C   UNL     1       0.420  10.642  20.548  0.00  0.00    +0.000 C 
BRANCH  16  21
ATOM     17  C   UNL     1       3.326  15.024  18.055  0.00  0.00    +0.000 C 
ATOM     18  C   UNL     1       2.592  13.888  18.700  0.00  0.00    +0.000 A 
ATOM     19  C   UNL     1       2.460  12.657  18.049  0.00  0.00    +0.000 A 
ATOM     20  C   UNL     1       1.769  11.608  18.656  0.00  0.00    +0.000 A 
ATOM     21  C   UNL     1       1.202  11.766  19.927  0.00  0.00    +0.000 A 
ATOM     22  C   UNL     1       1.320  13.005  20.571  0.00  0.00    +0.000 A 
ATOM     23  C   UNL     1       2.012  14.055  19.963  0.00  0.00    +0.000 A 
ENDBRANCH  16  21
ENDBRANCH  12  16
ENDBRANCH   1  13
BRANCH   3  24
ATOM     24  N   UNL     1       1.713   3.567  21.133  0.00  0.00    +0.000 N 
ATOM     25  O   UNL     1       0.803   2.870  20.667  0.00  0.00    +0.000 OA
ATOM     26  O   UNL     1       2.319   3.357  22.191  0.00  0.00    +0.000 OA
ENDBRANCH   3  24
BRANCH  11  27
ATOM     27  O   UNL     1       2.928   8.164  18.215  0.00  0.00    +0.000 OA
ATOM     28  H   UNL     1       2.143   8.747  18.324  0.00  0.00    +0.000 HD
ENDBRANCH  11  27
TORSDOF 5
ENDMDL
MODEL 7
REMARK VINA RESULT:      -7.8      2.479      3.853
REMARK  Name = 
REMARK  7 active torsions:
REMARK  status: ('A' for Active; 'I' for Inactive)
REMARK    1  A    between atoms: C_1  and  C_2
REMARK    2  A    between atoms: C_5  and  C_6
REMARK    3  A    between atoms: C_6  and  N_7
REMARK    4  A    between atoms: C_8  and  C_10
REMARK    5  A    between atoms: C_12  and  N_13
REMARK    6  A    between atoms: C_19  and  C_20
REMARK    7  A    between atoms: C_23  and  O_24
REMARK                            x       y       z     vdW  Elec       q    Type
REMARK                         _______ _______ _______ _____ _____    ______ ____
ROOT
ATOM      1  C   UNL     1       2.575   6.778  18.555  0.00  0.00    +0.000 A 
ATOM      2  C   UNL     1       2.112   5.503  18.880  0.00  0.00    +0.000 A 
ATOM      3  C   UNL     1       2.773   4.384  18.395  0.00  0.00    +0.000 A 
ATOM      4  C   UNL     1       3.889   4.471  17.533  0.00  0.00    +0.000 A 
ATOM      5  C   UNL     1       4.649   3.367  17.096  0.00  0.00    +0.000 A 
ATOM      6  C   UNL     1       5.692   3.534  16.203  0.00  0.00    +0.000 A 
ATOM      7  C   UNL     1       5.924   4.796  15.702  0.00  0.00    +0.000 A 
ATOM      8  C   UNL     1       6.921   4.950  14.579  0.00  0.00    +0.000 C 
ATOM      9  N   UNL     1       5.261   5.900  16.150  0.00  0.00    +0.000 NA
ATOM     10  C   UNL     1       4.277   5.747  17.081  0.00  0.00    +0.000 A 
ATOM     11  C   UNL     1       3.629   6.881  17.628  0.00  0.00    +0.000 A 
ENDROOT
BRANCH   1  13
ATOM     12  N   UNL     1       1.481   9.002  18.612  0.00  0.00    +0.000 N 
ATOM     13  C   UNL     1       1.904   7.892  19.297  0.00  0.00    +0.000 C 
ATOM     14  O   UNL     1       1.797   7.802  20.518  0.00  0.00    +0.000 OA
ATOM     15  H   UNL     1       1.654   9.067  17.613  0.00  0.00    +0.000 HD
BRANCH  12  16
ATOM     16  C   UNL     1       1.012  10.169  19.336  0.00  0.00    +0.000 C 
BRANCH  16  21
ATOM     17  C   UNL     1      -4.389  11.668  17.772  0.00  0.00    +0.000 C 
ATOM     18  C   UNL     1      -2.991  11.290  18.162  0.00  0.00    +0.000 A 
ATOM     19  C   UNL     1      -2.290  10.310  17.453  0.00  0.00    +0.000 A 
ATOM     20  C   UNL     1      -0.992   9.961  17.828  0.00  0.00    +0.000 A 
ATOM     21  C   UNL     1      -0.368  10.589  18.915  0.00  0.00    +0.000 A 
ATOM     22  C   UNL     1      -1.079  11.558  19.635  0.00  0.00    +0.000 A 
ATOM     23  C   UNL     1      -2.378  11.907  19.258  0.00  0.00    +0.000 A 
ENDBRANCH  16  21
ENDBRANCH  12  16
ENDBRANCH   1  13
BRANCH   3  24
ATOM     24  N   UNL     1       2.239   3.093  18.787  0.00  0.00    +0.000 N 
ATOM     25  O   UNL     1       1.345   2.619  18.073  0.00  0.00    +0.000 OA
ATOM     26  O   UNL     1       2.702   2.574  19.809  0.00  0.00    +0.000 OA
ENDBRANCH   3  24
BRANCH  11  27
ATOM     27  O   UNL     1       4.083   8.123  17.230  0.00  0.00    +0.000 OA
ATOM     28  H   UNL     1       4.218   8.622  18.067  0.00  0.00    +0.000 HD
ENDBRANCH  11  27
TORSDOF 5
ENDMDL
MODEL 8
REMARK VINA RESULT:      -7.8      2.975      5.001
REMARK  Name = 
REMARK  7 active torsions:
REMARK  status: ('A' for Active; 'I' for Inactive)
REMARK    1  A    between atoms: C_1  and  C_2
REMARK    2  A    between atoms: C_5  and  C_6
REMARK    3  A    between atoms: C_6  and  N_7
REMARK    4  A    between atoms: C_8  and  C_10
REMARK    5  A    between atoms: C_12  and  N_13
REMARK    6  A    between atoms: C_19  and  C_20
REMARK    7  A    between atoms: C_23  and  O_24
REMARK                            x       y       z     vdW  Elec       q    Type
REMARK                         _______ _______ _______ _____ _____    ______ ____
ROOT
ATOM      1  C   UNL     1       2.522   7.756  18.617  0.00  0.00    +0.000 A 
ATOM      2  C   UNL     1       3.479   7.261  17.730  0.00  0.00    +0.000 A 
ATOM      3  C   UNL     1       3.826   5.918  17.768  0.00  0.00    +0.000 A 
ATOM      4  C   UNL     1       3.284   5.016  18.710  0.00  0.00    +0.000 A 
ATOM      5  C   UNL     1       3.533   3.628  18.723  0.00  0.00    +0.000 A 
ATOM      6  C   UNL     1       3.007   2.823  19.718  0.00  0.00    +0.000 A 
ATOM      7  C   UNL     1       2.292   3.424  20.731  0.00  0.00    +0.000 A 
ATOM      8  C   UNL     1       1.893   2.586  21.921  0.00  0.00    +0.000 C 
ATOM      9  N   UNL     1       1.968   4.748  20.719  0.00  0.00    +0.000 NA
ATOM     10  C   UNL     1       2.428   5.531  19.702  0.00  0.00    +0.000 A 
ATOM     11  C   UNL     1       2.040   6.891  19.617  0.00  0.00    +0.000 A 
ENDROOT
BRANCH   1  13
ATOM     12  N   UNL     1       1.101   9.727  19.110  0.00  0.00    +0.000 N 
ATOM     13  C   UNL     1       2.090   9.163  18.344  0.00  0.00    +0.000 C 
ATOM     14  O   UNL     1       2.601   9.761  17.401  0.00  0.00    +0.000 OA
ATOM     15  H   UNL     1       0.655   9.172  19.835  0.00  0.00    +0.000 HD
BRANCH  12  16
ATOM     16  C   UNL     1       0.534  11.009  18.737  0.00  0.00    +0.000 C 
BRANCH  16  21
ATOM     17  C   UNL     1      -5.177  10.819  17.638  0.00  0.00    +0.000 C 
ATOM     18  C   UNL     1      -3.709  10.861  17.935  0.00  0.00    +0.000 A 
ATOM     19  C   UNL     1      -3.182  11.814  18.814  0.00  0.00    +0.000 A 
ATOM     20  C   UNL     1      -1.813  11.849  19.079  0.00  0.00    +0.000 A 
ATOM     21  C   UNL     1      -0.945  10.929  18.478  0.00  0.00    +0.000 A 
ATOM     22  C   UNL     1      -1.470   9.986  17.584  0.00  0.00    +0.000 A 
ATOM     23  C   UNL     1      -2.842   9.952  17.319  0.00  0.00    +0.000 A 
ENDBRANCH  16  21
ENDBRANCH  12  16
ENDBRANCH   1  13
BRANCH   3  24
ATOM     24  N   UNL     1       4.819   5.477  16.806  0.00  0.00    +0.000 N 
ATOM     25  O   UNL     1       4.441   4.674  15.943  0.00  0.00    +0.000 OA
ATOM     26  O   UNL     1       5.966   5.921  16.932  0.00  0.00    +0.000 OA
ENDBRANCH   3  24
BRANCH  11  27
ATOM     27  O   UNL     1       1.136   7.351  20.554  0.00  0.00    +0.000 OA
ATOM     28  H   UNL     1       0.930   6.567  21.111  0.00  0.00    +0.000 HD
ENDBRANCH  11  27
TORSDOF 5
ENDMDL
MODEL 9
REMARK VINA RESULT:      -7.7      4.321      6.637
REMARK  Name = 
REMARK  7 active torsions:
REMARK  status: ('A' for Active; 'I' for Inactive)
REMARK    1  A    between atoms: C_1  and  C_2
REMARK    2  A    between atoms: C_5  and  C_6
REMARK    3  A    between atoms: C_6  and  N_7
REMARK    4  A    between atoms: C_8  and  C_10
REMARK    5  A    between atoms: C_12  and  N_13
REMARK    6  A    between atoms: C_19  and  C_20
REMARK    7  A    between atoms: C_23  and  O_24
REMARK                            x       y       z     vdW  Elec       q    Type
REMARK                         _______ _______ _______ _____ _____    ______ ____
ROOT
ATOM      1  C   UNL     1       5.713   6.613  17.465  0.00  0.00    +0.000 A 
ATOM      2  C   UNL     1       4.669   7.522  17.636  0.00  0.00    +0.000 A 
ATOM      3  C   UNL     1       3.425   7.074  18.057  0.00  0.00    +0.000 A 
ATOM      4  C   UNL     1       3.142   5.708  18.282  0.00  0.00    +0.000 A 
ATOM      5  C   UNL     1       1.927   5.218  18.802  0.00  0.00    +0.000 A 
ATOM      6  C   UNL     1       1.710   3.858  18.936  0.00  0.00    +0.000 A 
ATOM      7  C   UNL     1       2.686   2.997  18.485  0.00  0.00    +0.000 A 
ATOM      8  C   UNL     1       2.373   1.520  18.440  0.00  0.00    +0.000 C 
ATOM      9  N   UNL     1       3.902   3.427  18.043  0.00  0.00    +0.000 NA
ATOM     10  C   UNL     1       4.143   4.766  17.974  0.00  0.00    +0.000 A 
ATOM     11  C   UNL     1       5.424   5.243  17.599  0.00  0.00    +0.000 A 
ENDROOT
BRANCH   1  13
ATOM     12  N   UNL     1       7.378   8.412  17.839  0.00  0.00    +0.000 N 
ATOM     13  C   UNL     1       7.047   7.241  17.206  0.00  0.00    +0.000 C 
ATOM     14  O   UNL     1       7.795   6.712  16.388  0.00  0.00    +0.000 OA
ATOM     15  H   UNL     1       6.700   8.854  18.454  0.00  0.00    +0.000 HD
BRANCH  12  16
ATOM     16  C   UNL     1       8.575   9.135  17.453  0.00  0.00    +0.000 C 
BRANCH  16  21
ATOM     17  C   UNL     1       9.835  13.609  20.954  0.00  0.00    +0.000 C 
ATOM     18  C   UNL     1       9.496  12.455  20.059  0.00  0.00    +0.000 A 
ATOM     19  C   UNL     1       9.553  11.140  20.533  0.00  0.00    +0.000 A 
ATOM     20  C   UNL     1       9.242  10.072  19.691  0.00  0.00    +0.000 A 
ATOM     21  C   UNL     1       8.862  10.298  18.361  0.00  0.00    +0.000 A 
ATOM     22  C   UNL     1       8.822  11.614  17.883  0.00  0.00    +0.000 A 
ATOM     23  C   UNL     1       9.133  12.683  18.727  0.00  0.00    +0.000 A 
ENDBRANCH  16  21
ENDBRANCH  12  16
ENDBRANCH   1  13
BRANCH   3  24
ATOM     24  N   UNL     1       2.394   8.081  18.224  0.00  0.00    +0.000 N 
ATOM     25  O   UNL     1       2.108   8.758  17.228  0.00  0.00    +0.000 OA
ATOM     26  O   UNL     1       1.892   8.197  19.348  0.00  0.00    +0.000 OA
ENDBRANCH   3  24
BRANCH  11  27
ATOM     27  O   UNL     1       6.410   4.301  17.382  0.00  0.00    +0.000 OA
ATOM     28  H   UNL     1       7.119   4.785  16.900  0.00  0.00    +0.000 HD
ENDBRANCH  11  27
TORSDOF 5
ENDMDL
