MODEL 1
REMARK VINA RESULT:      -7.0      0.000      0.000
REMARK  Name = 
REMARK  7 active torsions:
REMARK  status: ('A' for Active; 'I' for Inactive)
REMARK    1  A    between atoms: C_1  and  C_2
REMARK    2  A    between atoms: C_2  and  C_3
REMARK    3  A    between atoms: C_3  and  N_4
REMARK    4  A    between atoms: C_8  and  C_9
REMARK    5  A    between atoms: C_9  and  N_10
REMARK    6  A    between atoms: C_14  and  O_15
REMARK    7  A    between atoms: C_16  and  O_17
REMARK                            x       y       z     vdW  Elec       q    Type
REMARK                         _______ _______ _______ _____ _____    ______ ____
ROOT
ATOM      1  N   UNL     1       3.420   6.181  18.764  0.00  0.00    +0.000 NA
ATOM      2  C   UNL     1       4.648   5.462  19.069  0.00  0.00    +0.000 C 
ATOM      3  C   UNL     1       5.740   6.377  18.501  0.00  0.00    +0.000 C 
ATOM      4  C   UNL     1       7.092   5.726  18.248  0.00  0.00    +0.000 C 
ATOM      5  C   UNL     1       6.976   4.568  17.273  0.00  0.00    +0.000 C 
ATOM      6  C   UNL     1       6.347   4.984  15.933  0.00  0.00    +0.000 C 
ATOM      7  C   UNL     1       5.452   6.236  15.918  0.00  0.00    +0.000 C 
ATOM      8  C   UNL     1       5.109   6.951  17.239  0.00  0.00    +0.000 C 
ATOM      9  C   UNL     1       3.605   6.989  17.565  0.00  0.00    +0.000 C 
ENDROOT
BRANCH   5  10
ATOM     10  O   UNL     1       8.276   4.005  17.066  0.00  0.00    +0.000 OA
ATOM     11  H   UNL     1       8.868   4.548  17.630  0.00  0.00    +0.000 HD
ENDBRANCH   5  10
BRANCH   6  12
ATOM     12  O   UNL     1       7.429   5.187  14.995  0.00  0.00    +0.000 OA
ATOM     13  H   UNL     1       7.430   4.423  14.390  0.00  0.00    +0.000 HD
ENDBRANCH   6  12
BRANCH   1  14
ATOM     14  C   UNL     1       2.172   5.416  18.861  0.00  0.00    +0.000 C 
BRANCH  14  19
ATOM     15  N   UNL     1       1.696   3.071  19.754  0.00  0.00    +0.000 N 
ATOM     16  C   UNL     1       1.663   2.440  20.968  0.00  0.00    +0.000 A 
ATOM     17  C   UNL     1       1.991   3.400  21.887  0.00  0.00    +0.000 A 
ATOM     18  N   UNL     1       2.208   4.611  21.272  0.00  0.00    +0.000 NA
ATOM     19  C   UNL     1       2.020   4.400  19.977  0.00  0.00    +0.000 A 
BRANCH  15  20
ATOM     20  C   UNL     1       1.358   2.414  18.502  0.00  0.00    +0.000 C 
BRANCH  20  22
ATOM     21  C   UNL     1       3.727   1.500  18.223  0.00  0.00    +0.000 C 
ATOM     22  C   UNL     1       2.543   2.185  17.559  0.00  0.00    +0.000 C 
ENDBRANCH  20  22
ENDBRANCH  15  20
ENDBRANCH  14  19
ENDBRANCH   1  14
TORSDOF 6
ENDMDL
MODEL 2
REMARK VINA RESULT:      -6.8      3.027      6.169
REMARK  Name = 
REMARK  7 active torsions:
REMARK  status: ('A' for Active; 'I' for Inactive)
REMARK    1  A    between atoms: C_1  and  C_2
REMARK    2  A    between atoms: C_2  and  C_3
REMARK    3  A    between atoms: C_3  and  N_4
REMARK    4  A    between atoms: C_8  and  C_9
REMARK    5  A    between atoms: C_9  and  N_10
REMARK    6  A    between atoms: C_14  and  O_15
REMARK    7  A    between atoms: C_16  and  O_17
REMARK                            x       y       z     vdW  Elec       q    Type
REMARK                         _______ _______ _______ _____ _____    ______ ____
ROOT
ATOM      1  N   UNL     1       3.832   6.343  18.542  0.00  0.00    +0.000 NA
ATOM      2  C   UNL     1       2.464   5.866  18.404  0.00  0.00    +0.000 C 
ATOM      3  C   UNL     1       2.273   4.982  19.642  0.00  0.00    +0.000 C 
ATOM      4  C   UNL     1       1.130   3.980  19.577  0.00  0.00    +0.000 C 
ATOM      5  C   UNL     1       1.295   3.025  18.410  0.00  0.00    +0.000 C 
ATOM      6  C   UNL     1       2.636   2.273  18.446  0.00  0.00    +0.000 C 
ATOM      7  C   UNL     1       3.798   2.913  19.226  0.00  0.00    +0.000 C 
ATOM      8  C   UNL     1       3.634   4.322  19.826  0.00  0.00    +0.000 C 
ATOM      9  C   UNL     1       4.625   5.364  19.275  0.00  0.00    +0.000 C 
ENDROOT
BRANCH   5  10
ATOM     10  O   UNL     1       0.200   2.103  18.408  0.00  0.00    +0.000 OA
ATOM     11  H   UNL     1      -0.473   2.527  17.831  0.00  0.00    +0.000 HD
ENDBRANCH   5  10
BRANCH   6  12
ATOM     12  O   UNL     1       2.379   0.964  19.007  0.00  0.00    +0.000 OA
ATOM     13  H   UNL     1       2.215   1.088  19.959  0.00  0.00    +0.000 HD
ENDBRANCH   6  12
BRANCH   1  14
ATOM     14  C   UNL     1       4.445   6.931  17.347  0.00  0.00    +0.000 C 
BRANCH  14  19
ATOM     15  N   UNL     1       6.806   6.098  16.837  0.00  0.00    +0.000 N 
ATOM     16  C   UNL     1       7.405   5.243  15.953  0.00  0.00    +0.000 A 
ATOM     17  C   UNL     1       6.391   4.746  15.181  0.00  0.00    +0.000 A 
ATOM     18  N   UNL     1       5.182   5.287  15.554  0.00  0.00    +0.000 NA
ATOM     19  C   UNL     1       5.448   6.112  16.558  0.00  0.00    +0.000 A 
BRANCH  15  20
ATOM     20  C   UNL     1       7.541   6.882  17.817  0.00  0.00    +0.000 C 
BRANCH  20  22
ATOM     21  C   UNL     1       8.565   9.134  18.452  0.00  0.00    +0.000 C 
ATOM     22  C   UNL     1       7.736   8.354  17.443  0.00  0.00    +0.000 C 
ENDBRANCH  20  22
ENDBRANCH  15  20
ENDBRANCH  14  19
ENDBRANCH   1  14
TORSDOF 6
ENDMDL
MODEL 3
REMARK VINA RESULT:      -6.8      2.912      5.519
REMARK  Name = 
REMARK  7 active torsions:
REMARK  status: ('A' for Active; 'I' for Inactive)
REMARK    1  A    between atoms: C_1  and  C_2
REMARK    2  A    between atoms: C_2  and  C_3
REMARK    3  A    between atoms: C_3  and  N_4
REMARK    4  A    between atoms: C_8  and  C_9
REMARK    5  A    between atoms: C_9  and  N_10
REMARK    6  A    between atoms: C_14  and  O_15
REMARK    7  A    between atoms: C_16  and  O_17
REMARK                            x       y       z     vdW  Elec       q    Type
REMARK                         _______ _______ _______ _____ _____    ______ ____
ROOT
ATOM      1  N   UNL     1       3.375   6.415  17.838  0.00  0.00    +0.000 NA
ATOM      2  C   UNL     1       3.115   5.039  17.442  0.00  0.00    +0.000 C 
ATOM      3  C   UNL     1       1.801   4.710  18.160  0.00  0.00    +0.000 C 
ATOM      4  C   UNL     1       1.484   3.231  18.328  0.00  0.00    +0.000 C 
ATOM      5  C   UNL     1       2.571   2.516  19.108  0.00  0.00    +0.000 C 
ATOM      6  C   UNL     1       2.822   3.147  20.488  0.00  0.00    +0.000 C 
ATOM      7  C   UNL     1       2.426   4.620  20.686  0.00  0.00    +0.000 C 
ATOM      8  C   UNL     1       1.922   5.447  19.488  0.00  0.00    +0.000 C 
ATOM      9  C   UNL     1       2.796   6.669  19.151  0.00  0.00    +0.000 C 
ENDROOT
BRANCH   5  10
ATOM     10  O   UNL     1       2.213   1.136  19.242  0.00  0.00    +0.000 OA
ATOM     11  H   UNL     1       1.328   1.156  19.668  0.00  0.00    +0.000 HD
ENDBRANCH   5  10
BRANCH   6  12
ATOM     12  O   UNL     1       2.108   2.349  21.460  0.00  0.00    +0.000 OA
ATOM     13  H   UNL     1       2.492   1.454  21.433  0.00  0.00    +0.000 HD
ENDBRANCH   6  12
BRANCH   1  14
ATOM     14  C   UNL     1       4.733   6.918  17.605  0.00  0.00    +0.000 C 
BRANCH  14  19
ATOM     15  N   UNL     1       6.388   5.359  16.441  0.00  0.00    +0.000 N 
ATOM     16  C   UNL     1       7.432   4.548  16.796  0.00  0.00    +0.000 A 
ATOM     17  C   UNL     1       7.548   4.675  18.153  0.00  0.00    +0.000 A 
ATOM     18  N   UNL     1       6.590   5.531  18.648  0.00  0.00    +0.000 NA
ATOM     19  C   UNL     1       5.888   5.935  17.598  0.00  0.00    +0.000 A 
BRANCH  15  20
ATOM     20  C   UNL     1       5.897   5.480  15.078  0.00  0.00    +0.000 C 
BRANCH  20  22
ATOM     21  C   UNL     1       6.252   3.757  13.227  0.00  0.00    +0.000 C 
ATOM     22  C   UNL     1       5.436   4.164  14.444  0.00  0.00    +0.000 C 
ENDBRANCH  20  22
ENDBRANCH  15  20
ENDBRANCH  14  19
ENDBRANCH   1  14
TORSDOF 6
ENDMDL
MODEL 4
REMARK VINA RESULT:      -6.7      0.880      2.054
REMARK  Name = 
REMARK  7 active torsions:
REMARK  status: ('A' for Active; 'I' for Inactive)
REMARK    1  A    between atoms: C_1  and  C_2
REMARK    2  A    between atoms: C_2  and  C_3
REMARK    3  A    between atoms: C_3  and  N_4
REMARK    4  A    between atoms: C_8  and  C_9
REMARK    5  A    between atoms: C_9  and  N_10
REMARK    6  A    between atoms: C_14  and  O_15
REMARK    7  A    between atoms: C_16  and  O_17
REMARK                            x       y       z     vdW  Elec       q    Type
REMARK                         _______ _______ _______ _____ _____    ______ ____
ROOT
ATOM      1  N   UNL     1       3.502   6.360  18.605  0.00  0.00    +0.000 NA
ATOM      2  C   UNL     1       4.697   5.617  18.977  0.00  0.00    +0.000 C 
ATOM      3  C   UNL     1       5.835   6.478  18.416  0.00  0.00    +0.000 C 
ATOM      4  C   UNL     1       7.173   5.779  18.232  0.00  0.00    +0.000 C 
ATOM      5  C   UNL     1       7.054   4.591  17.295  0.00  0.00    +0.000 C 
ATOM      6  C   UNL     1       6.483   4.977  15.920  0.00  0.00    +0.000 C 
ATOM      7  C   UNL     1       5.628   6.253  15.831  0.00  0.00    +0.000 C 
ATOM      8  C   UNL     1       5.264   7.025  17.113  0.00  0.00    +0.000 C 
ATOM      9  C   UNL     1       3.752   7.119  17.386  0.00  0.00    +0.000 C 
ENDROOT
BRANCH   5  10
ATOM     10  O   UNL     1       8.342   3.982  17.153  0.00  0.00    +0.000 OA
ATOM     11  H   UNL     1       8.882   4.663  16.694  0.00  0.00    +0.000 HD
ENDBRANCH   5  10
BRANCH   6  12
ATOM     12  O   UNL     1       7.602   5.114  15.014  0.00  0.00    +0.000 OA
ATOM     13  H   UNL     1       8.046   4.247  14.975  0.00  0.00    +0.000 HD
ENDBRANCH   6  12
BRANCH   1  14
ATOM     14  C   UNL     1       2.229   5.637  18.687  0.00  0.00    +0.000 C 
BRANCH  14  19
ATOM     15  N   UNL     1       1.492   3.226  19.097  0.00  0.00    +0.000 N 
ATOM     16  C   UNL     1       1.672   2.002  18.512  0.00  0.00    +0.000 A 
ATOM     17  C   UNL     1       2.467   2.231  17.422  0.00  0.00    +0.000 A 
ATOM     18  N   UNL     1       2.797   3.564  17.330  0.00  0.00    +0.000 NA
ATOM     19  C   UNL     1       2.204   4.157  18.357  0.00  0.00    +0.000 A 
BRANCH  15  20
ATOM     20  C   UNL     1       0.740   3.423  20.325  0.00  0.00    +0.000 C 
BRANCH  20  22
ATOM     21  C   UNL     1       2.831   2.688  21.594  0.00  0.00    +0.000 C 
ATOM     22  C   UNL     1       1.311   2.701  21.550  0.00  0.00    +0.000 C 
ENDBRANCH  20  22
ENDBRANCH  15  20
ENDBRANCH  14  19
ENDBRANCH   1  14
TORSDOF 6
ENDMDL
MODEL 5
REMARK VINA RESULT:      -6.7      1.437      2.078
REMARK  Name = 
REMARK  7 active torsions:
REMARK  status: ('A' for Active; 'I' for Inactive)
REMARK    1  A    between atoms: C_1  and  C_2
REMARK    2  A    between atoms: C_2  and  C_3
REMARK    3  A    between atoms: C_3  and  N_4
REMARK    4  A    between atoms: C_8  and  C_9
REMARK    5  A    between atoms: C_9  and  N_10
REMARK    6  A    between atoms: C_14  and  O_15
REMARK    7  A    between atoms: C_16  and  O_17
REMARK                            x       y       z     vdW  Elec       q    Type
REMARK                         _______ _______ _______ _____ _____    ______ ____
ROOT
ATOM      1  N   UNL     1       5.266   4.136  19.701  0.00  0.00    +0.000 NA
ATOM      2  C   UNL     1       6.422   4.170  18.818  0.00  0.00    +0.000 C 
ATOM      3  C   UNL     1       6.561   5.659  18.480  0.00  0.00    +0.000 C 
ATOM      4  C   UNL     1       7.377   5.988  17.238  0.00  0.00    +0.000 C 
ATOM      5  C   UNL     1       6.789   5.337  16.000  0.00  0.00    +0.000 C 
ATOM      6  C   UNL     1       5.320   5.727  15.767  0.00  0.00    +0.000 C 
ATOM      7  C   UNL     1       4.501   6.199  16.982  0.00  0.00    +0.000 C 
ATOM      8  C   UNL     1       5.120   6.145  18.392  0.00  0.00    +0.000 C 
ATOM      9  C   UNL     1       4.366   5.236  19.379  0.00  0.00    +0.000 C 
ENDROOT
BRANCH   5  10
ATOM     10  O   UNL     1       7.589   5.690  14.866  0.00  0.00    +0.000 OA
ATOM     11  H   UNL     1       8.511   5.671  15.205  0.00  0.00    +0.000 HD
ENDBRANCH   5  10
BRANCH   6  12
ATOM     12  O   UNL     1       5.307   6.778  14.774  0.00  0.00    +0.000 OA
ATOM     13  H   UNL     1       4.438   6.745  14.334  0.00  0.00    +0.000 HD
ENDBRANCH   6  12
BRANCH   1  14
ATOM     14  C   UNL     1       4.652   2.824  19.928  0.00  0.00    +0.000 C 
BRANCH  14  19
ATOM     15  N   UNL     1       2.152   2.391  19.632  0.00  0.00    +0.000 N 
ATOM     16  C   UNL     1       1.024   2.419  20.407  0.00  0.00    +0.000 A 
ATOM     17  C   UNL     1       1.448   2.780  21.657  0.00  0.00    +0.000 A 
ATOM     18  N   UNL     1       2.808   2.993  21.669  0.00  0.00    +0.000 NA
ATOM     19  C   UNL     1       3.223   2.759  20.432  0.00  0.00    +0.000 A 
BRANCH  15  20
ATOM     20  C   UNL     1       2.138   2.096  18.209  0.00  0.00    +0.000 C 
BRANCH  20  22
ATOM     21  C   UNL     1       1.349   4.440  17.572  0.00  0.00    +0.000 C 
ATOM     22  C   UNL     1       2.334   3.314  17.301  0.00  0.00    +0.000 C 
ENDBRANCH  20  22
ENDBRANCH  15  20
ENDBRANCH  14  19
ENDBRANCH   1  14
TORSDOF 6
ENDMDL
MODEL 6
REMARK VINA RESULT:      -6.7      2.930      5.826
REMARK  Name = 
REMARK  7 active torsions:
REMARK  status: ('A' for Active; 'I' for Inactive)
REMARK    1  A    between atoms: C_1  and  C_2
REMARK    2  A    between atoms: C_2  and  C_3
REMARK    3  A    between atoms: C_3  and  N_4
REMARK    4  A    between atoms: C_8  and  C_9
REMARK    5  A    between atoms: C_9  and  N_10
REMARK    6  A    between atoms: C_14  and  O_15
REMARK    7  A    between atoms: C_16  and  O_17
REMARK                            x       y       z     vdW  Elec       q    Type
REMARK                         _______ _______ _______ _____ _____    ______ ____
ROOT
ATOM      1  N   UNL     1       3.166   6.498  17.821  0.00  0.00    +0.000 NA
ATOM      2  C   UNL     1       2.851   5.131  17.434  0.00  0.00    +0.000 C 
ATOM      3  C   UNL     1       1.640   4.789  18.310  0.00  0.00    +0.000 C 
ATOM      4  C   UNL     1       1.341   3.307  18.488  0.00  0.00    +0.000 C 
ATOM      5  C   UNL     1       2.518   2.575  19.107  0.00  0.00    +0.000 C 
ATOM      6  C   UNL     1       2.947   3.178  20.455  0.00  0.00    +0.000 C 
ATOM      7  C   UNL     1       2.586   4.648  20.732  0.00  0.00    +0.000 C 
ATOM      8  C   UNL     1       1.934   5.499  19.626  0.00  0.00    +0.000 C 
ATOM      9  C   UNL     1       2.762   6.727  19.202  0.00  0.00    +0.000 C 
ENDROOT
BRANCH   5  10
ATOM     10  O   UNL     1       2.175   1.193  19.259  0.00  0.00    +0.000 OA
ATOM     11  H   UNL     1       2.135   0.851  18.339  0.00  0.00    +0.000 HD
ENDBRANCH   5  10
BRANCH   6  12
ATOM     12  O   UNL     1       2.362   2.362  21.496  0.00  0.00    +0.000 OA
ATOM     13  H   UNL     1       1.402   2.341  21.337  0.00  0.00    +0.000 HD
ENDBRANCH   6  12
BRANCH   1  14
ATOM     14  C   UNL     1       4.484   7.004  17.424  0.00  0.00    +0.000 C 
BRANCH  14  19
ATOM     15  N   UNL     1       6.314   5.233  17.224  0.00  0.00    +0.000 N 
ATOM     16  C   UNL     1       6.963   4.561  16.224  0.00  0.00    +0.000 A 
ATOM     17  C   UNL     1       6.416   5.023  15.058  0.00  0.00    +0.000 A 
ATOM     18  N   UNL     1       5.457   5.977  15.313  0.00  0.00    +0.000 NA
ATOM     19  C   UNL     1       5.408   6.100  16.632  0.00  0.00    +0.000 A 
BRANCH  15  20
ATOM     20  C   UNL     1       6.630   5.071  18.633  0.00  0.00    +0.000 C 
BRANCH  20  22
ATOM     21  C   UNL     1       8.091   7.163  18.533  0.00  0.00    +0.000 C 
ATOM     22  C   UNL     1       7.925   5.756  19.082  0.00  0.00    +0.000 C 
ENDBRANCH  20  22
ENDBRANCH  15  20
ENDBRANCH  14  19
ENDBRANCH   1  14
TORSDOF 6
ENDMDL
MODEL 7
REMARK VINA RESULT:      -6.5      3.777      6.092
REMARK  Name = 
REMARK  7 active torsions:
REMARK  status: ('A' for Active; 'I' for Inactive)
REMARK    1  A    between atoms: C_1  and  C_2
REMARK    2  A    between atoms: C_2  and  C_3
REMARK    3  A    between atoms: C_3  and  N_4
REMARK    4  A    between atoms: C_8  and  C_9
REMARK    5  A    between atoms: C_9  and  N_10
REMARK    6  A    between atoms: C_14  and  O_15
REMARK    7  A    between atoms: C_16  and  O_17
REMARK                            x       y       z     vdW  Elec       q    Type
REMARK                         _______ _______ _______ _____ _____    ______ ____
ROOT
ATOM      1  N   UNL     1       4.960   4.635  15.955  0.00  0.00    +0.000 NA
ATOM      2  C   UNL     1       5.367   4.236  17.293  0.00  0.00    +0.000 C 
ATOM      3  C   UNL     1       5.171   5.515  18.116  0.00  0.00    +0.000 C 
ATOM      4  C   UNL     1       5.920   5.580  19.439  0.00  0.00    +0.000 C 
ATOM      5  C   UNL     1       7.418   5.445  19.236  0.00  0.00    +0.000 C 
ATOM      6  C   UNL     1       7.982   6.504  18.275  0.00  0.00    +0.000 C 
ATOM      7  C   UNL     1       7.015   7.144  17.264  0.00  0.00    +0.000 C 
ATOM      8  C   UNL     1       5.568   6.627  17.152  0.00  0.00    +0.000 C 
ATOM      9  C   UNL     1       5.204   6.060  15.768  0.00  0.00    +0.000 C 
ENDROOT
BRANCH   5  10
ATOM     10  O   UNL     1       8.067   5.524  20.510  0.00  0.00    +0.000 OA
ATOM     11  H   UNL     1       8.161   4.587  20.792  0.00  0.00    +0.000 HD
ENDBRANCH   5  10
BRANCH   6  12
ATOM     12  O   UNL     1       8.556   7.556  19.085  0.00  0.00    +0.000 OA
ATOM     13  H   UNL     1       8.475   8.384  18.577  0.00  0.00    +0.000 HD
ENDBRANCH   6  12
BRANCH   1  14
ATOM     14  C   UNL     1       5.355   3.746  14.857  0.00  0.00    +0.000 C 
BRANCH  14  19
ATOM     15  N   UNL     1       6.446   3.763  12.548  0.00  0.00    +0.000 N 
ATOM     16  C   UNL     1       7.460   4.429  11.915  0.00  0.00    +0.000 A 
ATOM     17  C   UNL     1       7.959   5.301  12.844  0.00  0.00    +0.000 A 
ATOM     18  N   UNL     1       7.291   5.177  14.040  0.00  0.00    +0.000 NA
ATOM     19  C   UNL     1       6.377   4.235  13.849  0.00  0.00    +0.000 A 
BRANCH  15  20
ATOM     20  C   UNL     1       5.674   2.701  11.923  0.00  0.00    +0.000 C 
BRANCH  20  22
ATOM     21  C   UNL     1       6.200   0.283  11.294  0.00  0.00    +0.000 C 
ATOM     22  C   UNL     1       6.488   1.753  11.037  0.00  0.00    +0.000 C 
ENDBRANCH  20  22
ENDBRANCH  15  20
ENDBRANCH  14  19
ENDBRANCH   1  14
TORSDOF 6
ENDMDL
MODEL 8
REMARK VINA RESULT:      -6.5      3.852      5.788
REMARK  Name = 
REMARK  7 active torsions:
REMARK  status: ('A' for Active; 'I' for Inactive)
REMARK    1  A    between atoms: C_1  and  C_2
REMARK    2  A    between atoms: C_2  and  C_3
REMARK    3  A    between atoms: C_3  and  N_4
REMARK    4  A    between atoms: C_8  and  C_9
REMARK    5  A    between atoms: C_9  and  N_10
REMARK    6  A    between atoms: C_14  and  O_15
REMARK    7  A    between atoms: C_16  and  O_17
REMARK                            x       y       z     vdW  Elec       q    Type
REMARK                         _______ _______ _______ _____ _____    ______ ____
ROOT
ATOM      1  N   UNL     1       2.850   6.627  19.019  0.00  0.00    +0.000 NA
ATOM      2  C   UNL     1       3.937   5.825  19.559  0.00  0.00    +0.000 C 
ATOM      3  C   UNL     1       4.354   4.953  18.369  0.00  0.00    +0.000 C 
ATOM      4  C   UNL     1       5.147   3.699  18.706  0.00  0.00    +0.000 C 
ATOM      5  C   UNL     1       4.371   2.784  19.635  0.00  0.00    +0.000 C 
ATOM      6  C   UNL     1       3.000   2.386  19.063  0.00  0.00    +0.000 C 
ATOM      7  C   UNL     1       2.364   3.313  18.012  0.00  0.00    +0.000 C 
ATOM      8  C   UNL     1       3.038   4.653  17.663  0.00  0.00    +0.000 C 
ATOM      9  C   UNL     1       2.173   5.892  17.958  0.00  0.00    +0.000 C 
ENDROOT
BRANCH   5  10
ATOM     10  O   UNL     1       5.160   1.620  19.906  0.00  0.00    +0.000 OA
ATOM     11  H   UNL     1       4.790   1.267  20.744  0.00  0.00    +0.000 HD
ENDBRANCH   5  10
BRANCH   6  12
ATOM     12  O   UNL     1       3.142   1.069  18.482  0.00  0.00    +0.000 OA
ATOM     13  H   UNL     1       3.874   0.628  18.950  0.00  0.00    +0.000 HD
ENDBRANCH   6  12
BRANCH   1  14
ATOM     14  C   UNL     1       1.998   7.318  19.993  0.00  0.00    +0.000 C 
BRANCH  14  19
ATOM     15  N   UNL     1       1.081   9.616  20.629  0.00  0.00    +0.000 N 
ATOM     16  C   UNL     1       0.700  10.763  19.988  0.00  0.00    +0.000 A 
ATOM     17  C   UNL     1       0.906  10.523  18.657  0.00  0.00    +0.000 A 
ATOM     18  N   UNL     1       1.387   9.249  18.458  0.00  0.00    +0.000 NA
ATOM     19  C   UNL     1       1.484   8.706  19.664  0.00  0.00    +0.000 A 
BRANCH  15  20
ATOM     20  C   UNL     1       0.976   9.430  22.067  0.00  0.00    +0.000 C 
BRANCH  20  22
ATOM     21  C   UNL     1      -1.041  10.527  23.186  0.00  0.00    +0.000 C 
ATOM     22  C   UNL     1      -0.454   9.258  22.588  0.00  0.00    +0.000 C 
ENDBRANCH  20  22
ENDBRANCH  15  20
ENDBRANCH  14  19
ENDBRANCH   1  14
TORSDOF 6
ENDMDL
MODEL 9
REMARK VINA RESULT:      -6.4      3.024      5.013
REMARK  Name = 
REMARK  7 active torsions:
REMARK  status: ('A' for Active; 'I' for Inactive)
REMARK    1  A    between atoms: C_1  and  C_2
REMARK    2  A    between atoms: C_2  and  C_3
REMARK    3  A    between atoms: C_3  and  N_4
REMARK    4  A    between atoms: C_8  and  C_9
REMARK    5  A    between atoms: C_9  and  N_10
REMARK    6  A    between atoms: C_14  and  O_15
REMARK    7  A    between atoms: C_16  and  O_17
REMARK                            x       y       z     vdW  Elec       q    Type
REMARK                         _______ _______ _______ _____ _____    ______ ____
ROOT
ATOM      1  N   UNL     1       2.963   5.860  18.695  0.00  0.00    +0.000 NA
ATOM      2  C   UNL     1       3.688   6.299  17.512  0.00  0.00    +0.000 C 
ATOM      3  C   UNL     1       4.178   4.985  16.893  0.00  0.00    +0.000 C 
ATOM      4  C   UNL     1       5.334   5.100  15.910  0.00  0.00    +0.000 C 
ATOM      5  C   UNL     1       6.553   5.730  16.558  0.00  0.00    +0.000 C 
ATOM      6  C   UNL     1       7.017   4.968  17.811  0.00  0.00    +0.000 C 
ATOM      7  C   UNL     1       5.982   4.100  18.548  0.00  0.00    +0.000 C 
ATOM      8  C   UNL     1       4.508   4.118  18.102  0.00  0.00    +0.000 C 
ATOM      9  C   UNL     1       3.526   4.607  19.182  0.00  0.00    +0.000 C 
ENDROOT
BRANCH   5  10
ATOM     10  O   UNL     1       7.607   5.802  15.592  0.00  0.00    +0.000 OA
ATOM     11  H   UNL     1       8.424   5.642  16.114  0.00  0.00    +0.000 HD
ENDBRANCH   5  10
BRANCH   6  12
ATOM     12  O   UNL     1       8.121   4.122  17.413  0.00  0.00    +0.000 OA
ATOM     13  H   UNL     1       8.863   4.709  17.185  0.00  0.00    +0.000 HD
ENDBRANCH   6  12
BRANCH   1  14
ATOM     14  C   UNL     1       2.665   6.886  19.699  0.00  0.00    +0.000 C 
BRANCH  14  19
ATOM     15  N   UNL     1       1.186   8.914  20.175  0.00  0.00    +0.000 N 
ATOM     16  C   UNL     1       0.618   9.938  19.467  0.00  0.00    +0.000 A 
ATOM     17  C   UNL     1       1.006   9.743  18.169  0.00  0.00    +0.000 A 
ATOM     18  N   UNL     1       1.784   8.613  18.056  0.00  0.00    +0.000 NA
ATOM     19  C   UNL     1       1.881   8.115  19.280  0.00  0.00    +0.000 A 
BRANCH  15  20
ATOM     20  C   UNL     1       0.984   8.720  21.601  0.00  0.00    +0.000 C 
BRANCH  20  22
ATOM     21  C   UNL     1      -0.517  10.005  23.219  0.00  0.00    +0.000 C 
ATOM     22  C   UNL     1      -0.443   8.991  22.089  0.00  0.00    +0.000 C 
ENDBRANCH  20  22
ENDBRANCH  15  20
ENDBRANCH  14  19
ENDBRANCH   1  14
TORSDOF 6
ENDMDL
