MODEL 1
REMARK VINA RESULT:      -6.9      0.000      0.000
REMARK  Name = 
REMARK  4 active torsions:
REMARK  status: ('A' for Active; 'I' for Inactive)
REMARK    1  A    between atoms: C_1  and  C_2
REMARK    2  A    between atoms: C_4  and  O_5
REMARK    3  A    between atoms: C_9  and  O_10
REMARK    4  A    between atoms: C_16  and  O_17
REMARK                            x       y       z     vdW  Elec       q    Type
REMARK                         _______ _______ _______ _____ _____    ______ ____
ROOT
ATOM      1  C   UNL     1       1.225   2.673  22.095  0.00  0.00    +0.000 C 
ATOM      2  C   UNL     1       1.912   2.955  20.790  0.00  0.00    +0.000 A 
ATOM      3  C   UNL     1       2.492   1.920  20.046  0.00  0.00    +0.000 A 
ATOM      4  C   UNL     1       3.123   2.200  18.834  0.00  0.00    +0.000 A 
ATOM      5  C   UNL     1       3.172   3.513  18.367  0.00  0.00    +0.000 A 
ATOM      6  C   UNL     1       2.618   4.573  19.100  0.00  0.00    +0.000 A 
ATOM      7  C   UNL     1       1.980   4.272  20.315  0.00  0.00    +0.000 A 
ATOM      8  C   UNL     1       2.774   5.965  18.537  0.00  0.00    +0.000 C 
ATOM      9  O   UNL     1       4.126   6.407  18.658  0.00  0.00    +0.000 OA
ATOM     10  C   UNL     1       5.085   5.856  17.846  0.00  0.00    +0.000 A 
ATOM     11  C   UNL     1       6.280   6.588  17.837  0.00  0.00    +0.000 A 
ATOM     12  C   UNL     1       7.373   6.175  17.073  0.00  0.00    +0.000 A 
ATOM     13  C   UNL     1       7.289   5.015  16.311  0.00  0.00    +0.000 A 
ATOM     14  C   UNL     1       6.112   4.267  16.323  0.00  0.00    +0.000 A 
ATOM     15  C   UNL     1       5.006   4.681  17.081  0.00  0.00    +0.000 A 
ATOM     16  C   UNL     1       3.791   3.837  17.073  0.00  0.00    +0.000 C 
ATOM     17  O   UNL     1       3.223   3.531  16.033  0.00  0.00    +0.000 OA
ENDROOT
BRANCH   4  18
ATOM     18  O   UNL     1       3.722   1.201  18.128  0.00  0.00    +0.000 OA
ATOM     19  H   UNL     1       3.483   1.271  17.192  0.00  0.00    +0.000 HD
ENDBRANCH   4  18
BRANCH   8  20
ATOM     20  O   UNL     1       1.964   6.900  19.243  0.00  0.00    +0.000 OA
ATOM     21  H   UNL     1       2.009   6.611  20.169  0.00  0.00    +0.000 HD
ENDBRANCH   8  20
BRANCH  14  22
ATOM     22  O   UNL     1       6.067   3.094  15.623  0.00  0.00    +0.000 OA
ATOM     23  H   UNL     1       5.358   3.125  14.959  0.00  0.00    +0.000 HD
ENDBRANCH  14  22
TORSDOF 3
ENDMDL
MODEL 2
REMARK VINA RESULT:      -6.6      2.175      3.065
REMARK  Name = 
REMARK  4 active torsions:
REMARK  status: ('A' for Active; 'I' for Inactive)
REMARK    1  A    between atoms: C_1  and  C_2
REMARK    2  A    between atoms: C_4  and  O_5
REMARK    3  A    between atoms: C_9  and  O_10
REMARK    4  A    between atoms: C_16  and  O_17
REMARK                            x       y       z     vdW  Elec       q    Type
REMARK                         _______ _______ _______ _____ _____    ______ ____
ROOT
ATOM      1  C   UNL     1       0.654   8.714  21.936  0.00  0.00    +0.000 C 
ATOM      2  C   UNL     1       1.293   7.784  20.945  0.00  0.00    +0.000 A 
ATOM      3  C   UNL     1       1.476   6.429  21.248  0.00  0.00    +0.000 A 
ATOM      4  C   UNL     1       2.068   5.579  20.314  0.00  0.00    +0.000 A 
ATOM      5  C   UNL     1       2.474   6.083  19.079  0.00  0.00    +0.000 A 
ATOM      6  C   UNL     1       2.322   7.439  18.756  0.00  0.00    +0.000 A 
ATOM      7  C   UNL     1       1.717   8.280  19.705  0.00  0.00    +0.000 A 
ATOM      8  C   UNL     1       2.846   7.899  17.417  0.00  0.00    +0.000 C 
ATOM      9  O   UNL     1       4.273   7.917  17.416  0.00  0.00    +0.000 OA
ATOM     10  C   UNL     1       4.958   6.727  17.395  0.00  0.00    +0.000 A 
ATOM     11  C   UNL     1       6.314   6.882  17.075  0.00  0.00    +0.000 A 
ATOM     12  C   UNL     1       7.170   5.781  17.013  0.00  0.00    +0.000 A 
ATOM     13  C   UNL     1       6.683   4.507  17.281  0.00  0.00    +0.000 A 
ATOM     14  C   UNL     1       5.339   4.339  17.617  0.00  0.00    +0.000 A 
ATOM     15  C   UNL     1       4.471   5.440  17.672  0.00  0.00    +0.000 A 
ATOM     16  C   UNL     1       3.061   5.206  18.055  0.00  0.00    +0.000 C 
ATOM     17  O   UNL     1       2.350   4.413  17.452  0.00  0.00    +0.000 OA
ENDROOT
BRANCH   4  18
ATOM     18  O   UNL     1       2.283   4.269  20.621  0.00  0.00    +0.000 OA
ATOM     19  H   UNL     1       2.011   3.708  19.879  0.00  0.00    +0.000 HD
ENDBRANCH   4  18
BRANCH   8  20
ATOM     20  O   UNL     1       2.411   9.223  17.120  0.00  0.00    +0.000 OA
ATOM     21  H   UNL     1       2.466   9.286  16.153  0.00  0.00    +0.000 HD
ENDBRANCH   8  20
BRANCH  14  22
ATOM     22  O   UNL     1       4.891   3.090  17.943  0.00  0.00    +0.000 OA
ATOM     23  H   UNL     1       5.624   2.547  18.278  0.00  0.00    +0.000 HD
ENDBRANCH  14  22
TORSDOF 3
ENDMDL
MODEL 3
REMARK VINA RESULT:      -6.5      2.236      4.945
REMARK  Name = 
REMARK  4 active torsions:
REMARK  status: ('A' for Active; 'I' for Inactive)
REMARK    1  A    between atoms: C_1  and  C_2
REMARK    2  A    between atoms: C_4  and  O_5
REMARK    3  A    between atoms: C_9  and  O_10
REMARK    4  A    between atoms: C_16  and  O_17
REMARK                            x       y       z     vdW  Elec       q    Type
REMARK                         _______ _______ _______ _____ _____    ______ ____
ROOT
ATOM      1  C   UNL     1       1.593  10.335  17.857  0.00  0.00    +0.000 C 
ATOM      2  C   UNL     1       2.221   8.996  18.119  0.00  0.00    +0.000 A 
ATOM      3  C   UNL     1       3.181   8.470  17.245  0.00  0.00    +0.000 A 
ATOM      4  C   UNL     1       3.756   7.227  17.506  0.00  0.00    +0.000 A 
ATOM      5  C   UNL     1       3.374   6.513  18.641  0.00  0.00    +0.000 A 
ATOM      6  C   UNL     1       2.402   7.005  19.524  0.00  0.00    +0.000 A 
ATOM      7  C   UNL     1       1.838   8.262  19.250  0.00  0.00    +0.000 A 
ATOM      8  C   UNL     1       2.015   6.131  20.693  0.00  0.00    +0.000 C 
ATOM      9  O   UNL     1       1.245   5.013  20.250  0.00  0.00    +0.000 OA
ATOM     10  C   UNL     1       1.868   4.002  19.562  0.00  0.00    +0.000 A 
ATOM     11  C   UNL     1       1.087   2.841  19.470  0.00  0.00    +0.000 A 
ATOM     12  C   UNL     1       1.554   1.710  18.800  0.00  0.00    +0.000 A 
ATOM     13  C   UNL     1       2.809   1.725  18.200  0.00  0.00    +0.000 A 
ATOM     14  C   UNL     1       3.590   2.879  18.268  0.00  0.00    +0.000 A 
ATOM     15  C   UNL     1       3.131   4.018  18.948  0.00  0.00    +0.000 A 
ATOM     16  C   UNL     1       3.992   5.220  18.970  0.00  0.00    +0.000 C 
ATOM     17  O   UNL     1       5.144   5.183  19.384  0.00  0.00    +0.000 OA
ENDROOT
BRANCH   4  18
ATOM     18  O   UNL     1       4.660   6.695  16.637  0.00  0.00    +0.000 OA
ATOM     19  H   UNL     1       4.260   5.953  16.159  0.00  0.00    +0.000 HD
ENDBRANCH   4  18
BRANCH   8  20
ATOM     20  O   UNL     1       1.214   6.846  21.628  0.00  0.00    +0.000 OA
ATOM     21  H   UNL     1       1.556   7.754  21.597  0.00  0.00    +0.000 HD
ENDBRANCH   8  20
BRANCH  14  22
ATOM     22  O   UNL     1       4.791   2.903  17.617  0.00  0.00    +0.000 OA
ATOM     23  H   UNL     1       4.652   2.989  16.658  0.00  0.00    +0.000 HD
ENDBRANCH  14  22
TORSDOF 3
ENDMDL
MODEL 4
REMARK VINA RESULT:      -6.3      7.431     10.419
REMARK  Name = 
REMARK  4 active torsions:
REMARK  status: ('A' for Active; 'I' for Inactive)
REMARK    1  A    between atoms: C_1  and  C_2
REMARK    2  A    between atoms: C_4  and  O_5
REMARK    3  A    between atoms: C_9  and  O_10
REMARK    4  A    between atoms: C_16  and  O_17
REMARK                            x       y       z     vdW  Elec       q    Type
REMARK                         _______ _______ _______ _____ _____    ______ ____
ROOT
ATOM      1  C   UNL     1       1.953   7.660  19.975  0.00  0.00    +0.000 C 
ATOM      2  C   UNL     1       1.166   8.789  20.577  0.00  0.00    +0.000 A 
ATOM      3  C   UNL     1       0.756   8.745  21.915  0.00  0.00    +0.000 A 
ATOM      4  C   UNL     1       0.030   9.804  22.458  0.00  0.00    +0.000 A 
ATOM      5  C   UNL     1      -0.285  10.907  21.663  0.00  0.00    +0.000 A 
ATOM      6  C   UNL     1       0.095  10.970  20.315  0.00  0.00    +0.000 A 
ATOM      7  C   UNL     1       0.833   9.898  19.786  0.00  0.00    +0.000 A 
ATOM      8  C   UNL     1      -0.343  12.179  19.524  0.00  0.00    +0.000 C 
ATOM      9  O   UNL     1      -1.747  12.131  19.269  0.00  0.00    +0.000 OA
ATOM     10  C   UNL     1      -2.622  12.356  20.302  0.00  0.00    +0.000 A 
ATOM     11  C   UNL     1      -3.932  12.597  19.865  0.00  0.00    +0.000 A 
ATOM     12  C   UNL     1      -4.962  12.840  20.776  0.00  0.00    +0.000 A 
ATOM     13  C   UNL     1      -4.698  12.836  22.141  0.00  0.00    +0.000 A 
ATOM     14  C   UNL     1      -3.403  12.581  22.591  0.00  0.00    +0.000 A 
ATOM     15  C   UNL     1      -2.361  12.345  21.681  0.00  0.00    +0.000 A 
ATOM     16  C   UNL     1      -1.011  12.059  22.216  0.00  0.00    +0.000 C 
ATOM     17  O   UNL     1      -0.444  12.825  22.984  0.00  0.00    +0.000 OA
ENDROOT
BRANCH   4  18
ATOM     18  O   UNL     1      -0.404   9.746  23.748  0.00  0.00    +0.000 OA
ATOM     19  H   UNL     1      -0.275  10.605  24.178  0.00  0.00    +0.000 HD
ENDBRANCH   4  18
BRANCH   8  20
ATOM     20  O   UNL     1       0.310  12.232  18.259  0.00  0.00    +0.000 OA
ATOM     21  H   UNL     1       0.836  11.416  18.223  0.00  0.00    +0.000 HD
ENDBRANCH   8  20
BRANCH  14  22
ATOM     22  O   UNL     1      -3.173  12.514  23.936  0.00  0.00    +0.000 OA
ATOM     23  H   UNL     1      -2.902  13.385  24.275  0.00  0.00    +0.000 HD
ENDBRANCH  14  22
TORSDOF 3
ENDMDL
MODEL 5
REMARK VINA RESULT:      -6.3      1.312      1.429
REMARK  Name = 
REMARK  4 active torsions:
REMARK  status: ('A' for Active; 'I' for Inactive)
REMARK    1  A    between atoms: C_1  and  C_2
REMARK    2  A    between atoms: C_4  and  O_5
REMARK    3  A    between atoms: C_9  and  O_10
REMARK    4  A    between atoms: C_16  and  O_17
REMARK                            x       y       z     vdW  Elec       q    Type
REMARK                         _______ _______ _______ _____ _____    ______ ____
ROOT
ATOM      1  C   UNL     1       1.060   2.858  21.962  0.00  0.00    +0.000 C 
ATOM      2  C   UNL     1       2.071   3.075  20.873  0.00  0.00    +0.000 A 
ATOM      3  C   UNL     1       3.286   2.378  20.873  0.00  0.00    +0.000 A 
ATOM      4  C   UNL     1       4.212   2.589  19.852  0.00  0.00    +0.000 A 
ATOM      5  C   UNL     1       3.922   3.493  18.831  0.00  0.00    +0.000 A 
ATOM      6  C   UNL     1       2.723   4.219  18.815  0.00  0.00    +0.000 A 
ATOM      7  C   UNL     1       1.798   3.990  19.847  0.00  0.00    +0.000 A 
ATOM      8  C   UNL     1       2.528   5.217  17.698  0.00  0.00    +0.000 C 
ATOM      9  O   UNL     1       3.373   6.352  17.886  0.00  0.00    +0.000 OA
ATOM     10  C   UNL     1       4.724   6.222  17.678  0.00  0.00    +0.000 A 
ATOM     11  C   UNL     1       5.382   7.456  17.580  0.00  0.00    +0.000 A 
ATOM     12  C   UNL     1       6.762   7.522  17.376  0.00  0.00    +0.000 A 
ATOM     13  C   UNL     1       7.506   6.351  17.275  0.00  0.00    +0.000 A 
ATOM     14  C   UNL     1       6.866   5.116  17.387  0.00  0.00    +0.000 A 
ATOM     15  C   UNL     1       5.479   5.042  17.583  0.00  0.00    +0.000 A 
ATOM     16  C   UNL     1       4.857   3.707  17.717  0.00  0.00    +0.000 C 
ATOM     17  O   UNL     1       4.990   2.843  16.859  0.00  0.00    +0.000 OA
ENDROOT
BRANCH   4  18
ATOM     18  O   UNL     1       5.411   1.943  19.872  0.00  0.00    +0.000 OA
ATOM     19  H   UNL     1       6.109   2.552  20.158  0.00  0.00    +0.000 HD
ENDBRANCH   4  18
BRANCH   8  20
ATOM     20  O   UNL     1       1.187   5.695  17.663  0.00  0.00    +0.000 OA
ATOM     21  H   UNL     1       1.190   6.380  16.974  0.00  0.00    +0.000 HD
ENDBRANCH   8  20
BRANCH  14  22
ATOM     22  O   UNL     1       7.620   3.977  17.354  0.00  0.00    +0.000 OA
ATOM     23  H   UNL     1       8.525   4.164  17.655  0.00  0.00    +0.000 HD
ENDBRANCH  14  22
TORSDOF 3
ENDMDL
MODEL 6
REMARK VINA RESULT:      -6.2      7.210      9.637
REMARK  Name = 
REMARK  4 active torsions:
REMARK  status: ('A' for Active; 'I' for Inactive)
REMARK    1  A    between atoms: C_1  and  C_2
REMARK    2  A    between atoms: C_4  and  O_5
REMARK    3  A    between atoms: C_9  and  O_10
REMARK    4  A    between atoms: C_16  and  O_17
REMARK                            x       y       z     vdW  Elec       q    Type
REMARK                         _______ _______ _______ _____ _____    ______ ____
ROOT
ATOM      1  C   UNL     1      -5.980  11.809  17.599  0.00  0.00    +0.000 C 
ATOM      2  C   UNL     1      -4.558  11.610  18.041  0.00  0.00    +0.000 A 
ATOM      3  C   UNL     1      -3.721  10.704  17.378  0.00  0.00    +0.000 A 
ATOM      4  C   UNL     1      -2.403  10.535  17.800  0.00  0.00    +0.000 A 
ATOM      5  C   UNL     1      -1.922  11.272  18.882  0.00  0.00    +0.000 A 
ATOM      6  C   UNL     1      -2.743  12.172  19.577  0.00  0.00    +0.000 A 
ATOM      7  C   UNL     1      -4.066  12.336  19.135  0.00  0.00    +0.000 A 
ATOM      8  C   UNL     1      -2.147  12.879  20.770  0.00  0.00    +0.000 C 
ATOM      9  O   UNL     1      -1.982  11.973  21.861  0.00  0.00    +0.000 OA
ATOM     10  C   UNL     1      -0.995  11.021  21.796  0.00  0.00    +0.000 A 
ATOM     11  C   UNL     1      -0.733  10.421  23.036  0.00  0.00    +0.000 A 
ATOM     12  C   UNL     1       0.236   9.424  23.163  0.00  0.00    +0.000 A 
ATOM     13  C   UNL     1       0.953   9.005  22.048  0.00  0.00    +0.000 A 
ATOM     14  C   UNL     1       0.691   9.581  20.805  0.00  0.00    +0.000 A 
ATOM     15  C   UNL     1      -0.275  10.590  20.671  0.00  0.00    +0.000 A 
ATOM     16  C   UNL     1      -0.526  11.150  19.325  0.00  0.00    +0.000 C 
ATOM     17  O   UNL     1       0.372  11.634  18.647  0.00  0.00    +0.000 OA
ENDROOT
BRANCH   4  18
ATOM     18  O   UNL     1      -1.599   9.625  17.182  0.00  0.00    +0.000 OA
ATOM     19  H   UNL     1      -1.842   8.729  17.458  0.00  0.00    +0.000 HD
ENDBRANCH   4  18
BRANCH   8  20
ATOM     20  O   UNL     1      -2.995  13.929  21.224  0.00  0.00    +0.000 OA
ATOM     21  H   UNL     1      -3.227  14.420  20.419  0.00  0.00    +0.000 HD
ENDBRANCH   8  20
BRANCH  14  22
ATOM     22  O   UNL     1       1.355   9.112  19.707  0.00  0.00    +0.000 OA
ATOM     23  H   UNL     1       0.723   8.884  19.004  0.00  0.00    +0.000 HD
ENDBRANCH  14  22
TORSDOF 3
ENDMDL
MODEL 7
REMARK VINA RESULT:      -6.1      2.021      5.040
REMARK  Name = 
REMARK  4 active torsions:
REMARK  status: ('A' for Active; 'I' for Inactive)
REMARK    1  A    between atoms: C_1  and  C_2
REMARK    2  A    between atoms: C_4  and  O_5
REMARK    3  A    between atoms: C_9  and  O_10
REMARK    4  A    between atoms: C_16  and  O_17
REMARK                            x       y       z     vdW  Elec       q    Type
REMARK                         _______ _______ _______ _____ _____    ______ ____
ROOT
ATOM      1  C   UNL     1       6.245   4.003  13.208  0.00  0.00    +0.000 C 
ATOM      2  C   UNL     1       5.871   4.126  14.657  0.00  0.00    +0.000 A 
ATOM      3  C   UNL     1       5.337   3.036  15.356  0.00  0.00    +0.000 A 
ATOM      4  C   UNL     1       4.999   3.168  16.702  0.00  0.00    +0.000 A 
ATOM      5  C   UNL     1       5.197   4.388  17.349  0.00  0.00    +0.000 A 
ATOM      6  C   UNL     1       5.711   5.502  16.670  0.00  0.00    +0.000 A 
ATOM      7  C   UNL     1       6.053   5.350  15.316  0.00  0.00    +0.000 A 
ATOM      8  C   UNL     1       5.833   6.793  17.443  0.00  0.00    +0.000 C 
ATOM      9  O   UNL     1       4.544   7.360  17.681  0.00  0.00    +0.000 OA
ATOM     10  C   UNL     1       3.711   6.766  18.596  0.00  0.00    +0.000 A 
ATOM     11  C   UNL     1       2.634   7.584  18.966  0.00  0.00    +0.000 A 
ATOM     12  C   UNL     1       1.677   7.145  19.882  0.00  0.00    +0.000 A 
ATOM     13  C   UNL     1       1.778   5.874  20.438  0.00  0.00    +0.000 A 
ATOM     14  C   UNL     1       2.835   5.042  20.066  0.00  0.00    +0.000 A 
ATOM     15  C   UNL     1       3.806   5.480  19.152  0.00  0.00    +0.000 A 
ATOM     16  C   UNL     1       4.892   4.549  18.778  0.00  0.00    +0.000 C 
ATOM     17  O   UNL     1       5.618   4.031  19.618  0.00  0.00    +0.000 OA
ENDROOT
BRANCH   4  18
ATOM     18  O   UNL     1       4.443   2.121  17.373  0.00  0.00    +0.000 OA
ATOM     19  H   UNL     1       5.097   1.416  17.484  0.00  0.00    +0.000 HD
ENDBRANCH   4  18
BRANCH   8  20
ATOM     20  O   UNL     1       6.587   7.759  16.717  0.00  0.00    +0.000 OA
ATOM     21  H   UNL     1       7.388   7.285  16.442  0.00  0.00    +0.000 HD
ENDBRANCH   8  20
BRANCH  14  22
ATOM     22  O   UNL     1       2.883   3.772  20.568  0.00  0.00    +0.000 OA
ATOM     23  H   UNL     1       1.985   3.451  20.755  0.00  0.00    +0.000 HD
ENDBRANCH  14  22
TORSDOF 3
ENDMDL
MODEL 8
REMARK VINA RESULT:      -6.0      7.840     10.910
REMARK  Name = 
REMARK  4 active torsions:
REMARK  status: ('A' for Active; 'I' for Inactive)
REMARK    1  A    between atoms: C_1  and  C_2
REMARK    2  A    between atoms: C_4  and  O_5
REMARK    3  A    between atoms: C_9  and  O_10
REMARK    4  A    between atoms: C_16  and  O_17
REMARK                            x       y       z     vdW  Elec       q    Type
REMARK                         _______ _______ _______ _____ _____    ______ ____
ROOT
ATOM      1  C   UNL     1       1.703   8.592  18.845  0.00  0.00    +0.000 C 
ATOM      2  C   UNL     1       0.910   9.618  19.602  0.00  0.00    +0.000 A 
ATOM      3  C   UNL     1       0.838   9.582  21.000  0.00  0.00    +0.000 A 
ATOM      4  C   UNL     1       0.100  10.545  21.687  0.00  0.00    +0.000 A 
ATOM      5  C   UNL     1      -0.564  11.545  20.976  0.00  0.00    +0.000 A 
ATOM      6  C   UNL     1      -0.526  11.595  19.575  0.00  0.00    +0.000 A 
ATOM      7  C   UNL     1       0.228  10.621  18.899  0.00  0.00    +0.000 A 
ATOM      8  C   UNL     1      -1.325  12.682  18.895  0.00  0.00    +0.000 C 
ATOM      9  O   UNL     1      -2.723  12.408  18.985  0.00  0.00    +0.000 OA
ATOM     10  C   UNL     1      -3.356  12.551  20.195  0.00  0.00    +0.000 A 
ATOM     11  C   UNL     1      -4.753  12.567  20.081  0.00  0.00    +0.000 A 
ATOM     12  C   UNL     1      -5.566  12.698  21.209  0.00  0.00    +0.000 A 
ATOM     13  C   UNL     1      -4.992  12.805  22.471  0.00  0.00    +0.000 A 
ATOM     14  C   UNL     1      -3.604  12.773  22.601  0.00  0.00    +0.000 A 
ATOM     15  C   UNL     1      -2.780  12.651  21.471  0.00  0.00    +0.000 A 
ATOM     16  C   UNL     1      -1.315  12.601  21.670  0.00  0.00    +0.000 C 
ATOM     17  O   UNL     1      -0.713  13.482  22.270  0.00  0.00    +0.000 OA
ENDROOT
BRANCH   4  18
ATOM     18  O   UNL     1      -0.005  10.488  23.044  0.00  0.00    +0.000 OA
ATOM     19  H   UNL     1       0.868  10.612  23.447  0.00  0.00    +0.000 HD
ENDBRANCH   4  18
BRANCH   8  20
ATOM     20  O   UNL     1      -1.004  12.767  17.511  0.00  0.00    +0.000 OA
ATOM     21  H   UNL     1      -0.126  12.359  17.438  0.00  0.00    +0.000 HD
ENDBRANCH   8  20
BRANCH  14  22
ATOM     22  O   UNL     1      -3.056  12.811  23.852  0.00  0.00    +0.000 OA
ATOM     23  H   UNL     1      -2.103  12.627  23.808  0.00  0.00    +0.000 HD
ENDBRANCH  14  22
TORSDOF 3
ENDMDL
MODEL 9
REMARK VINA RESULT:      -5.9      7.443     10.431
REMARK  Name = 
REMARK  4 active torsions:
REMARK  status: ('A' for Active; 'I' for Inactive)
REMARK    1  A    between atoms: C_1  and  C_2
REMARK    2  A    between atoms: C_4  and  O_5
REMARK    3  A    between atoms: C_9  and  O_10
REMARK    4  A    between atoms: C_16  and  O_17
REMARK                            x       y       z     vdW  Elec       q    Type
REMARK                         _______ _______ _______ _____ _____    ______ ____
ROOT
ATOM      1  C   UNL     1       0.662  16.931  18.841  0.00  0.00    +0.000 C 
ATOM      2  C   UNL     1       0.276  15.645  19.513  0.00  0.00    +0.000 A 
ATOM      3  C   UNL     1       0.381  15.501  20.902  0.00  0.00    +0.000 A 
ATOM      4  C   UNL     1       0.015  14.301  21.510  0.00  0.00    +0.000 A 
ATOM      5  C   UNL     1      -0.459  13.246  20.729  0.00  0.00    +0.000 A 
ATOM      6  C   UNL     1      -0.557  13.355  19.334  0.00  0.00    +0.000 A 
ATOM      7  C   UNL     1      -0.190  14.573  18.739  0.00  0.00    +0.000 A 
ATOM      8  C   UNL     1      -1.026  12.138  18.573  0.00  0.00    +0.000 C 
ATOM      9  O   UNL     1      -0.014  11.132  18.562  0.00  0.00    +0.000 OA
ATOM     10  C   UNL     1       0.253  10.438  19.716  0.00  0.00    +0.000 A 
ATOM     11  C   UNL     1       1.020   9.286  19.496  0.00  0.00    +0.000 A 
ATOM     12  C   UNL     1       1.396   8.457  20.555  0.00  0.00    +0.000 A 
ATOM     13  C   UNL     1       1.017   8.776  21.854  0.00  0.00    +0.000 A 
ATOM     14  C   UNL     1       0.269   9.929  22.091  0.00  0.00    +0.000 A 
ATOM     15  C   UNL     1      -0.120  10.762  21.030  0.00  0.00    +0.000 A 
ATOM     16  C   UNL     1      -0.894  11.983  21.341  0.00  0.00    +0.000 C 
ATOM     17  O   UNL     1      -1.947  11.940  21.966  0.00  0.00    +0.000 OA
ENDROOT
BRANCH   4  18
ATOM     18  O   UNL     1       0.155  14.145  22.856  0.00  0.00    +0.000 OA
ATOM     19  H   UNL     1       0.283  15.008  23.276  0.00  0.00    +0.000 HD
ENDBRANCH   4  18
BRANCH   8  20
ATOM     20  O   UNL     1      -1.312  12.459  17.215  0.00  0.00    +0.000 OA
ATOM     21  H   UNL     1      -0.457  12.729  16.843  0.00  0.00    +0.000 HD
ENDBRANCH   8  20
BRANCH  14  22
ATOM     22  O   UNL     1      -0.037  10.265  23.379  0.00  0.00    +0.000 OA
ATOM     23  H   UNL     1       0.405  11.095  23.624  0.00  0.00    +0.000 HD
ENDBRANCH  14  22
TORSDOF 3
ENDMDL
