MODEL 1
REMARK VINA RESULT:      -8.1      0.000      0.000
REMARK  Name = 
REMARK  4 active torsions:
REMARK  status: ('A' for Active; 'I' for Inactive)
REMARK    1  A    between atoms: C_10  and  C_11
REMARK    2  A    between atoms: C_11  and  S_12
REMARK    3  A    between atoms: S_12  and  C_13
REMARK    4  A    between atoms: N_18  and  C_19
REMARK                            x       y       z     vdW  Elec       q    Type
REMARK                         _______ _______ _______ _____ _____    ______ ____
ROOT
ATOM      1  O   UNL     1       4.295   2.608  17.933  0.00  0.00    +0.000 OA
ATOM      2  C   UNL     1       4.250   3.816  17.704  0.00  0.00    +0.000 A 
ATOM      3  C   UNL     1       5.006   4.325  16.553  0.00  0.00    +0.000 A 
ATOM      4  C   UNL     1       5.735   3.452  15.733  0.00  0.00    +0.000 A 
ATOM      5  C   UNL     1       6.431   3.958  14.639  0.00  0.00    +0.000 A 
ATOM      6  C   UNL     1       6.406   5.325  14.378  0.00  0.00    +0.000 A 
ATOM      7  C   UNL     1       5.666   6.186  15.200  0.00  0.00    +0.000 A 
ATOM      8  C   UNL     1       4.944   5.686  16.287  0.00  0.00    +0.000 A 
ATOM      9  N   UNL     1       4.174   6.567  17.053  0.00  0.00    +0.000 NA
ATOM     10  C   UNL     1       3.499   6.107  18.068  0.00  0.00    +0.000 A 
ATOM     11  N   UNL     1       3.493   4.754  18.416  0.00  0.00    +0.000 N 
ENDROOT
BRANCH  11  12
ATOM     12  C   UNL     1       2.622   4.211  19.411  0.00  0.00    +0.000 A 
ATOM     13  C   UNL     1       3.073   4.047  20.728  0.00  0.00    +0.000 A 
ATOM     14  C   UNL     1       2.278   3.392  21.672  0.00  0.00    +0.000 A 
ATOM     15  C   UNL     1       1.033   2.881  21.306  0.00  0.00    +0.000 A 
ATOM     16  C   UNL     1       0.574   3.040  19.999  0.00  0.00    +0.000 A 
ATOM     17  C   UNL     1       1.364   3.704  19.064  0.00  0.00    +0.000 A 
ATOM     18  F   UNL     1       0.926   3.788  17.800  0.00  0.00    +0.000 F 
ENDBRANCH  11  12
BRANCH  10  19
ATOM     19  C   UNL     1       2.674   7.082  18.917  0.00  0.00    +0.000 C 
BRANCH  19  20
ATOM     20  S   UNL     1       2.164   8.596  18.059  0.00  0.00    +0.000 S 
BRANCH  20  21
ATOM     21  C   UNL     1       1.126   9.322  19.229  0.00  0.00    +0.000 C 
ATOM     22  N   UNL     1       0.276  10.279  18.975  0.00  0.00    +0.000 NA
ATOM     23  C   UNL     1      -0.430  10.446  20.284  0.00  0.00    +0.000 C 
ATOM     24  C   UNL     1      -0.065   9.218  21.130  0.00  0.00    +0.000 C 
ATOM     25  N   UNL     1       1.167   8.823  20.496  0.00  0.00    +0.000 N 
ATOM     26  H   UNL     1       1.471   7.862  20.573  0.00  0.00    +0.000 HD
ENDBRANCH  20  21
ENDBRANCH  19  20
ENDBRANCH  10  19
TORSDOF 4
ENDMDL
MODEL 2
REMARK VINA RESULT:      -7.6      2.783      6.266
REMARK  Name = 
REMARK  4 active torsions:
REMARK  status: ('A' for Active; 'I' for Inactive)
REMARK    1  A    between atoms: C_10  and  C_11
REMARK    2  A    between atoms: C_11  and  S_12
REMARK    3  A    between atoms: S_12  and  C_13
REMARK    4  A    between atoms: N_18  and  C_19
REMARK                            x       y       z     vdW  Elec       q    Type
REMARK                         _______ _______ _______ _____ _____    ______ ____
ROOT
ATOM      1  O   UNL     1       3.816   7.903  16.391  0.00  0.00    +0.000 OA
ATOM      2  C   UNL     1       3.711   7.267  17.439  0.00  0.00    +0.000 A 
ATOM      3  C   UNL     1       2.745   7.742  18.436  0.00  0.00    +0.000 A 
ATOM      4  C   UNL     1       1.954   8.872  18.185  0.00  0.00    +0.000 A 
ATOM      5  C   UNL     1       1.034   9.293  19.142  0.00  0.00    +0.000 A 
ATOM      6  C   UNL     1       0.918   8.595  20.341  0.00  0.00    +0.000 A 
ATOM      7  C   UNL     1       1.708   7.462  20.575  0.00  0.00    +0.000 A 
ATOM      8  C   UNL     1       2.618   7.015  19.613  0.00  0.00    +0.000 A 
ATOM      9  N   UNL     1       3.349   5.850  19.859  0.00  0.00    +0.000 NA
ATOM     10  C   UNL     1       4.200   5.430  18.966  0.00  0.00    +0.000 A 
ATOM     11  N   UNL     1       4.399   6.088  17.749  0.00  0.00    +0.000 N 
ENDROOT
BRANCH  11  12
ATOM     12  C   UNL     1       5.191   5.543  16.691  0.00  0.00    +0.000 A 
ATOM     13  C   UNL     1       4.630   4.628  15.791  0.00  0.00    +0.000 A 
ATOM     14  C   UNL     1       5.429   3.987  14.841  0.00  0.00    +0.000 A 
ATOM     15  C   UNL     1       6.800   4.243  14.792  0.00  0.00    +0.000 A 
ATOM     16  C   UNL     1       7.369   5.153  15.682  0.00  0.00    +0.000 A 
ATOM     17  C   UNL     1       6.566   5.798  16.619  0.00  0.00    +0.000 A 
ATOM     18  F   UNL     1       7.148   6.622  17.503  0.00  0.00    +0.000 F 
ENDBRANCH  11  12
BRANCH  10  19
ATOM     19  C   UNL     1       5.016   4.163  19.251  0.00  0.00    +0.000 C 
BRANCH  19  20
ATOM     20  S   UNL     1       4.164   2.608  18.874  0.00  0.00    +0.000 S 
BRANCH  20  21
ATOM     21  C   UNL     1       2.794   2.703  19.915  0.00  0.00    +0.000 C 
ATOM     22  N   UNL     1       2.834   2.552  21.210  0.00  0.00    +0.000 NA
ATOM     23  C   UNL     1       1.423   2.844  21.619  0.00  0.00    +0.000 C 
ATOM     24  C   UNL     1       0.751   3.499  20.404  0.00  0.00    +0.000 C 
ATOM     25  N   UNL     1       1.594   3.007  19.345  0.00  0.00    +0.000 N 
ATOM     26  H   UNL     1       1.647   3.528  18.478  0.00  0.00    +0.000 HD
ENDBRANCH  20  21
ENDBRANCH  19  20
ENDBRANCH  10  19
TORSDOF 4
ENDMDL
MODEL 3
REMARK VINA RESULT:      -7.6      3.564      7.247
REMARK  Name = 
REMARK  4 active torsions:
REMARK  status: ('A' for Active; 'I' for Inactive)
REMARK    1  A    between atoms: C_10  and  C_11
REMARK    2  A    between atoms: C_11  and  S_12
REMARK    3  A    between atoms: S_12  and  C_13
REMARK    4  A    between atoms: N_18  and  C_19
REMARK                            x       y       z     vdW  Elec       q    Type
REMARK                         _______ _______ _______ _____ _____    ______ ____
ROOT
ATOM      1  O   UNL     1       4.271   5.761  20.035  0.00  0.00    +0.000 OA
ATOM      2  C   UNL     1       4.166   4.946  19.119  0.00  0.00    +0.000 A 
ATOM      3  C   UNL     1       2.976   4.086  19.099  0.00  0.00    +0.000 A 
ATOM      4  C   UNL     1       1.985   4.212  20.083  0.00  0.00    +0.000 A 
ATOM      5  C   UNL     1       0.859   3.395  20.032  0.00  0.00    +0.000 A 
ATOM      6  C   UNL     1       0.736   2.454  19.014  0.00  0.00    +0.000 A 
ATOM      7  C   UNL     1       1.729   2.345  18.032  0.00  0.00    +0.000 A 
ATOM      8  C   UNL     1       2.852   3.176  18.058  0.00  0.00    +0.000 A 
ATOM      9  N   UNL     1       3.795   3.075  17.032  0.00  0.00    +0.000 NA
ATOM     10  C   UNL     1       4.845   3.847  17.052  0.00  0.00    +0.000 A 
ATOM     11  N   UNL     1       5.061   4.797  18.053  0.00  0.00    +0.000 N 
ENDROOT
BRANCH  11  12
ATOM     12  C   UNL     1       6.108   5.767  17.992  0.00  0.00    +0.000 A 
ATOM     13  C   UNL     1       7.280   5.586  18.739  0.00  0.00    +0.000 A 
ATOM     14  C   UNL     1       8.249   6.591  18.793  0.00  0.00    +0.000 A 
ATOM     15  C   UNL     1       8.048   7.794  18.115  0.00  0.00    +0.000 A 
ATOM     16  C   UNL     1       6.887   7.985  17.368  0.00  0.00    +0.000 A 
ATOM     17  C   UNL     1       5.930   6.975  17.307  0.00  0.00    +0.000 A 
ATOM     18  F   UNL     1       4.795   7.208  16.632  0.00  0.00    +0.000 F 
ENDBRANCH  11  12
BRANCH  10  19
ATOM     19  C   UNL     1       5.887   3.716  15.934  0.00  0.00    +0.000 C 
BRANCH  19  20
ATOM     20  S   UNL     1       5.632   4.824  14.521  0.00  0.00    +0.000 S 
BRANCH  20  21
ATOM     21  C   UNL     1       5.640   3.710  13.205  0.00  0.00    +0.000 C 
ATOM     22  N   UNL     1       4.612   3.453  12.445  0.00  0.00    +0.000 NA
ATOM     23  C   UNL     1       5.187   2.530  11.415  0.00  0.00    +0.000 C 
ATOM     24  C   UNL     1       6.713   2.631  11.553  0.00  0.00    +0.000 C 
ATOM     25  N   UNL     1       6.821   3.096  12.912  0.00  0.00    +0.000 N 
ATOM     26  H   UNL     1       7.652   3.599  13.193  0.00  0.00    +0.000 HD
ENDBRANCH  20  21
ENDBRANCH  19  20
ENDBRANCH  10  19
TORSDOF 4
ENDMDL
MODEL 4
REMARK VINA RESULT:      -7.6      2.513      6.024
REMARK  Name = 
REMARK  4 active torsions:
REMARK  status: ('A' for Active; 'I' for Inactive)
REMARK    1  A    between atoms: C_10  and  C_11
REMARK    2  A    between atoms: C_11  and  S_12
REMARK    3  A    between atoms: S_12  and  C_13
REMARK    4  A    between atoms: N_18  and  C_19
REMARK                            x       y       z     vdW  Elec       q    Type
REMARK                         _______ _______ _______ _____ _____    ______ ____
ROOT
ATOM      1  O   UNL     1       4.065   7.643  16.208  0.00  0.00    +0.000 OA
ATOM      2  C   UNL     1       3.912   7.096  17.300  0.00  0.00    +0.000 A 
ATOM      3  C   UNL     1       2.927   7.671  18.223  0.00  0.00    +0.000 A 
ATOM      4  C   UNL     1       2.171   8.794  17.855  0.00  0.00    +0.000 A 
ATOM      5  C   UNL     1       1.231   9.310  18.744  0.00  0.00    +0.000 A 
ATOM      6  C   UNL     1       1.062   8.715  19.991  0.00  0.00    +0.000 A 
ATOM      7  C   UNL     1       1.817   7.589  20.342  0.00  0.00    +0.000 A 
ATOM      8  C   UNL     1       2.746   7.047  19.450  0.00  0.00    +0.000 A 
ATOM      9  N   UNL     1       3.442   5.890  19.814  0.00  0.00    +0.000 NA
ATOM     10  C   UNL     1       4.310   5.381  18.987  0.00  0.00    +0.000 A 
ATOM     11  N   UNL     1       4.562   5.933  17.728  0.00  0.00    +0.000 N 
ENDROOT
BRANCH  11  12
ATOM     12  C   UNL     1       5.374   5.287  16.745  0.00  0.00    +0.000 A 
ATOM     13  C   UNL     1       6.677   5.741  16.499  0.00  0.00    +0.000 A 
ATOM     14  C   UNL     1       7.427   5.207  15.448  0.00  0.00    +0.000 A 
ATOM     15  C   UNL     1       6.877   4.226  14.623  0.00  0.00    +0.000 A 
ATOM     16  C   UNL     1       5.583   3.765  14.859  0.00  0.00    +0.000 A 
ATOM     17  C   UNL     1       4.843   4.292  15.915  0.00  0.00    +0.000 A 
ATOM     18  F   UNL     1       3.579   3.877  16.082  0.00  0.00    +0.000 F 
ENDBRANCH  11  12
BRANCH  10  19
ATOM     19  C   UNL     1       5.086   4.125  19.401  0.00  0.00    +0.000 C 
BRANCH  19  20
ATOM     20  S   UNL     1       4.235   2.559  19.069  0.00  0.00    +0.000 S 
BRANCH  20  21
ATOM     21  C   UNL     1       2.816   2.726  20.034  0.00  0.00    +0.000 C 
ATOM     22  N   UNL     1       2.779   2.580  21.330  0.00  0.00    +0.000 NA
ATOM     23  C   UNL     1       1.364   2.943  21.661  0.00  0.00    +0.000 C 
ATOM     24  C   UNL     1       0.792   3.624  20.410  0.00  0.00    +0.000 C 
ATOM     25  N   UNL     1       1.666   3.086  19.399  0.00  0.00    +0.000 N 
ATOM     26  H   UNL     1       1.791   3.600  18.536  0.00  0.00    +0.000 HD
ENDBRANCH  20  21
ENDBRANCH  19  20
ENDBRANCH  10  19
TORSDOF 4
ENDMDL
MODEL 5
REMARK VINA RESULT:      -7.5      2.388      6.411
REMARK  Name = 
REMARK  4 active torsions:
REMARK  status: ('A' for Active; 'I' for Inactive)
REMARK    1  A    between atoms: C_10  and  C_11
REMARK    2  A    between atoms: C_11  and  S_12
REMARK    3  A    between atoms: S_12  and  C_13
REMARK    4  A    between atoms: N_18  and  C_19
REMARK                            x       y       z     vdW  Elec       q    Type
REMARK                         _______ _______ _______ _____ _____    ______ ____
ROOT
ATOM      1  O   UNL     1       2.911   8.316  17.304  0.00  0.00    +0.000 OA
ATOM      2  C   UNL     1       2.435   8.014  18.399  0.00  0.00    +0.000 A 
ATOM      3  C   UNL     1       1.495   8.954  19.020  0.00  0.00    +0.000 A 
ATOM      4  C   UNL     1       1.137  10.144  18.371  0.00  0.00    +0.000 A 
ATOM      5  C   UNL     1       0.231  11.011  18.976  0.00  0.00    +0.000 A 
ATOM      6  C   UNL     1      -0.300  10.693  20.223  0.00  0.00    +0.000 A 
ATOM      7  C   UNL     1       0.059   9.496  20.857  0.00  0.00    +0.000 A 
ATOM      8  C   UNL     1       0.949   8.607  20.249  0.00  0.00    +0.000 A 
ATOM      9  N   UNL     1       1.241   7.397  20.886  0.00  0.00    +0.000 NA
ATOM     10  C   UNL     1       2.071   6.564  20.325  0.00  0.00    +0.000 A 
ATOM     11  N   UNL     1       2.671   6.819  19.089  0.00  0.00    +0.000 N 
ENDROOT
BRANCH  11  12
ATOM     12  C   UNL     1       3.438   5.843  18.381  0.00  0.00    +0.000 A 
ATOM     13  C   UNL     1       4.838   5.874  18.434  0.00  0.00    +0.000 A 
ATOM     14  C   UNL     1       5.597   5.012  17.638  0.00  0.00    +0.000 A 
ATOM     15  C   UNL     1       4.964   4.122  16.770  0.00  0.00    +0.000 A 
ATOM     16  C   UNL     1       3.572   4.081  16.710  0.00  0.00    +0.000 A 
ATOM     17  C   UNL     1       2.820   4.934  17.513  0.00  0.00    +0.000 A 
ATOM     18  F   UNL     1       1.484   4.918  17.391  0.00  0.00    +0.000 F 
ENDBRANCH  11  12
BRANCH  10  19
ATOM     19  C   UNL     1       2.404   5.249  21.040  0.00  0.00    +0.000 C 
BRANCH  19  20
ATOM     20  S   UNL     1       1.276   3.877  20.676  0.00  0.00    +0.000 S 
BRANCH  20  21
ATOM     21  C   UNL     1       2.364   2.693  20.053  0.00  0.00    +0.000 C 
ATOM     22  N   UNL     1       2.099   1.893  19.057  0.00  0.00    +0.000 NA
ATOM     23  C   UNL     1       3.397   1.173  18.860  0.00  0.00    +0.000 C 
ATOM     24  C   UNL     1       4.449   1.959  19.656  0.00  0.00    +0.000 C 
ATOM     25  N   UNL     1       3.605   2.628  20.612  0.00  0.00    +0.000 N 
ATOM     26  H   UNL     1       3.932   3.484  21.040  0.00  0.00    +0.000 HD
ENDBRANCH  20  21
ENDBRANCH  19  20
ENDBRANCH  10  19
TORSDOF 4
ENDMDL
MODEL 6
REMARK VINA RESULT:      -7.4      1.169      1.660
REMARK  Name = 
REMARK  4 active torsions:
REMARK  status: ('A' for Active; 'I' for Inactive)
REMARK    1  A    between atoms: C_10  and  C_11
REMARK    2  A    between atoms: C_11  and  S_12
REMARK    3  A    between atoms: S_12  and  C_13
REMARK    4  A    between atoms: N_18  and  C_19
REMARK                            x       y       z     vdW  Elec       q    Type
REMARK                         _______ _______ _______ _____ _____    ______ ____
ROOT
ATOM      1  O   UNL     1       4.217   2.225  17.535  0.00  0.00    +0.000 OA
ATOM      2  C   UNL     1       4.261   3.454  17.483  0.00  0.00    +0.000 A 
ATOM      3  C   UNL     1       4.983   4.067  16.361  0.00  0.00    +0.000 A 
ATOM      4  C   UNL     1       5.580   3.271  15.373  0.00  0.00    +0.000 A 
ATOM      5  C   UNL     1       6.246   3.879  14.312  0.00  0.00    +0.000 A 
ATOM      6  C   UNL     1       6.322   5.267  14.250  0.00  0.00    +0.000 A 
ATOM      7  C   UNL     1       5.713   6.051  15.239  0.00  0.00    +0.000 A 
ATOM      8  C   UNL     1       5.021   5.453  16.296  0.00  0.00    +0.000 A 
ATOM      9  N   UNL     1       4.380   6.268  17.234  0.00  0.00    +0.000 NA
ATOM     10  C   UNL     1       3.734   5.716  18.223  0.00  0.00    +0.000 A 
ATOM     11  N   UNL     1       3.635   4.331  18.375  0.00  0.00    +0.000 N 
ENDROOT
BRANCH  11  12
ATOM     12  C   UNL     1       2.786   3.716  19.346  0.00  0.00    +0.000 A 
ATOM     13  C   UNL     1       1.396   3.881  19.273  0.00  0.00    +0.000 A 
ATOM     14  C   UNL     1       0.570   3.400  20.292  0.00  0.00    +0.000 A 
ATOM     15  C   UNL     1       1.125   2.763  21.401  0.00  0.00    +0.000 A 
ATOM     16  C   UNL     1       2.506   2.591  21.485  0.00  0.00    +0.000 A 
ATOM     17  C   UNL     1       3.325   3.062  20.461  0.00  0.00    +0.000 A 
ATOM     18  F   UNL     1       4.653   2.939  20.595  0.00  0.00    +0.000 F 
ENDBRANCH  11  12
BRANCH  10  19
ATOM     19  C   UNL     1       3.052   6.616  19.260  0.00  0.00    +0.000 C 
BRANCH  19  20
ATOM     20  S   UNL     1       2.198   8.060  18.573  0.00  0.00    +0.000 S 
BRANCH  20  21
ATOM     21  C   UNL     1       1.411   8.692  19.971  0.00  0.00    +0.000 C 
ATOM     22  N   UNL     1       1.378   8.103  21.134  0.00  0.00    +0.000 NA
ATOM     23  C   UNL     1       0.687   9.115  21.995  0.00  0.00    +0.000 C 
ATOM     24  C   UNL     1       0.686  10.428  21.199  0.00  0.00    +0.000 C 
ATOM     25  N   UNL     1       0.827   9.919  19.859  0.00  0.00    +0.000 N 
ATOM     26  H   UNL     1       1.217  10.520  19.145  0.00  0.00    +0.000 HD
ENDBRANCH  20  21
ENDBRANCH  19  20
ENDBRANCH  10  19
TORSDOF 4
ENDMDL
MODEL 7
REMARK VINA RESULT:      -7.2      0.880      1.085
REMARK  Name = 
REMARK  4 active torsions:
REMARK  status: ('A' for Active; 'I' for Inactive)
REMARK    1  A    between atoms: C_10  and  C_11
REMARK    2  A    between atoms: C_11  and  S_12
REMARK    3  A    between atoms: S_12  and  C_13
REMARK    4  A    between atoms: N_18  and  C_19
REMARK                            x       y       z     vdW  Elec       q    Type
REMARK                         _______ _______ _______ _____ _____    ______ ____
ROOT
ATOM      1  O   UNL     1       4.274   2.612  17.798  0.00  0.00    +0.000 OA
ATOM      2  C   UNL     1       4.283   3.824  17.586  0.00  0.00    +0.000 A 
ATOM      3  C   UNL     1       5.063   4.315  16.444  0.00  0.00    +0.000 A 
ATOM      4  C   UNL     1       5.754   3.422  15.612  0.00  0.00    +0.000 A 
ATOM      5  C   UNL     1       6.474   3.913  14.527  0.00  0.00    +0.000 A 
ATOM      6  C   UNL     1       6.511   5.283  14.286  0.00  0.00    +0.000 A 
ATOM      7  C   UNL     1       5.809   6.164  15.120  0.00  0.00    +0.000 A 
ATOM      8  C   UNL     1       5.062   5.681  16.198  0.00  0.00    +0.000 A 
ATOM      9  N   UNL     1       4.331   6.584  16.975  0.00  0.00    +0.000 NA
ATOM     10  C   UNL     1       3.634   6.140  17.983  0.00  0.00    +0.000 A 
ATOM     11  N   UNL     1       3.567   4.784  18.311  0.00  0.00    +0.000 N 
ENDROOT
BRANCH  11  12
ATOM     12  C   UNL     1       2.671   4.266  19.296  0.00  0.00    +0.000 A 
ATOM     13  C   UNL     1       3.113   4.056  20.610  0.00  0.00    +0.000 A 
ATOM     14  C   UNL     1       2.287   3.423  21.543  0.00  0.00    +0.000 A 
ATOM     15  C   UNL     1       1.018   2.980  21.168  0.00  0.00    +0.000 A 
ATOM     16  C   UNL     1       0.567   3.186  19.865  0.00  0.00    +0.000 A 
ATOM     17  C   UNL     1       1.389   3.827  18.942  0.00  0.00    +0.000 A 
ATOM     18  F   UNL     1       0.956   3.957  17.679  0.00  0.00    +0.000 F 
ENDBRANCH  11  12
BRANCH  10  19
ATOM     19  C   UNL     1       2.851   7.139  18.845  0.00  0.00    +0.000 C 
BRANCH  19  20
ATOM     20  S   UNL     1       1.420   7.893  18.027  0.00  0.00    +0.000 S 
BRANCH  20  21
ATOM     21  C   UNL     1       1.617   9.553  18.447  0.00  0.00    +0.000 C 
ATOM     22  N   UNL     1       2.249  10.433  17.720  0.00  0.00    +0.000 NA
ATOM     23  C   UNL     1       2.023  11.706  18.474  0.00  0.00    +0.000 C 
ATOM     24  C   UNL     1       0.907  11.413  19.487  0.00  0.00    +0.000 C 
ATOM     25  N   UNL     1       1.026   9.982  19.598  0.00  0.00    +0.000 N 
ATOM     26  H   UNL     1       0.223   9.444  19.898  0.00  0.00    +0.000 HD
ENDBRANCH  20  21
ENDBRANCH  19  20
ENDBRANCH  10  19
TORSDOF 4
ENDMDL
MODEL 8
REMARK VINA RESULT:      -7.1      2.199      6.245
REMARK  Name = 
REMARK  4 active torsions:
REMARK  status: ('A' for Active; 'I' for Inactive)
REMARK    1  A    between atoms: C_10  and  C_11
REMARK    2  A    between atoms: C_11  and  S_12
REMARK    3  A    between atoms: S_12  and  C_13
REMARK    4  A    between atoms: N_18  and  C_19
REMARK                            x       y       z     vdW  Elec       q    Type
REMARK                         _______ _______ _______ _____ _____    ______ ____
ROOT
ATOM      1  O   UNL     1       1.315   5.855  20.972  0.00  0.00    +0.000 OA
ATOM      2  C   UNL     1       1.683   6.666  20.123  0.00  0.00    +0.000 A 
ATOM      3  C   UNL     1       1.330   8.077  20.324  0.00  0.00    +0.000 A 
ATOM      4  C   UNL     1       0.617   8.482  21.461  0.00  0.00    +0.000 A 
ATOM      5  C   UNL     1       0.307   9.828  21.634  0.00  0.00    +0.000 A 
ATOM      6  C   UNL     1       0.699  10.755  20.672  0.00  0.00    +0.000 A 
ATOM      7  C   UNL     1       1.419  10.339  19.545  0.00  0.00    +0.000 A 
ATOM      8  C   UNL     1       1.756   8.993  19.372  0.00  0.00    +0.000 A 
ATOM      9  N   UNL     1       2.523   8.623  18.263  0.00  0.00    +0.000 NA
ATOM     10  C   UNL     1       2.839   7.370  18.095  0.00  0.00    +0.000 A 
ATOM     11  N   UNL     1       2.461   6.373  18.997  0.00  0.00    +0.000 N 
ENDROOT
BRANCH  11  12
ATOM     12  C   UNL     1       2.949   5.031  18.922  0.00  0.00    +0.000 A 
ATOM     13  C   UNL     1       4.163   4.689  19.533  0.00  0.00    +0.000 A 
ATOM     14  C   UNL     1       4.715   3.418  19.350  0.00  0.00    +0.000 A 
ATOM     15  C   UNL     1       4.068   2.484  18.541  0.00  0.00    +0.000 A 
ATOM     16  C   UNL     1       2.859   2.813  17.929  0.00  0.00    +0.000 A 
ATOM     17  C   UNL     1       2.307   4.077  18.124  0.00  0.00    +0.000 A 
ATOM     18  F   UNL     1       1.176   4.389  17.475  0.00  0.00    +0.000 F 
ENDBRANCH  11  12
BRANCH  10  19
ATOM     19  C   UNL     1       3.661   6.968  16.865  0.00  0.00    +0.000 C 
BRANCH  19  20
ATOM     20  S   UNL     1       5.457   6.980  17.111  0.00  0.00    +0.000 S 
BRANCH  20  21
ATOM     21  C   UNL     1       5.949   5.656  16.122  0.00  0.00    +0.000 C 
ATOM     22  N   UNL     1       5.197   4.633  15.824  0.00  0.00    +0.000 NA
ATOM     23  C   UNL     1       6.055   3.862  14.868  0.00  0.00    +0.000 C 
ATOM     24  C   UNL     1       7.194   4.805  14.458  0.00  0.00    +0.000 C 
ATOM     25  N   UNL     1       7.197   5.712  15.577  0.00  0.00    +0.000 N 
ATOM     26  H   UNL     1       7.573   6.643  15.452  0.00  0.00    +0.000 HD
ENDBRANCH  20  21
ENDBRANCH  19  20
ENDBRANCH  10  19
TORSDOF 4
ENDMDL
MODEL 9
REMARK VINA RESULT:      -7.0      2.388      6.350
REMARK  Name = 
REMARK  4 active torsions:
REMARK  status: ('A' for Active; 'I' for Inactive)
REMARK    1  A    between atoms: C_10  and  C_11
REMARK    2  A    between atoms: C_11  and  S_12
REMARK    3  A    between atoms: S_12  and  C_13
REMARK    4  A    between atoms: N_18  and  C_19
REMARK                            x       y       z     vdW  Elec       q    Type
REMARK                         _______ _______ _______ _____ _____    ______ ____
ROOT
ATOM      1  O   UNL     1       1.366   5.624  20.818  0.00  0.00    +0.000 OA
ATOM      2  C   UNL     1       1.728   6.483  20.015  0.00  0.00    +0.000 A 
ATOM      3  C   UNL     1       1.372   7.879  20.296  0.00  0.00    +0.000 A 
ATOM      4  C   UNL     1       0.661   8.216  21.457  0.00  0.00    +0.000 A 
ATOM      5  C   UNL     1       0.348   9.549  21.708  0.00  0.00    +0.000 A 
ATOM      6  C   UNL     1       0.733  10.531  20.798  0.00  0.00    +0.000 A 
ATOM      7  C   UNL     1       1.451  10.181  19.647  0.00  0.00    +0.000 A 
ATOM      8  C   UNL     1       1.791   8.849  19.396  0.00  0.00    +0.000 A 
ATOM      9  N   UNL     1       2.555   8.545  18.265  0.00  0.00    +0.000 NA
ATOM     10  C   UNL     1       2.874   7.305  18.025  0.00  0.00    +0.000 A 
ATOM     11  N   UNL     1       2.503   6.256  18.871  0.00  0.00    +0.000 N 
ENDROOT
BRANCH  11  12
ATOM     12  C   UNL     1       2.995   4.923  18.718  0.00  0.00    +0.000 A 
ATOM     13  C   UNL     1       2.208   3.950  18.088  0.00  0.00    +0.000 A 
ATOM     14  C   UNL     1       2.621   2.615  18.057  0.00  0.00    +0.000 A 
ATOM     15  C   UNL     1       3.817   2.238  18.668  0.00  0.00    +0.000 A 
ATOM     16  C   UNL     1       4.610   3.198  19.296  0.00  0.00    +0.000 A 
ATOM     17  C   UNL     1       4.199   4.529  19.315  0.00  0.00    +0.000 A 
ATOM     18  F   UNL     1       4.948   5.422  19.978  0.00  0.00    +0.000 F 
ENDBRANCH  11  12
BRANCH  10  19
ATOM     19  C   UNL     1       3.692   6.976  16.771  0.00  0.00    +0.000 C 
BRANCH  19  20
ATOM     20  S   UNL     1       5.490   6.991  17.008  0.00  0.00    +0.000 S 
BRANCH  20  21
ATOM     21  C   UNL     1       5.976   5.647  16.043  0.00  0.00    +0.000 C 
ATOM     22  N   UNL     1       5.243   4.592  15.816  0.00  0.00    +0.000 NA
ATOM     23  C   UNL     1       6.078   3.815  14.847  0.00  0.00    +0.000 C 
ATOM     24  C   UNL     1       7.167   4.776  14.350  0.00  0.00    +0.000 C 
ATOM     25  N   UNL     1       7.194   5.722  15.436  0.00  0.00    +0.000 N 
ATOM     26  H   UNL     1       7.534   6.658  15.261  0.00  0.00    +0.000 HD
ENDBRANCH  20  21
ENDBRANCH  19  20
ENDBRANCH  10  19
TORSDOF 4
ENDMDL
