MODEL 1
REMARK VINA RESULT:      -7.8      0.000      0.000
REMARK  Name = 
REMARK  7 active torsions:
REMARK  status: ('A' for Active; 'I' for Inactive)
REMARK    1  A    between atoms: C_1  and  C_2
REMARK    2  A    between atoms: C_2  and  C_3
REMARK    3  A    between atoms: C_6  and  O_7
REMARK    4  A    between atoms: O_7  and  C_8
REMARK    5  A    between atoms: C_8  and  C_9
REMARK    6  A    between atoms: N_17  and  C_18
REMARK    7  A    between atoms: N_21  and  C_22
REMARK                            x       y       z     vdW  Elec       q    Type
REMARK                         _______ _______ _______ _____ _____    ______ ____
ROOT
ATOM      1  C   UNL     1       6.585   6.696  17.242  0.00  0.00    +0.000 C 
ATOM      2  C   UNL     1       5.358   7.116  18.080  0.00  0.00    +0.000 C 
ATOM      3  N   UNL     1       5.051   5.866  18.714  0.00  0.00    +0.000 N 
ATOM      4  C   UNL     1       6.066   4.992  18.582  0.00  0.00    +0.000 A 
ATOM      5  N   UNL     1       5.819   3.841  19.149  0.00  0.00    +0.000 NA
ATOM      6  C   UNL     1       4.520   4.001  19.635  0.00  0.00    +0.000 A 
ATOM      7  C   UNL     1       3.686   3.041  20.331  0.00  0.00    +0.000 A 
ATOM      8  O   UNL     1       4.075   1.913  20.619  0.00  0.00    +0.000 OA
ATOM      9  N   UNL     1       2.403   3.510  20.644  0.00  0.00    +0.000 N 
ATOM     10  C   UNL     1       1.487   2.630  21.344  0.00  0.00    +0.000 C 
ATOM     11  C   UNL     1       1.898   4.766  20.343  0.00  0.00    +0.000 A 
ATOM     12  O   UNL     1       0.768   5.153  20.613  0.00  0.00    +0.000 OA
ATOM     13  N   UNL     1       2.773   5.678  19.657  0.00  0.00    +0.000 N 
ATOM     14  C   UNL     1       2.292   7.017  19.306  0.00  0.00    +0.000 C 
ATOM     15  C   UNL     1       4.036   5.258  19.340  0.00  0.00    +0.000 A 
ATOM     16  O   UNL     1       7.067   5.438  17.837  0.00  0.00    +0.000 OA
ENDROOT
BRANCH   1  17
ATOM     17  C   UNL     1       6.195   6.469  15.769  0.00  0.00    +0.000 C 
BRANCH  17  18
ATOM     18  O   UNL     1       7.263   5.786  15.121  0.00  0.00    +0.000 OA
BRANCH  18  22
ATOM     19  C   UNL     1       5.928   3.127  12.191  0.00  0.00    +0.000 A 
ATOM     20  C   UNL     1       5.273   3.286  13.416  0.00  0.00    +0.000 A 
ATOM     21  C   UNL     1       5.767   4.179  14.368  0.00  0.00    +0.000 A 
ATOM     22  C   UNL     1       6.923   4.919  14.120  0.00  0.00    +0.000 A 
ATOM     23  C   UNL     1       7.579   4.771  12.899  0.00  0.00    +0.000 A 
ATOM     24  C   UNL     1       7.079   3.883  11.937  0.00  0.00    +0.000 A 
BRANCH  19  26
ATOM     25  C   UNL     1       6.223   0.914  11.032  0.00  0.00    +0.000 C 
ATOM     26  C   UNL     1       5.383   2.176  11.155  0.00  0.00    +0.000 C 
ENDBRANCH  19  26
ENDBRANCH  18  22
ENDBRANCH  17  18
ENDBRANCH   1  17
TORSDOF 4
ENDMDL
MODEL 2
REMARK VINA RESULT:      -7.6      1.092      1.206
REMARK  Name = 
REMARK  7 active torsions:
REMARK  status: ('A' for Active; 'I' for Inactive)
REMARK    1  A    between atoms: C_1  and  C_2
REMARK    2  A    between atoms: C_2  and  C_3
REMARK    3  A    between atoms: C_6  and  O_7
REMARK    4  A    between atoms: O_7  and  C_8
REMARK    5  A    between atoms: C_8  and  C_9
REMARK    6  A    between atoms: N_17  and  C_18
REMARK    7  A    between atoms: N_21  and  C_22
REMARK                            x       y       z     vdW  Elec       q    Type
REMARK                         _______ _______ _______ _____ _____    ______ ____
ROOT
ATOM      1  C   UNL     1       6.858   7.243  17.467  0.00  0.00    +0.000 C 
ATOM      2  C   UNL     1       5.351   7.252  17.803  0.00  0.00    +0.000 C 
ATOM      3  N   UNL     1       5.219   5.948  18.387  0.00  0.00    +0.000 N 
ATOM      4  C   UNL     1       6.423   5.420  18.674  0.00  0.00    +0.000 A 
ATOM      5  N   UNL     1       6.339   4.231  19.207  0.00  0.00    +0.000 NA
ATOM      6  C   UNL     1       4.965   3.981  19.209  0.00  0.00    +0.000 A 
ATOM      7  C   UNL     1       4.258   2.796  19.651  0.00  0.00    +0.000 A 
ATOM      8  O   UNL     1       4.832   1.826  20.137  0.00  0.00    +0.000 OA
ATOM      9  N   UNL     1       2.869   2.851  19.472  0.00  0.00    +0.000 N 
ATOM     10  C   UNL     1       2.064   1.718  19.883  0.00  0.00    +0.000 C 
ATOM     11  C   UNL     1       2.159   3.909  18.924  0.00  0.00    +0.000 A 
ATOM     12  O   UNL     1       0.946   3.934  18.765  0.00  0.00    +0.000 OA
ATOM     13  N   UNL     1       2.914   5.061  18.510  0.00  0.00    +0.000 N 
ATOM     14  C   UNL     1       2.219   6.207  17.917  0.00  0.00    +0.000 C 
ATOM     15  C   UNL     1       4.272   5.046  18.675  0.00  0.00    +0.000 A 
ATOM     16  O   UNL     1       7.446   6.167  18.282  0.00  0.00    +0.000 OA
ENDROOT
BRANCH   1  17
ATOM     17  C   UNL     1       7.086   6.957  15.970  0.00  0.00    +0.000 C 
BRANCH  17  18
ATOM     18  O   UNL     1       7.530   5.611  15.832  0.00  0.00    +0.000 OA
BRANCH  18  22
ATOM     19  C   UNL     1       5.881   3.493  12.634  0.00  0.00    +0.000 A 
ATOM     20  C   UNL     1       5.315   3.484  13.912  0.00  0.00    +0.000 A 
ATOM     21  C   UNL     1       5.912   4.199  14.952  0.00  0.00    +0.000 A 
ATOM     22  C   UNL     1       7.084   4.924  14.738  0.00  0.00    +0.000 A 
ATOM     23  C   UNL     1       7.652   4.943  13.464  0.00  0.00    +0.000 A 
ATOM     24  C   UNL     1       7.048   4.235  12.416  0.00  0.00    +0.000 A 
BRANCH  19  26
ATOM     25  C   UNL     1       3.864   3.311  11.141  0.00  0.00    +0.000 C 
ATOM     26  C   UNL     1       5.225   2.736  11.506  0.00  0.00    +0.000 C 
ENDBRANCH  19  26
ENDBRANCH  18  22
ENDBRANCH  17  18
ENDBRANCH   1  17
TORSDOF 4
ENDMDL
MODEL 3
REMARK VINA RESULT:      -7.4      2.607      6.682
REMARK  Name = 
REMARK  7 active torsions:
REMARK  status: ('A' for Active; 'I' for Inactive)
REMARK    1  A    between atoms: C_1  and  C_2
REMARK    2  A    between atoms: C_2  and  C_3
REMARK    3  A    between atoms: C_6  and  O_7
REMARK    4  A    between atoms: O_7  and  C_8
REMARK    5  A    between atoms: C_8  and  C_9
REMARK    6  A    between atoms: N_17  and  C_18
REMARK    7  A    between atoms: N_21  and  C_22
REMARK                            x       y       z     vdW  Elec       q    Type
REMARK                         _______ _______ _______ _____ _____    ______ ____
ROOT
ATOM      1  C   UNL     1       2.557   1.670  18.806  0.00  0.00    +0.000 C 
ATOM      2  C   UNL     1       3.327   2.168  17.563  0.00  0.00    +0.000 C 
ATOM      3  N   UNL     1       4.309   3.001  18.196  0.00  0.00    +0.000 N 
ATOM      4  C   UNL     1       4.357   2.773  19.522  0.00  0.00    +0.000 A 
ATOM      5  N   UNL     1       5.242   3.517  20.130  0.00  0.00    +0.000 NA
ATOM      6  C   UNL     1       5.754   4.307  19.099  0.00  0.00    +0.000 A 
ATOM      7  C   UNL     1       6.751   5.357  19.168  0.00  0.00    +0.000 A 
ATOM      8  O   UNL     1       7.317   5.663  20.213  0.00  0.00    +0.000 OA
ATOM      9  N   UNL     1       7.008   5.991  17.946  0.00  0.00    +0.000 N 
ATOM     10  C   UNL     1       7.991   7.056  17.901  0.00  0.00    +0.000 C 
ATOM     11  C   UNL     1       6.401   5.701  16.733  0.00  0.00    +0.000 A 
ATOM     12  O   UNL     1       6.630   6.275  15.676  0.00  0.00    +0.000 OA
ATOM     13  N   UNL     1       5.425   4.644  16.724  0.00  0.00    +0.000 N 
ATOM     14  C   UNL     1       4.745   4.298  15.473  0.00  0.00    +0.000 C 
ATOM     15  C   UNL     1       5.152   3.997  17.899  0.00  0.00    +0.000 A 
ATOM     16  O   UNL     1       3.448   1.911  19.954  0.00  0.00    +0.000 OA
ENDROOT
BRANCH   1  17
ATOM     17  C   UNL     1       1.240   2.448  18.986  0.00  0.00    +0.000 C 
BRANCH  17  18
ATOM     18  O   UNL     1       1.464   3.502  19.918  0.00  0.00    +0.000 OA
BRANCH  18  22
ATOM     19  C   UNL     1       2.188   7.402  18.613  0.00  0.00    +0.000 A 
ATOM     20  C   UNL     1       2.192   7.049  19.966  0.00  0.00    +0.000 A 
ATOM     21  C   UNL     1       1.931   5.733  20.352  0.00  0.00    +0.000 A 
ATOM     22  C   UNL     1       1.654   4.752  19.400  0.00  0.00    +0.000 A 
ATOM     23  C   UNL     1       1.654   5.094  18.048  0.00  0.00    +0.000 A 
ATOM     24  C   UNL     1       1.926   6.412  17.658  0.00  0.00    +0.000 A 
BRANCH  19  26
ATOM     25  C   UNL     1       1.241   9.690  18.173  0.00  0.00    +0.000 C 
ATOM     26  C   UNL     1       2.488   8.819  18.195  0.00  0.00    +0.000 C 
ENDBRANCH  19  26
ENDBRANCH  18  22
ENDBRANCH  17  18
ENDBRANCH   1  17
TORSDOF 4
ENDMDL
MODEL 4
REMARK VINA RESULT:      -7.3      2.622      6.998
REMARK  Name = 
REMARK  7 active torsions:
REMARK  status: ('A' for Active; 'I' for Inactive)
REMARK    1  A    between atoms: C_1  and  C_2
REMARK    2  A    between atoms: C_2  and  C_3
REMARK    3  A    between atoms: C_6  and  O_7
REMARK    4  A    between atoms: O_7  and  C_8
REMARK    5  A    between atoms: C_8  and  C_9
REMARK    6  A    between atoms: N_17  and  C_18
REMARK    7  A    between atoms: N_21  and  C_22
REMARK                            x       y       z     vdW  Elec       q    Type
REMARK                         _______ _______ _______ _____ _____    ______ ____
ROOT
ATOM      1  C   UNL     1       2.706   1.545  18.582  0.00  0.00    +0.000 C 
ATOM      2  C   UNL     1       3.491   2.110  17.378  0.00  0.00    +0.000 C 
ATOM      3  N   UNL     1       4.419   2.963  18.066  0.00  0.00    +0.000 N 
ATOM      4  C   UNL     1       4.437   2.698  19.385  0.00  0.00    +0.000 A 
ATOM      5  N   UNL     1       5.272   3.458  20.041  0.00  0.00    +0.000 NA
ATOM      6  C   UNL     1       5.782   4.298  19.050  0.00  0.00    +0.000 A 
ATOM      7  C   UNL     1       6.732   5.385  19.180  0.00  0.00    +0.000 A 
ATOM      8  O   UNL     1       7.254   5.682  20.250  0.00  0.00    +0.000 OA
ATOM      9  N   UNL     1       7.000   6.065  17.984  0.00  0.00    +0.000 N 
ATOM     10  C   UNL     1       7.939   7.169  18.001  0.00  0.00    +0.000 C 
ATOM     11  C   UNL     1       6.441   5.786  16.746  0.00  0.00    +0.000 A 
ATOM     12  O   UNL     1       6.678   6.401  15.713  0.00  0.00    +0.000 OA
ATOM     13  N   UNL     1       5.510   4.693  16.676  0.00  0.00    +0.000 N 
ATOM     14  C   UNL     1       4.882   4.357  15.395  0.00  0.00    +0.000 C 
ATOM     15  C   UNL     1       5.229   4.001  17.823  0.00  0.00    +0.000 A 
ATOM     16  O   UNL     1       3.551   1.787  19.763  0.00  0.00    +0.000 OA
ENDROOT
BRANCH   1  17
ATOM     17  C   UNL     1       1.353   2.264  18.743  0.00  0.00    +0.000 C 
BRANCH  17  18
ATOM     18  O   UNL     1       1.363   3.431  17.926  0.00  0.00    +0.000 OA
BRANCH  18  22
ATOM     19  C   UNL     1       1.822   6.930  20.158  0.00  0.00    +0.000 A 
ATOM     20  C   UNL     1       1.291   5.757  20.701  0.00  0.00    +0.000 A 
ATOM     21  C   UNL     1       1.145   4.616  19.909  0.00  0.00    +0.000 A 
ATOM     22  C   UNL     1       1.518   4.629  18.566  0.00  0.00    +0.000 A 
ATOM     23  C   UNL     1       2.054   5.793  18.017  0.00  0.00    +0.000 A 
ATOM     24  C   UNL     1       2.211   6.936  18.813  0.00  0.00    +0.000 A 
BRANCH  19  26
ATOM     25  C   UNL     1       0.693   8.593  21.671  0.00  0.00    +0.000 C 
ATOM     26  C   UNL     1       1.996   8.156  21.018  0.00  0.00    +0.000 C 
ENDBRANCH  19  26
ENDBRANCH  18  22
ENDBRANCH  17  18
ENDBRANCH   1  17
TORSDOF 4
ENDMDL
MODEL 5
REMARK VINA RESULT:      -7.3      4.702      8.383
REMARK  Name = 
REMARK  7 active torsions:
REMARK  status: ('A' for Active; 'I' for Inactive)
REMARK    1  A    between atoms: C_1  and  C_2
REMARK    2  A    between atoms: C_2  and  C_3
REMARK    3  A    between atoms: C_6  and  O_7
REMARK    4  A    between atoms: O_7  and  C_8
REMARK    5  A    between atoms: C_8  and  C_9
REMARK    6  A    between atoms: N_17  and  C_18
REMARK    7  A    between atoms: N_21  and  C_22
REMARK                            x       y       z     vdW  Elec       q    Type
REMARK                         _______ _______ _______ _____ _____    ______ ____
ROOT
ATOM      1  C   UNL     1       2.009   9.218  18.615  0.00  0.00    +0.000 C 
ATOM      2  C   UNL     1       1.958   8.054  19.629  0.00  0.00    +0.000 C 
ATOM      3  N   UNL     1       2.601   7.027  18.860  0.00  0.00    +0.000 N 
ATOM      4  C   UNL     1       3.222   7.542  17.783  0.00  0.00    +0.000 A 
ATOM      5  N   UNL     1       3.818   6.633  17.060  0.00  0.00    +0.000 NA
ATOM      6  C   UNL     1       3.499   5.445  17.721  0.00  0.00    +0.000 A 
ATOM      7  C   UNL     1       3.851   4.084  17.364  0.00  0.00    +0.000 A 
ATOM      8  O   UNL     1       4.546   3.815  16.390  0.00  0.00    +0.000 OA
ATOM      9  N   UNL     1       3.329   3.109  18.223  0.00  0.00    +0.000 N 
ATOM     10  C   UNL     1       3.622   1.713  17.960  0.00  0.00    +0.000 C 
ATOM     11  C   UNL     1       2.532   3.342  19.335  0.00  0.00    +0.000 A 
ATOM     12  O   UNL     1       2.074   2.474  20.067  0.00  0.00    +0.000 OA
ATOM     13  N   UNL     1       2.222   4.712  19.643  0.00  0.00    +0.000 N 
ATOM     14  C   UNL     1       1.378   5.020  20.801  0.00  0.00    +0.000 C 
ATOM     15  C   UNL     1       2.720   5.694  18.830  0.00  0.00    +0.000 A 
ATOM     16  O   UNL     1       3.034   8.846  17.626  0.00  0.00    +0.000 OA
ENDROOT
BRANCH   1  17
ATOM     17  C   UNL     1       0.646   9.403  17.920  0.00  0.00    +0.000 C 
BRANCH  17  18
ATOM     18  O   UNL     1      -0.106  10.364  18.654  0.00  0.00    +0.000 OA
BRANCH  18  22
ATOM     19  C   UNL     1      -4.069  11.212  17.646  0.00  0.00    +0.000 A 
ATOM     20  C   UNL     1      -3.405  11.856  18.695  0.00  0.00    +0.000 A 
ATOM     21  C   UNL     1      -2.084  11.527  19.001  0.00  0.00    +0.000 A 
ATOM     22  C   UNL     1      -1.406  10.549  18.274  0.00  0.00    +0.000 A 
ATOM     23  C   UNL     1      -2.058   9.905  17.223  0.00  0.00    +0.000 A 
ATOM     24  C   UNL     1      -3.382  10.241  16.908  0.00  0.00    +0.000 A 
BRANCH  19  26
ATOM     25  C   UNL     1      -6.493  10.966  18.269  0.00  0.00    +0.000 C 
ATOM     26  C   UNL     1      -5.490  11.581  17.304  0.00  0.00    +0.000 C 
ENDBRANCH  19  26
ENDBRANCH  18  22
ENDBRANCH  17  18
ENDBRANCH   1  17
TORSDOF 4
ENDMDL
MODEL 6
REMARK VINA RESULT:      -7.1      6.060      9.082
REMARK  Name = 
REMARK  7 active torsions:
REMARK  status: ('A' for Active; 'I' for Inactive)
REMARK    1  A    between atoms: C_1  and  C_2
REMARK    2  A    between atoms: C_2  and  C_3
REMARK    3  A    between atoms: C_6  and  O_7
REMARK    4  A    between atoms: O_7  and  C_8
REMARK    5  A    between atoms: C_8  and  C_9
REMARK    6  A    between atoms: N_17  and  C_18
REMARK    7  A    between atoms: N_21  and  C_22
REMARK                            x       y       z     vdW  Elec       q    Type
REMARK                         _______ _______ _______ _____ _____    ______ ____
ROOT
ATOM      1  C   UNL     1       1.151  10.060  19.283  0.00  0.00    +0.000 C 
ATOM      2  C   UNL     1      -0.008  10.070  18.263  0.00  0.00    +0.000 C 
ATOM      3  N   UNL     1      -0.907  10.977  18.918  0.00  0.00    +0.000 N 
ATOM      4  C   UNL     1      -0.288  11.643  19.911  0.00  0.00    +0.000 A 
ATOM      5  N   UNL     1      -1.079  12.478  20.529  0.00  0.00    +0.000 NA
ATOM      6  C   UNL     1      -2.307  12.278  19.894  0.00  0.00    +0.000 A 
ATOM      7  C   UNL     1      -3.586  12.902  20.174  0.00  0.00    +0.000 A 
ATOM      8  O   UNL     1      -3.728  13.760  21.040  0.00  0.00    +0.000 OA
ATOM      9  N   UNL     1      -4.640  12.441  19.375  0.00  0.00    +0.000 N 
ATOM     10  C   UNL     1      -5.964  13.000  19.569  0.00  0.00    +0.000 C 
ATOM     11  C   UNL     1      -4.551  11.472  18.386  0.00  0.00    +0.000 A 
ATOM     12  O   UNL     1      -5.488  11.072  17.706  0.00  0.00    +0.000 OA
ATOM     13  N   UNL     1      -3.256  10.894  18.149  0.00  0.00    +0.000 N 
ATOM     14  C   UNL     1      -3.102   9.860  17.122  0.00  0.00    +0.000 C 
ATOM     15  C   UNL     1      -2.200  11.324  18.906  0.00  0.00    +0.000 A 
ATOM     16  O   UNL     1       0.965  11.260  20.116  0.00  0.00    +0.000 OA
ENDROOT
BRANCH   1  17
ATOM     17  C   UNL     1       1.104   8.794  20.159  0.00  0.00    +0.000 C 
BRANCH  17  18
ATOM     18  O   UNL     1       2.311   8.066  19.963  0.00  0.00    +0.000 OA
BRANCH  18  22
ATOM     19  C   UNL     1       1.729   4.061  18.934  0.00  0.00    +0.000 A 
ATOM     20  C   UNL     1       1.432   4.561  20.205  0.00  0.00    +0.000 A 
ATOM     21  C   UNL     1       1.657   5.906  20.504  0.00  0.00    +0.000 A 
ATOM     22  C   UNL     1       2.188   6.769  19.546  0.00  0.00    +0.000 A 
ATOM     23  C   UNL     1       2.481   6.280  18.274  0.00  0.00    +0.000 A 
ATOM     24  C   UNL     1       2.246   4.933  17.969  0.00  0.00    +0.000 A 
BRANCH  19  26
ATOM     25  C   UNL     1       2.634   1.967  17.873  0.00  0.00    +0.000 C 
ATOM     26  C   UNL     1       1.468   2.612  18.606  0.00  0.00    +0.000 C 
ENDBRANCH  19  26
ENDBRANCH  18  22
ENDBRANCH  17  18
ENDBRANCH   1  17
TORSDOF 4
ENDMDL
MODEL 7
REMARK VINA RESULT:      -7.1      5.994      9.066
REMARK  Name = 
REMARK  7 active torsions:
REMARK  status: ('A' for Active; 'I' for Inactive)
REMARK    1  A    between atoms: C_1  and  C_2
REMARK    2  A    between atoms: C_2  and  C_3
REMARK    3  A    between atoms: C_6  and  O_7
REMARK    4  A    between atoms: O_7  and  C_8
REMARK    5  A    between atoms: C_8  and  C_9
REMARK    6  A    between atoms: N_17  and  C_18
REMARK    7  A    between atoms: N_21  and  C_22
REMARK                            x       y       z     vdW  Elec       q    Type
REMARK                         _______ _______ _______ _____ _____    ______ ____
ROOT
ATOM      1  C   UNL     1       1.061   9.979  20.042  0.00  0.00    +0.000 C 
ATOM      2  C   UNL     1       0.240  10.125  18.743  0.00  0.00    +0.000 C 
ATOM      3  N   UNL     1      -0.849  10.924  19.226  0.00  0.00    +0.000 N 
ATOM      4  C   UNL     1      -0.570  11.447  20.434  0.00  0.00    +0.000 A 
ATOM      5  N   UNL     1      -1.543  12.182  20.904  0.00  0.00    +0.000 NA
ATOM      6  C   UNL     1      -2.529  12.066  19.922  0.00  0.00    +0.000 A 
ATOM      7  C   UNL     1      -3.862  12.635  19.902  0.00  0.00    +0.000 A 
ATOM      8  O   UNL     1      -4.285  13.361  20.796  0.00  0.00    +0.000 OA
ATOM      9  N   UNL     1      -4.623  12.284  18.779  0.00  0.00    +0.000 N 
ATOM     10  C   UNL     1      -5.972  12.802  18.656  0.00  0.00    +0.000 C 
ATOM     11  C   UNL     1      -4.211  11.465  17.738  0.00  0.00    +0.000 A 
ATOM     12  O   UNL     1      -4.895  11.160  16.769  0.00  0.00    +0.000 OA
ATOM     13  N   UNL     1      -2.876  10.935  17.809  0.00  0.00    +0.000 N 
ATOM     14  C   UNL     1      -2.388  10.058  16.741  0.00  0.00    +0.000 C 
ATOM     15  C   UNL     1      -2.100  11.261  18.888  0.00  0.00    +0.000 A 
ATOM     16  O   UNL     1       0.589  11.047  20.939  0.00  0.00    +0.000 OA
ENDROOT
BRANCH   1  17
ATOM     17  C   UNL     1       0.826   8.602  20.691  0.00  0.00    +0.000 C 
BRANCH  17  18
ATOM     18  O   UNL     1       2.060   7.893  20.702  0.00  0.00    +0.000 OA
BRANCH  18  22
ATOM     19  C   UNL     1       2.446   4.546  18.235  0.00  0.00    +0.000 A 
ATOM     20  C   UNL     1       2.778   5.835  17.809  0.00  0.00    +0.000 A 
ATOM     21  C   UNL     1       2.618   6.924  18.668  0.00  0.00    +0.000 A 
ATOM     22  C   UNL     1       2.120   6.747  19.958  0.00  0.00    +0.000 A 
ATOM     23  C   UNL     1       1.792   5.464  20.393  0.00  0.00    +0.000 A 
ATOM     24  C   UNL     1       1.961   4.368  19.536  0.00  0.00    +0.000 A 
BRANCH  19  26
ATOM     25  C   UNL     1       2.523   2.039  18.046  0.00  0.00    +0.000 C 
ATOM     26  C   UNL     1       2.637   3.367  17.314  0.00  0.00    +0.000 C 
ENDBRANCH  19  26
ENDBRANCH  18  22
ENDBRANCH  17  18
ENDBRANCH   1  17
TORSDOF 4
ENDMDL
MODEL 8
REMARK VINA RESULT:      -7.1      0.531      1.083
REMARK  Name = 
REMARK  7 active torsions:
REMARK  status: ('A' for Active; 'I' for Inactive)
REMARK    1  A    between atoms: C_1  and  C_2
REMARK    2  A    between atoms: C_2  and  C_3
REMARK    3  A    between atoms: C_6  and  O_7
REMARK    4  A    between atoms: O_7  and  C_8
REMARK    5  A    between atoms: C_8  and  C_9
REMARK    6  A    between atoms: N_17  and  C_18
REMARK    7  A    between atoms: N_21  and  C_22
REMARK                            x       y       z     vdW  Elec       q    Type
REMARK                         _______ _______ _______ _____ _____    ______ ____
ROOT
ATOM      1  C   UNL     1       7.009   6.440  17.368  0.00  0.00    +0.000 C 
ATOM      2  C   UNL     1       5.836   6.859  18.281  0.00  0.00    +0.000 C 
ATOM      3  N   UNL     1       5.303   5.567  18.608  0.00  0.00    +0.000 N 
ATOM      4  C   UNL     1       6.164   4.588  18.276  0.00  0.00    +0.000 A 
ATOM      5  N   UNL     1       5.709   3.397  18.561  0.00  0.00    +0.000 NA
ATOM      6  C   UNL     1       4.436   3.659  19.071  0.00  0.00    +0.000 A 
ATOM      7  C   UNL     1       3.429   2.721  19.526  0.00  0.00    +0.000 A 
ATOM      8  O   UNL     1       3.616   1.508  19.544  0.00  0.00    +0.000 OA
ATOM      9  N   UNL     1       2.230   3.316  19.940  0.00  0.00    +0.000 N 
ATOM     10  C   UNL     1       1.155   2.468  20.417  0.00  0.00    +0.000 C 
ATOM     11  C   UNL     1       1.951   4.674  19.938  0.00  0.00    +0.000 A 
ATOM     12  O   UNL     1       0.891   5.175  20.292  0.00  0.00    +0.000 OA
ATOM     13  N   UNL     1       2.990   5.557  19.483  0.00  0.00    +0.000 N 
ATOM     14  C   UNL     1       2.750   7.003  19.452  0.00  0.00    +0.000 C 
ATOM     15  C   UNL     1       4.178   5.013  19.077  0.00  0.00    +0.000 A 
ATOM     16  O   UNL     1       7.254   5.017  17.655  0.00  0.00    +0.000 OA
ENDROOT
BRANCH   1  17
ATOM     17  C   UNL     1       6.645   6.626  15.883  0.00  0.00    +0.000 C 
BRANCH  17  18
ATOM     18  O   UNL     1       7.486   5.781  15.105  0.00  0.00    +0.000 OA
BRANCH  18  22
ATOM     19  C   UNL     1       5.873   3.163  12.278  0.00  0.00    +0.000 A 
ATOM     20  C   UNL     1       7.045   3.891  12.047  0.00  0.00    +0.000 A 
ATOM     21  C   UNL     1       7.536   4.764  13.019  0.00  0.00    +0.000 A 
ATOM     22  C   UNL     1       6.866   4.931  14.231  0.00  0.00    +0.000 A 
ATOM     23  C   UNL     1       5.701   4.205  14.472  0.00  0.00    +0.000 A 
ATOM     24  C   UNL     1       5.211   3.321  13.502  0.00  0.00    +0.000 A 
BRANCH  19  26
ATOM     25  C   UNL     1       6.248   0.987  11.075  0.00  0.00    +0.000 C 
ATOM     26  C   UNL     1       5.353   2.207  11.235  0.00  0.00    +0.000 C 
ENDBRANCH  19  26
ENDBRANCH  18  22
ENDBRANCH  17  18
ENDBRANCH   1  17
TORSDOF 4
ENDMDL
MODEL 9
REMARK VINA RESULT:      -7.0      6.378      9.340
REMARK  Name = 
REMARK  7 active torsions:
REMARK  status: ('A' for Active; 'I' for Inactive)
REMARK    1  A    between atoms: C_1  and  C_2
REMARK    2  A    between atoms: C_2  and  C_3
REMARK    3  A    between atoms: C_6  and  O_7
REMARK    4  A    between atoms: O_7  and  C_8
REMARK    5  A    between atoms: C_8  and  C_9
REMARK    6  A    between atoms: N_17  and  C_18
REMARK    7  A    between atoms: N_21  and  C_22
REMARK                            x       y       z     vdW  Elec       q    Type
REMARK                         _______ _______ _______ _____ _____    ______ ____
ROOT
ATOM      1  C   UNL     1       0.965   9.908  21.169  0.00  0.00    +0.000 C 
ATOM      2  C   UNL     1       0.111  10.812  20.255  0.00  0.00    +0.000 C 
ATOM      3  N   UNL     1      -0.828  11.320  21.214  0.00  0.00    +0.000 N 
ATOM      4  C   UNL     1      -0.418  11.074  22.472  0.00  0.00    +0.000 A 
ATOM      5  N   UNL     1      -1.251  11.524  23.372  0.00  0.00    +0.000 NA
ATOM      6  C   UNL     1      -2.290  12.054  22.604  0.00  0.00    +0.000 A 
ATOM      7  C   UNL     1      -3.527  12.666  23.048  0.00  0.00    +0.000 A 
ATOM      8  O   UNL     1      -3.797  12.826  24.234  0.00  0.00    +0.000 OA
ATOM      9  N   UNL     1      -4.384  13.054  22.010  0.00  0.00    +0.000 N 
ATOM     10  C   UNL     1      -5.649  13.680  22.343  0.00  0.00    +0.000 C 
ATOM     11  C   UNL     1      -4.145  12.897  20.653  0.00  0.00    +0.000 A 
ATOM     12  O   UNL     1      -4.913  13.232  19.760  0.00  0.00    +0.000 OA
ATOM     13  N   UNL     1      -2.898  12.290  20.272  0.00  0.00    +0.000 N 
ATOM     14  C   UNL     1      -2.594  12.091  18.852  0.00  0.00    +0.000 C 
ATOM     15  C   UNL     1      -2.032  11.903  21.259  0.00  0.00    +0.000 A 
ATOM     16  O   UNL     1       0.695  10.357  22.546  0.00  0.00    +0.000 OA
ENDROOT
BRANCH   1  17
ATOM     17  C   UNL     1       0.566   8.428  21.009  0.00  0.00    +0.000 C 
BRANCH  17  18
ATOM     18  O   UNL     1       1.732   7.628  21.175  0.00  0.00    +0.000 OA
BRANCH  18  22
ATOM     19  C   UNL     1       2.379   4.660  18.309  0.00  0.00    +0.000 A 
ATOM     20  C   UNL     1       1.921   4.373  19.598  0.00  0.00    +0.000 A 
ATOM     21  C   UNL     1       1.733   5.400  20.525  0.00  0.00    +0.000 A 
ATOM     22  C   UNL     1       2.005   6.725  20.185  0.00  0.00    +0.000 A 
ATOM     23  C   UNL     1       2.456   7.021  18.900  0.00  0.00    +0.000 A 
ATOM     24  C   UNL     1       2.636   5.993  17.965  0.00  0.00    +0.000 A 
BRANCH  19  26
ATOM     25  C   UNL     1       2.499   2.175  17.943  0.00  0.00    +0.000 C 
ATOM     26  C   UNL     1       2.563   3.553  17.302  0.00  0.00    +0.000 C 
ENDBRANCH  19  26
ENDBRANCH  18  22
ENDBRANCH  17  18
ENDBRANCH   1  17
TORSDOF 4
ENDMDL
