MODEL 1
REMARK VINA RESULT:      -7.9      0.000      0.000
REMARK  Name = 
REMARK  6 active torsions:
REMARK  status: ('A' for Active; 'I' for Inactive)
REMARK    1  A    between atoms: C_1  and  N_2
REMARK    2  A    between atoms: N_2  and  C_18
REMARK    3  A    between atoms: C_3  and  C_5
REMARK    4  A    between atoms: C_9  and  C_10
REMARK    5  A    between atoms: C_13  and  O_14
REMARK    6  A    between atoms: C_22  and  O_23
REMARK                            x       y       z     vdW  Elec       q    Type
REMARK                         _______ _______ _______ _____ _____    ______ ____
ROOT
ATOM      1  C   UNL     1       2.173   6.721  20.027  0.00  0.00    +0.000 A 
ATOM      2  C   UNL     1       1.715   5.557  20.653  0.00  0.00    +0.000 A 
ATOM      3  C   UNL     1       2.292   4.323  20.352  0.00  0.00    +0.000 A 
ATOM      4  C   UNL     1       3.314   4.243  19.402  0.00  0.00    +0.000 A 
ATOM      5  C   UNL     1       3.812   5.395  18.763  0.00  0.00    +0.000 A 
ATOM      6  C   UNL     1       3.255   6.632  19.150  0.00  0.00    +0.000 A 
ENDROOT
BRANCH   5   7
ATOM      7  C   UNL     1       4.852   5.327  17.704  0.00  0.00    +0.000 A 
ATOM      8  C   UNL     1       4.685   4.539  16.547  0.00  0.00    +0.000 A 
ATOM      9  C   UNL     1       5.654   4.503  15.536  0.00  0.00    +0.000 A 
ATOM     10  C   UNL     1       6.802   5.273  15.660  0.00  0.00    +0.000 A 
ATOM     11  C   UNL     1       6.995   6.073  16.774  0.00  0.00    +0.000 A 
ATOM     12  C   UNL     1       6.035   6.089  17.788  0.00  0.00    +0.000 A 
BRANCH  10  13
ATOM     13  O   UNL     1       7.773   5.272  14.706  0.00  0.00    +0.000 OA
ATOM     14  H   UNL     1       8.098   4.364  14.594  0.00  0.00    +0.000 HD
ENDBRANCH  10  13
ENDBRANCH   5   7
BRANCH   1  17
ATOM     15  C   UNL     1       1.660   8.940  18.028  0.00  0.00    +0.000 C 
ATOM     16  N   UNL     1       1.267   9.021  19.441  0.00  0.00    +0.000 N 
ATOM     17  C   UNL     1       1.541   8.018  20.403  0.00  0.00    +0.000 C 
ATOM     18  O   UNL     1       1.291   8.116  21.607  0.00  0.00    +0.000 OA
BRANCH  16  19
ATOM     19  C   UNL     1       0.526  10.216  19.800  0.00  0.00    +0.000 A 
ATOM     20  C   UNL     1      -0.782  10.442  19.344  0.00  0.00    +0.000 A 
ATOM     21  C   UNL     1      -1.462  11.630  19.635  0.00  0.00    +0.000 A 
ATOM     22  C   UNL     1      -0.850  12.629  20.382  0.00  0.00    +0.000 A 
ATOM     23  C   UNL     1       0.440  12.421  20.843  0.00  0.00    +0.000 A 
ATOM     24  C   UNL     1       1.119  11.235  20.564  0.00  0.00    +0.000 A 
BRANCH  23  25
ATOM     25  O   UNL     1       1.095  13.370  21.572  0.00  0.00    +0.000 OA
ATOM     26  H   UNL     1       2.023  13.099  21.665  0.00  0.00    +0.000 HD
ENDBRANCH  23  25
ENDBRANCH  16  19
ENDBRANCH   1  17
TORSDOF 5
ENDMDL
MODEL 2
REMARK VINA RESULT:      -7.8      3.014      8.638
REMARK  Name = 
REMARK  6 active torsions:
REMARK  status: ('A' for Active; 'I' for Inactive)
REMARK    1  A    between atoms: C_1  and  N_2
REMARK    2  A    between atoms: N_2  and  C_18
REMARK    3  A    between atoms: C_3  and  C_5
REMARK    4  A    between atoms: C_9  and  C_10
REMARK    5  A    between atoms: C_13  and  O_14
REMARK    6  A    between atoms: C_22  and  O_23
REMARK                            x       y       z     vdW  Elec       q    Type
REMARK                         _______ _______ _______ _____ _____    ______ ____
ROOT
ATOM      1  C   UNL     1       1.363   9.799  18.288  0.00  0.00    +0.000 A 
ATOM      2  C   UNL     1       2.081  10.888  18.796  0.00  0.00    +0.000 A 
ATOM      3  C   UNL     1       1.431  12.091  19.069  0.00  0.00    +0.000 A 
ATOM      4  C   UNL     1       0.064  12.222  18.810  0.00  0.00    +0.000 A 
ATOM      5  C   UNL     1      -0.694  11.144  18.313  0.00  0.00    +0.000 A 
ATOM      6  C   UNL     1      -0.017   9.921  18.122  0.00  0.00    +0.000 A 
ENDROOT
BRANCH   5   7
ATOM      7  C   UNL     1      -2.133  11.278  17.969  0.00  0.00    +0.000 A 
ATOM      8  C   UNL     1      -2.639  10.872  16.717  0.00  0.00    +0.000 A 
ATOM      9  C   UNL     1      -4.003  10.972  16.409  0.00  0.00    +0.000 A 
ATOM     10  C   UNL     1      -4.886  11.463  17.360  0.00  0.00    +0.000 A 
ATOM     11  C   UNL     1      -4.429  11.856  18.607  0.00  0.00    +0.000 A 
ATOM     12  C   UNL     1      -3.067  11.774  18.902  0.00  0.00    +0.000 A 
BRANCH  10  13
ATOM     13  O   UNL     1      -6.218  11.578  17.109  0.00  0.00    +0.000 OA
ATOM     14  H   UNL     1      -6.581  10.693  16.942  0.00  0.00    +0.000 HD
ENDBRANCH  10  13
ENDBRANCH   5   7
BRANCH   1  17
ATOM     15  C   UNL     1       1.678   7.642  20.393  0.00  0.00    +0.000 C 
ATOM     16  N   UNL     1       2.191   7.513  19.023  0.00  0.00    +0.000 N 
ATOM     17  C   UNL     1       2.100   8.526  18.038  0.00  0.00    +0.000 C 
ATOM     18  O   UNL     1       2.603   8.458  16.914  0.00  0.00    +0.000 OA
BRANCH  16  19
ATOM     19  C   UNL     1       2.790   6.227  18.717  0.00  0.00    +0.000 A 
ATOM     20  C   UNL     1       2.085   5.226  18.029  0.00  0.00    +0.000 A 
ATOM     21  C   UNL     1       2.645   3.963  17.802  0.00  0.00    +0.000 A 
ATOM     22  C   UNL     1       3.921   3.663  18.263  0.00  0.00    +0.000 A 
ATOM     23  C   UNL     1       4.632   4.641  18.940  0.00  0.00    +0.000 A 
ATOM     24  C   UNL     1       4.083   5.904  19.161  0.00  0.00    +0.000 A 
BRANCH  23  25
ATOM     25  O   UNL     1       5.884   4.400  19.425  0.00  0.00    +0.000 OA
ATOM     26  H   UNL     1       6.526   4.586  18.720  0.00  0.00    +0.000 HD
ENDBRANCH  23  25
ENDBRANCH  16  19
ENDBRANCH   1  17
TORSDOF 5
ENDMDL
MODEL 3
REMARK VINA RESULT:      -7.8      3.126      8.790
REMARK  Name = 
REMARK  6 active torsions:
REMARK  status: ('A' for Active; 'I' for Inactive)
REMARK    1  A    between atoms: C_1  and  N_2
REMARK    2  A    between atoms: N_2  and  C_18
REMARK    3  A    between atoms: C_3  and  C_5
REMARK    4  A    between atoms: C_9  and  C_10
REMARK    5  A    between atoms: C_13  and  O_14
REMARK    6  A    between atoms: C_22  and  O_23
REMARK                            x       y       z     vdW  Elec       q    Type
REMARK                         _______ _______ _______ _____ _____    ______ ____
ROOT
ATOM      1  C   UNL     1       1.308   9.897  18.301  0.00  0.00    +0.000 A 
ATOM      2  C   UNL     1       2.031  11.029  18.694  0.00  0.00    +0.000 A 
ATOM      3  C   UNL     1       1.377  12.244  18.900  0.00  0.00    +0.000 A 
ATOM      4  C   UNL     1      -0.001  12.340  18.690  0.00  0.00    +0.000 A 
ATOM      5  C   UNL     1      -0.764  11.218  18.311  0.00  0.00    +0.000 A 
ATOM      6  C   UNL     1      -0.079   9.992  18.185  0.00  0.00    +0.000 A 
ENDROOT
BRANCH   5   7
ATOM      7  C   UNL     1      -2.218  11.311  18.019  0.00  0.00    +0.000 A 
ATOM      8  C   UNL     1      -3.137  11.807  18.967  0.00  0.00    +0.000 A 
ATOM      9  C   UNL     1      -4.502  11.922  18.676  0.00  0.00    +0.000 A 
ATOM     10  C   UNL     1      -4.968  11.558  17.420  0.00  0.00    +0.000 A 
ATOM     11  C   UNL     1      -4.095  11.082  16.457  0.00  0.00    +0.000 A 
ATOM     12  C   UNL     1      -2.738  10.950  16.759  0.00  0.00    +0.000 A 
BRANCH  10  13
ATOM     13  O   UNL     1      -6.285  11.652  17.089  0.00  0.00    +0.000 OA
ATOM     14  H   UNL     1      -6.357  11.756  16.127  0.00  0.00    +0.000 HD
ENDBRANCH  10  13
ENDBRANCH   5   7
BRANCH   1  17
ATOM     15  C   UNL     1       1.592   7.835  20.504  0.00  0.00    +0.000 C 
ATOM     16  N   UNL     1       2.128   7.647  19.149  0.00  0.00    +0.000 N 
ATOM     17  C   UNL     1       2.051   8.616  18.120  0.00  0.00    +0.000 C 
ATOM     18  O   UNL     1       2.574   8.500  17.008  0.00  0.00    +0.000 OA
BRANCH  16  19
ATOM     19  C   UNL     1       2.734   6.350  18.909  0.00  0.00    +0.000 A 
ATOM     20  C   UNL     1       4.016   6.033  19.383  0.00  0.00    +0.000 A 
ATOM     21  C   UNL     1       4.622   4.807  19.084  0.00  0.00    +0.000 A 
ATOM     22  C   UNL     1       3.966   3.868  18.298  0.00  0.00    +0.000 A 
ATOM     23  C   UNL     1       2.697   4.164  17.826  0.00  0.00    +0.000 A 
ATOM     24  C   UNL     1       2.085   5.380  18.128  0.00  0.00    +0.000 A 
BRANCH  23  25
ATOM     25  O   UNL     1       2.010   3.284  17.042  0.00  0.00    +0.000 OA
ATOM     26  H   UNL     1       2.393   3.304  16.150  0.00  0.00    +0.000 HD
ENDBRANCH  23  25
ENDBRANCH  16  19
ENDBRANCH   1  17
TORSDOF 5
ENDMDL
MODEL 4
REMARK VINA RESULT:      -7.8      1.039      1.425
REMARK  Name = 
REMARK  6 active torsions:
REMARK  status: ('A' for Active; 'I' for Inactive)
REMARK    1  A    between atoms: C_1  and  N_2
REMARK    2  A    between atoms: N_2  and  C_18
REMARK    3  A    between atoms: C_3  and  C_5
REMARK    4  A    between atoms: C_9  and  C_10
REMARK    5  A    between atoms: C_13  and  O_14
REMARK    6  A    between atoms: C_22  and  O_23
REMARK                            x       y       z     vdW  Elec       q    Type
REMARK                         _______ _______ _______ _____ _____    ______ ____
ROOT
ATOM      1  C   UNL     1       2.143   6.804  19.955  0.00  0.00    +0.000 A 
ATOM      2  C   UNL     1       1.724   5.658  20.640  0.00  0.00    +0.000 A 
ATOM      3  C   UNL     1       2.334   4.429  20.391  0.00  0.00    +0.000 A 
ATOM      4  C   UNL     1       3.350   4.334  19.436  0.00  0.00    +0.000 A 
ATOM      5  C   UNL     1       3.809   5.468  18.739  0.00  0.00    +0.000 A 
ATOM      6  C   UNL     1       3.219   6.705  19.072  0.00  0.00    +0.000 A 
ENDROOT
BRANCH   5   7
ATOM      7  C   UNL     1       4.842   5.380  17.674  0.00  0.00    +0.000 A 
ATOM      8  C   UNL     1       4.642   4.615  16.506  0.00  0.00    +0.000 A 
ATOM      9  C   UNL     1       5.606   4.561  15.490  0.00  0.00    +0.000 A 
ATOM     10  C   UNL     1       6.779   5.290  15.620  0.00  0.00    +0.000 A 
ATOM     11  C   UNL     1       7.004   6.067  16.744  0.00  0.00    +0.000 A 
ATOM     12  C   UNL     1       6.050   6.101  17.763  0.00  0.00    +0.000 A 
BRANCH  10  13
ATOM     13  O   UNL     1       7.745   5.270  14.661  0.00  0.00    +0.000 OA
ATOM     14  H   UNL     1       7.792   4.376  14.286  0.00  0.00    +0.000 HD
ENDBRANCH  10  13
ENDBRANCH   5   7
BRANCH   1  17
ATOM     15  C   UNL     1       1.820   9.035  17.928  0.00  0.00    +0.000 C 
ATOM     16  N   UNL     1       1.293   9.107  19.298  0.00  0.00    +0.000 N 
ATOM     17  C   UNL     1       1.475   8.099  20.276  0.00  0.00    +0.000 C 
ATOM     18  O   UNL     1       1.111   8.190  21.451  0.00  0.00    +0.000 OA
BRANCH  16  19
ATOM     19  C   UNL     1       0.521  10.299  19.591  0.00  0.00    +0.000 A 
ATOM     20  C   UNL     1       1.018  11.321  20.415  0.00  0.00    +0.000 A 
ATOM     21  C   UNL     1       0.237  12.433  20.750  0.00  0.00    +0.000 A 
ATOM     22  C   UNL     1      -1.064  12.552  20.278  0.00  0.00    +0.000 A 
ATOM     23  C   UNL     1      -1.569  11.554  19.460  0.00  0.00    +0.000 A 
ATOM     24  C   UNL     1      -0.793  10.448  19.115  0.00  0.00    +0.000 A 
BRANCH  23  25
ATOM     25  O   UNL     1      -2.843  11.612  18.975  0.00  0.00    +0.000 OA
ATOM     26  H   UNL     1      -3.090  10.728  18.657  0.00  0.00    +0.000 HD
ENDBRANCH  23  25
ENDBRANCH  16  19
ENDBRANCH   1  17
TORSDOF 5
ENDMDL
MODEL 5
REMARK VINA RESULT:      -7.7      1.517      1.987
REMARK  Name = 
REMARK  6 active torsions:
REMARK  status: ('A' for Active; 'I' for Inactive)
REMARK    1  A    between atoms: C_1  and  N_2
REMARK    2  A    between atoms: N_2  and  C_18
REMARK    3  A    between atoms: C_3  and  C_5
REMARK    4  A    between atoms: C_9  and  C_10
REMARK    5  A    between atoms: C_13  and  O_14
REMARK    6  A    between atoms: C_22  and  O_23
REMARK                            x       y       z     vdW  Elec       q    Type
REMARK                         _______ _______ _______ _____ _____    ______ ____
ROOT
ATOM      1  C   UNL     1       2.278   5.356  19.030  0.00  0.00    +0.000 A 
ATOM      2  C   UNL     1       1.598   4.133  19.055  0.00  0.00    +0.000 A 
ATOM      3  C   UNL     1       2.041   3.067  18.272  0.00  0.00    +0.000 A 
ATOM      4  C   UNL     1       3.152   3.226  17.439  0.00  0.00    +0.000 A 
ATOM      5  C   UNL     1       3.871   4.437  17.399  0.00  0.00    +0.000 A 
ATOM      6  C   UNL     1       3.438   5.466  18.261  0.00  0.00    +0.000 A 
ENDROOT
BRANCH   5   7
ATOM      7  C   UNL     1       5.014   4.650  16.475  0.00  0.00    +0.000 A 
ATOM      8  C   UNL     1       5.079   4.019  15.215  0.00  0.00    +0.000 A 
ATOM      9  C   UNL     1       6.144   4.248  14.333  0.00  0.00    +0.000 A 
ATOM     10  C   UNL     1       7.153   5.130  14.693  0.00  0.00    +0.000 A 
ATOM     11  C   UNL     1       7.116   5.782  15.914  0.00  0.00    +0.000 A 
ATOM     12  C   UNL     1       6.063   5.535  16.797  0.00  0.00    +0.000 A 
BRANCH  10  13
ATOM     13  O   UNL     1       8.208   5.387  13.871  0.00  0.00    +0.000 OA
ATOM     14  H   UNL     1       8.128   4.830  13.080  0.00  0.00    +0.000 HD
ENDBRANCH  10  13
ENDBRANCH   5   7
BRANCH   1  17
ATOM     15  C   UNL     1       2.230   8.258  18.157  0.00  0.00    +0.000 C 
ATOM     16  N   UNL     1       1.721   7.797  19.457  0.00  0.00    +0.000 N 
ATOM     17  C   UNL     1       1.779   6.455  19.906  0.00  0.00    +0.000 C 
ATOM     18  O   UNL     1       1.433   6.077  21.028  0.00  0.00    +0.000 OA
BRANCH  16  19
ATOM     19  C   UNL     1       1.105   8.830  20.269  0.00  0.00    +0.000 A 
ATOM     20  C   UNL     1       0.610  10.017  19.708  0.00  0.00    +0.000 A 
ATOM     21  C   UNL     1       0.083  11.038  20.507  0.00  0.00    +0.000 A 
ATOM     22  C   UNL     1       0.045  10.905  21.889  0.00  0.00    +0.000 A 
ATOM     23  C   UNL     1       0.526   9.737  22.459  0.00  0.00    +0.000 A 
ATOM     24  C   UNL     1       1.044   8.713  21.668  0.00  0.00    +0.000 A 
BRANCH  23  25
ATOM     25  O   UNL     1       0.523   9.555  23.812  0.00  0.00    +0.000 OA
ATOM     26  H   UNL     1       0.927   8.693  24.005  0.00  0.00    +0.000 HD
ENDBRANCH  23  25
ENDBRANCH  16  19
ENDBRANCH   1  17
TORSDOF 5
ENDMDL
MODEL 6
REMARK VINA RESULT:      -7.6      0.703      1.013
REMARK  Name = 
REMARK  6 active torsions:
REMARK  status: ('A' for Active; 'I' for Inactive)
REMARK    1  A    between atoms: C_1  and  N_2
REMARK    2  A    between atoms: N_2  and  C_18
REMARK    3  A    between atoms: C_3  and  C_5
REMARK    4  A    between atoms: C_9  and  C_10
REMARK    5  A    between atoms: C_13  and  O_14
REMARK    6  A    between atoms: C_22  and  O_23
REMARK                            x       y       z     vdW  Elec       q    Type
REMARK                         _______ _______ _______ _____ _____    ______ ____
ROOT
ATOM      1  C   UNL     1       2.183   6.666  19.911  0.00  0.00    +0.000 A 
ATOM      2  C   UNL     1       1.916   5.547  20.708  0.00  0.00    +0.000 A 
ATOM      3  C   UNL     1       2.495   4.315  20.406  0.00  0.00    +0.000 A 
ATOM      4  C   UNL     1       3.325   4.188  19.289  0.00  0.00    +0.000 A 
ATOM      5  C   UNL     1       3.630   5.295  18.473  0.00  0.00    +0.000 A 
ATOM      6  C   UNL     1       3.086   6.539  18.854  0.00  0.00    +0.000 A 
ENDROOT
BRANCH   5   7
ATOM      7  C   UNL     1       4.457   5.171  17.244  0.00  0.00    +0.000 A 
ATOM      8  C   UNL     1       4.845   6.299  16.493  0.00  0.00    +0.000 A 
ATOM      9  C   UNL     1       5.651   6.180  15.353  0.00  0.00    +0.000 A 
ATOM     10  C   UNL     1       6.098   4.927  14.958  0.00  0.00    +0.000 A 
ATOM     11  C   UNL     1       5.752   3.797  15.680  0.00  0.00    +0.000 A 
ATOM     12  C   UNL     1       4.931   3.919  16.803  0.00  0.00    +0.000 A 
BRANCH  10  13
ATOM     13  O   UNL     1       6.883   4.759  13.859  0.00  0.00    +0.000 OA
ATOM     14  H   UNL     1       7.784   4.546  14.150  0.00  0.00    +0.000 HD
ENDBRANCH  10  13
ENDBRANCH   5   7
BRANCH   1  17
ATOM     15  C   UNL     1       1.770   8.931  17.940  0.00  0.00    +0.000 C 
ATOM     16  N   UNL     1       1.333   8.991  19.342  0.00  0.00    +0.000 N 
ATOM     17  C   UNL     1       1.560   7.966  20.292  0.00  0.00    +0.000 C 
ATOM     18  O   UNL     1       1.273   8.046  21.490  0.00  0.00    +0.000 OA
BRANCH  16  19
ATOM     19  C   UNL     1       0.600  10.192  19.699  0.00  0.00    +0.000 A 
ATOM     20  C   UNL     1      -0.694  10.441  19.217  0.00  0.00    +0.000 A 
ATOM     21  C   UNL     1      -1.364  11.635  19.508  0.00  0.00    +0.000 A 
ATOM     22  C   UNL     1      -0.756  12.616  20.282  0.00  0.00    +0.000 A 
ATOM     23  C   UNL     1       0.520  12.384  20.769  0.00  0.00    +0.000 A 
ATOM     24  C   UNL     1       1.189  11.193  20.490  0.00  0.00    +0.000 A 
BRANCH  23  25
ATOM     25  O   UNL     1       1.171  13.315  21.525  0.00  0.00    +0.000 OA
ATOM     26  H   UNL     1       1.648  13.915  20.929  0.00  0.00    +0.000 HD
ENDBRANCH  23  25
ENDBRANCH  16  19
ENDBRANCH   1  17
TORSDOF 5
ENDMDL
MODEL 7
REMARK VINA RESULT:      -7.6      2.899      8.784
REMARK  Name = 
REMARK  6 active torsions:
REMARK  status: ('A' for Active; 'I' for Inactive)
REMARK    1  A    between atoms: C_1  and  N_2
REMARK    2  A    between atoms: N_2  and  C_18
REMARK    3  A    between atoms: C_3  and  C_5
REMARK    4  A    between atoms: C_9  and  C_10
REMARK    5  A    between atoms: C_13  and  O_14
REMARK    6  A    between atoms: C_22  and  O_23
REMARK                            x       y       z     vdW  Elec       q    Type
REMARK                         _______ _______ _______ _____ _____    ______ ____
ROOT
ATOM      1  C   UNL     1       0.660   9.923  18.993  0.00  0.00    +0.000 A 
ATOM      2  C   UNL     1       1.043  10.517  20.201  0.00  0.00    +0.000 A 
ATOM      3  C   UNL     1       0.162  11.356  20.883  0.00  0.00    +0.000 A 
ATOM      4  C   UNL     1      -1.101  11.626  20.347  0.00  0.00    +0.000 A 
ATOM      5  C   UNL     1      -1.528  11.034  19.143  0.00  0.00    +0.000 A 
ATOM      6  C   UNL     1      -0.638  10.133  18.523  0.00  0.00    +0.000 A 
ENDROOT
BRANCH   5   7
ATOM      7  C   UNL     1      -2.839  11.356  18.522  0.00  0.00    +0.000 A 
ATOM      8  C   UNL     1      -3.148  10.979  17.199  0.00  0.00    +0.000 A 
ATOM      9  C   UNL     1      -4.397  11.257  16.629  0.00  0.00    +0.000 A 
ATOM     10  C   UNL     1      -5.366  11.903  17.383  0.00  0.00    +0.000 A 
ATOM     11  C   UNL     1      -5.106  12.274  18.692  0.00  0.00    +0.000 A 
ATOM     12  C   UNL     1      -3.853  12.013  19.249  0.00  0.00    +0.000 A 
BRANCH  10  13
ATOM     13  O   UNL     1      -6.594  12.195  16.874  0.00  0.00    +0.000 OA
ATOM     14  H   UNL     1      -7.134  11.388  16.883  0.00  0.00    +0.000 HD
ENDBRANCH  10  13
ENDBRANCH   5   7
BRANCH   1  17
ATOM     15  C   UNL     1       1.723   7.399  20.290  0.00  0.00    +0.000 C 
ATOM     16  N   UNL     1       2.074   7.814  18.925  0.00  0.00    +0.000 N 
ATOM     17  C   UNL     1       1.630   9.014  18.318  0.00  0.00    +0.000 C 
ATOM     18  O   UNL     1       1.989   9.411  17.206  0.00  0.00    +0.000 OA
BRANCH  16  19
ATOM     19  C   UNL     1       2.907   6.874  18.198  0.00  0.00    +0.000 A 
ATOM     20  C   UNL     1       2.579   5.513  18.104  0.00  0.00    +0.000 A 
ATOM     21  C   UNL     1       3.425   4.601  17.463  0.00  0.00    +0.000 A 
ATOM     22  C   UNL     1       4.627   5.022  16.907  0.00  0.00    +0.000 A 
ATOM     23  C   UNL     1       4.964   6.364  16.988  0.00  0.00    +0.000 A 
ATOM     24  C   UNL     1       4.121   7.279  17.617  0.00  0.00    +0.000 A 
BRANCH  23  25
ATOM     25  O   UNL     1       6.135   6.833  16.469  0.00  0.00    +0.000 OA
ATOM     26  H   UNL     1       6.857   6.591  17.072  0.00  0.00    +0.000 HD
ENDBRANCH  23  25
ENDBRANCH  16  19
ENDBRANCH   1  17
TORSDOF 5
ENDMDL
MODEL 8
REMARK VINA RESULT:      -7.5      1.570      2.141
REMARK  Name = 
REMARK  6 active torsions:
REMARK  status: ('A' for Active; 'I' for Inactive)
REMARK    1  A    between atoms: C_1  and  N_2
REMARK    2  A    between atoms: N_2  and  C_18
REMARK    3  A    between atoms: C_3  and  C_5
REMARK    4  A    between atoms: C_9  and  C_10
REMARK    5  A    between atoms: C_13  and  O_14
REMARK    6  A    between atoms: C_22  and  O_23
REMARK                            x       y       z     vdW  Elec       q    Type
REMARK                         _______ _______ _______ _____ _____    ______ ____
ROOT
ATOM      1  C   UNL     1       2.280   5.305  18.976  0.00  0.00    +0.000 A 
ATOM      2  C   UNL     1       1.538   4.123  18.879  0.00  0.00    +0.000 A 
ATOM      3  C   UNL     1       1.941   3.109  18.010  0.00  0.00    +0.000 A 
ATOM      4  C   UNL     1       3.075   3.283  17.213  0.00  0.00    +0.000 A 
ATOM      5  C   UNL     1       3.856   4.451  17.294  0.00  0.00    +0.000 A 
ATOM      6  C   UNL     1       3.460   5.421  18.238  0.00  0.00    +0.000 A 
ENDROOT
BRANCH   5   7
ATOM      7  C   UNL     1       5.028   4.685  16.410  0.00  0.00    +0.000 A 
ATOM      8  C   UNL     1       5.150   4.055  15.155  0.00  0.00    +0.000 A 
ATOM      9  C   UNL     1       6.241   4.303  14.311  0.00  0.00    +0.000 A 
ATOM     10  C   UNL     1       7.220   5.203  14.705  0.00  0.00    +0.000 A 
ATOM     11  C   UNL     1       7.128   5.855  15.924  0.00  0.00    +0.000 A 
ATOM     12  C   UNL     1       6.049   5.588  16.769  0.00  0.00    +0.000 A 
BRANCH  10  13
ATOM     13  O   UNL     1       8.299   5.478  13.922  0.00  0.00    +0.000 OA
ATOM     14  H   UNL     1       9.082   5.564  14.489  0.00  0.00    +0.000 HD
ENDBRANCH  10  13
ENDBRANCH   5   7
BRANCH   1  17
ATOM     15  C   UNL     1       2.170   8.253  18.279  0.00  0.00    +0.000 C 
ATOM     16  N   UNL     1       1.733   7.713  19.574  0.00  0.00    +0.000 N 
ATOM     17  C   UNL     1       1.822   6.347  19.939  0.00  0.00    +0.000 C 
ATOM     18  O   UNL     1       1.538   5.901  21.054  0.00  0.00    +0.000 OA
BRANCH  16  19
ATOM     19  C   UNL     1       1.154   8.690  20.476  0.00  0.00    +0.000 A 
ATOM     20  C   UNL     1       1.356   8.629  21.864  0.00  0.00    +0.000 A 
ATOM     21  C   UNL     1       0.734   9.533  22.733  0.00  0.00    +0.000 A 
ATOM     22  C   UNL     1      -0.113  10.518  22.240  0.00  0.00    +0.000 A 
ATOM     23  C   UNL     1      -0.320  10.595  20.872  0.00  0.00    +0.000 A 
ATOM     24  C   UNL     1       0.304   9.703  20.000  0.00  0.00    +0.000 A 
BRANCH  23  25
ATOM     25  O   UNL     1      -1.149  11.535  20.332  0.00  0.00    +0.000 OA
ATOM     26  H   UNL     1      -2.039  11.152  20.259  0.00  0.00    +0.000 HD
ENDBRANCH  23  25
ENDBRANCH  16  19
ENDBRANCH   1  17
TORSDOF 5
ENDMDL
MODEL 9
REMARK VINA RESULT:      -7.5      2.910      8.876
REMARK  Name = 
REMARK  6 active torsions:
REMARK  status: ('A' for Active; 'I' for Inactive)
REMARK    1  A    between atoms: C_1  and  N_2
REMARK    2  A    between atoms: N_2  and  C_18
REMARK    3  A    between atoms: C_3  and  C_5
REMARK    4  A    between atoms: C_9  and  C_10
REMARK    5  A    between atoms: C_13  and  O_14
REMARK    6  A    between atoms: C_22  and  O_23
REMARK                            x       y       z     vdW  Elec       q    Type
REMARK                         _______ _______ _______ _____ _____    ______ ____
ROOT
ATOM      1  C   UNL     1       0.689  10.163  18.868  0.00  0.00    +0.000 A 
ATOM      2  C   UNL     1       1.167  10.936  19.933  0.00  0.00    +0.000 A 
ATOM      3  C   UNL     1       0.329  11.853  20.566  0.00  0.00    +0.000 A 
ATOM      4  C   UNL     1      -0.985  12.022  20.122  0.00  0.00    +0.000 A 
ATOM      5  C   UNL     1      -1.506  11.251  19.064  0.00  0.00    +0.000 A 
ATOM      6  C   UNL     1      -0.652  10.282  18.499  0.00  0.00    +0.000 A 
ENDROOT
BRANCH   5   7
ATOM      7  C   UNL     1      -2.878  11.459  18.533  0.00  0.00    +0.000 A 
ATOM      8  C   UNL     1      -3.893  12.058  19.307  0.00  0.00    +0.000 A 
ATOM      9  C   UNL     1      -5.176  12.280  18.790  0.00  0.00    +0.000 A 
ATOM     10  C   UNL     1      -5.458  11.922  17.480  0.00  0.00    +0.000 A 
ATOM     11  C   UNL     1      -4.483  11.347  16.682  0.00  0.00    +0.000 A 
ATOM     12  C   UNL     1      -3.212  11.109  17.209  0.00  0.00    +0.000 A 
BRANCH  10  13
ATOM     13  O   UNL     1      -6.689  12.118  16.932  0.00  0.00    +0.000 OA
ATOM     14  H   UNL     1      -6.850  13.073  16.864  0.00  0.00    +0.000 HD
ENDBRANCH  10  13
ENDBRANCH   5   7
BRANCH   1  17
ATOM     15  C   UNL     1       1.677   7.689  20.312  0.00  0.00    +0.000 C 
ATOM     16  N   UNL     1       2.027   8.004  18.920  0.00  0.00    +0.000 N 
ATOM     17  C   UNL     1       1.618   9.178  18.242  0.00  0.00    +0.000 C 
ATOM     18  O   UNL     1       1.978   9.491  17.104  0.00  0.00    +0.000 OA
BRANCH  16  19
ATOM     19  C   UNL     1       2.817   6.990  18.247  0.00  0.00    +0.000 A 
ATOM     20  C   UNL     1       2.467   5.632  18.286  0.00  0.00    +0.000 A 
ATOM     21  C   UNL     1       3.274   4.653  17.695  0.00  0.00    +0.000 A 
ATOM     22  C   UNL     1       4.457   5.004  17.056  0.00  0.00    +0.000 A 
ATOM     23  C   UNL     1       4.815   6.341  17.005  0.00  0.00    +0.000 A 
ATOM     24  C   UNL     1       4.010   7.322  17.583  0.00  0.00    +0.000 A 
BRANCH  23  25
ATOM     25  O   UNL     1       5.969   6.744  16.399  0.00  0.00    +0.000 OA
ATOM     26  H   UNL     1       5.745   7.392  15.712  0.00  0.00    +0.000 HD
ENDBRANCH  23  25
ENDBRANCH  16  19
ENDBRANCH   1  17
TORSDOF 5
ENDMDL
