MODEL 1
REMARK VINA RESULT:      -6.9      0.000      0.000
REMARK  Name = 
REMARK  13 active torsions:
REMARK  status: ('A' for Active; 'I' for Inactive)
REMARK    1  A    between atoms: C_1  and  O_2
REMARK    2  A    between atoms: O_2  and  C_3
REMARK    3  A    between atoms: C_6  and  C_7
REMARK    4  A    between atoms: C_9  and  C_10
REMARK    5  A    between atoms: C_10  and  O_12
REMARK    6  A    between atoms: C_14  and  O_15
REMARK    7  A    between atoms: O_15  and  C_16
REMARK    8  A    between atoms: C_17  and  O_18
REMARK    9  A    between atoms: O_18  and  C_19
REMARK   10  A    between atoms: C_20  and  O_21
REMARK   11  A    between atoms: O_21  and  C_22
REMARK   12  A    between atoms: C_27  and  O_28
REMARK   13  A    between atoms: O_28  and  C_29
REMARK                            x       y       z     vdW  Elec       q    Type
REMARK                         _______ _______ _______ _____ _____    ______ ____
ROOT
ATOM      1  C   UNL     1       1.579   8.641  19.573  0.00  0.00    +0.000 A 
ATOM      2  C   UNL     1       1.348   9.398  18.452  0.00  0.00    +0.000 A 
ATOM      3  C   UNL     1       0.969  10.702  18.633  0.00  0.00    +0.000 A 
ATOM      4  C   UNL     1       0.136  10.969  19.700  0.00  0.00    +0.000 A 
ATOM      5  C   UNL     1      -0.899  11.925  19.596  0.00  0.00    +0.000 A 
ATOM      6  C   UNL     1      -1.670  12.222  20.722  0.00  0.00    +0.000 A 
ATOM      7  C   UNL     1      -1.386  11.590  21.943  0.00  0.00    +0.000 A 
ATOM      8  C   UNL     1      -0.384  10.591  21.987  0.00  0.00    +0.000 A 
ATOM      9  C   UNL     1       0.326  10.194  20.840  0.00  0.00    +0.000 A 
ATOM     10  N   UNL     1       1.139   9.082  20.789  0.00  0.00    +0.000 NA
ENDROOT
BRANCH   1  14
ATOM     11  C   UNL     1       3.248   4.686  18.944  0.00  0.00    +0.000 A 
ATOM     12  C   UNL     1       3.427   5.697  17.996  0.00  0.00    +0.000 A 
ATOM     13  C   UNL     1       2.949   6.988  18.238  0.00  0.00    +0.000 A 
ATOM     14  C   UNL     1       2.228   7.320  19.409  0.00  0.00    +0.000 A 
ATOM     15  C   UNL     1       2.094   6.310  20.357  0.00  0.00    +0.000 A 
ATOM     16  C   UNL     1       2.573   5.003  20.136  0.00  0.00    +0.000 A 
BRANCH  11  18
ATOM     17  C   UNL     1       2.929   2.591  17.854  0.00  0.00    +0.000 C 
ATOM     18  O   UNL     1       3.692   3.408  18.738  0.00  0.00    +0.000 OA
ENDBRANCH  11  18
BRANCH  16  19
ATOM     19  O   UNL     1       2.302   4.199  21.211  0.00  0.00    +0.000 OA
ATOM     20  C   UNL     1       1.263   3.244  21.116  0.00  0.00    +0.000 C 
ENDBRANCH  16  19
ENDBRANCH   1  14
BRANCH   3  21
ATOM     21  C   UNL     1       1.994  11.769  18.361  0.00  0.00    +0.000 C 
ATOM     22  O   UNL     1       2.296  12.633  19.166  0.00  0.00    +0.000 OA
BRANCH  21  23
ATOM     23  O   UNL     1       2.624  11.655  17.171  0.00  0.00    +0.000 OA
ATOM     24  H   UNL     1       2.716  10.765  16.800  0.00  0.00    +0.000 HD
ENDBRANCH  21  23
ENDBRANCH   3  21
BRANCH   5  25
ATOM     25  O   UNL     1      -1.226  12.576  18.428  0.00  0.00    +0.000 OA
ATOM     26  C   UNL     1      -1.948  11.822  17.455  0.00  0.00    +0.000 C 
ENDBRANCH   5  25
BRANCH   6  27
ATOM     27  O   UNL     1      -2.751  13.034  20.473  0.00  0.00    +0.000 OA
ATOM     28  C   UNL     1      -4.023  12.415  20.373  0.00  0.00    +0.000 C 
ENDBRANCH   6  27
BRANCH   7  29
ATOM     29  O   UNL     1      -2.203  11.925  22.986  0.00  0.00    +0.000 OA
ATOM     30  C   UNL     1      -2.063  13.161  23.662  0.00  0.00    +0.000 C 
ENDBRANCH   7  29
TORSDOF 8
ENDMDL
MODEL 2
REMARK VINA RESULT:      -6.7      0.764      1.798
REMARK  Name = 
REMARK  13 active torsions:
REMARK  status: ('A' for Active; 'I' for Inactive)
REMARK    1  A    between atoms: C_1  and  O_2
REMARK    2  A    between atoms: O_2  and  C_3
REMARK    3  A    between atoms: C_6  and  C_7
REMARK    4  A    between atoms: C_9  and  C_10
REMARK    5  A    between atoms: C_10  and  O_12
REMARK    6  A    between atoms: C_14  and  O_15
REMARK    7  A    between atoms: O_15  and  C_16
REMARK    8  A    between atoms: C_17  and  O_18
REMARK    9  A    between atoms: O_18  and  C_19
REMARK   10  A    between atoms: C_20  and  O_21
REMARK   11  A    between atoms: O_21  and  C_22
REMARK   12  A    between atoms: C_27  and  O_28
REMARK   13  A    between atoms: O_28  and  C_29
REMARK                            x       y       z     vdW  Elec       q    Type
REMARK                         _______ _______ _______ _____ _____    ______ ____
ROOT
ATOM      1  C   UNL     1       1.498   8.637  19.646  0.00  0.00    +0.000 A 
ATOM      2  C   UNL     1       1.282   9.374  18.509  0.00  0.00    +0.000 A 
ATOM      3  C   UNL     1       0.933  10.690  18.663  0.00  0.00    +0.000 A 
ATOM      4  C   UNL     1       0.109  11.000  19.726  0.00  0.00    +0.000 A 
ATOM      5  C   UNL     1      -0.904  11.977  19.603  0.00  0.00    +0.000 A 
ATOM      6  C   UNL     1      -1.665  12.316  20.723  0.00  0.00    +0.000 A 
ATOM      7  C   UNL     1      -1.393  11.704  21.957  0.00  0.00    +0.000 A 
ATOM      8  C   UNL     1      -0.414  10.684  22.021  0.00  0.00    +0.000 A 
ATOM      9  C   UNL     1       0.284  10.245  20.881  0.00  0.00    +0.000 A 
ATOM     10  N   UNL     1       1.071   9.114  20.853  0.00  0.00    +0.000 NA
ENDROOT
BRANCH   1  14
ATOM     11  C   UNL     1       3.520   4.805  19.417  0.00  0.00    +0.000 A 
ATOM     12  C   UNL     1       2.628   5.082  20.457  0.00  0.00    +0.000 A 
ATOM     13  C   UNL     1       1.926   6.290  20.484  0.00  0.00    +0.000 A 
ATOM     14  C   UNL     1       2.116   7.298  19.510  0.00  0.00    +0.000 A 
ATOM     15  C   UNL     1       2.979   6.987  18.463  0.00  0.00    +0.000 A 
ATOM     16  C   UNL     1       3.693   5.773  18.412  0.00  0.00    +0.000 A 
BRANCH  11  18
ATOM     17  C   UNL     1       3.683   2.578  18.585  0.00  0.00    +0.000 C 
ATOM     18  O   UNL     1       4.233   3.638  19.363  0.00  0.00    +0.000 OA
ENDBRANCH  11  18
BRANCH  16  19
ATOM     19  O   UNL     1       4.482   5.720  17.294  0.00  0.00    +0.000 OA
ATOM     20  C   UNL     1       5.523   6.665  17.137  0.00  0.00    +0.000 C 
ENDBRANCH  16  19
ENDBRANCH   1  14
BRANCH   3  21
ATOM     21  C   UNL     1       1.982  11.727  18.366  0.00  0.00    +0.000 C 
ATOM     22  O   UNL     1       2.299  12.607  19.148  0.00  0.00    +0.000 OA
BRANCH  21  23
ATOM     23  O   UNL     1       2.614  11.567  17.182  0.00  0.00    +0.000 OA
ATOM     24  H   UNL     1       3.114  10.747  17.053  0.00  0.00    +0.000 HD
ENDBRANCH  21  23
ENDBRANCH   3  21
BRANCH   5  25
ATOM     25  O   UNL     1      -1.218  12.610  18.421  0.00  0.00    +0.000 OA
ATOM     26  C   UNL     1      -1.912  11.834  17.444  0.00  0.00    +0.000 C 
ENDBRANCH   5  25
BRANCH   6  27
ATOM     27  O   UNL     1      -2.728  13.147  20.459  0.00  0.00    +0.000 OA
ATOM     28  C   UNL     1      -4.013  12.554  20.365  0.00  0.00    +0.000 C 
ENDBRANCH   6  27
BRANCH   7  29
ATOM     29  O   UNL     1      -2.200  12.081  22.993  0.00  0.00    +0.000 OA
ATOM     30  C   UNL     1      -2.013  13.316  23.660  0.00  0.00    +0.000 C 
ENDBRANCH   7  29
TORSDOF 8
ENDMDL
MODEL 3
REMARK VINA RESULT:      -6.6      2.087      3.598
REMARK  Name = 
REMARK  13 active torsions:
REMARK  status: ('A' for Active; 'I' for Inactive)
REMARK    1  A    between atoms: C_1  and  O_2
REMARK    2  A    between atoms: O_2  and  C_3
REMARK    3  A    between atoms: C_6  and  C_7
REMARK    4  A    between atoms: C_9  and  C_10
REMARK    5  A    between atoms: C_10  and  O_12
REMARK    6  A    between atoms: C_14  and  O_15
REMARK    7  A    between atoms: O_15  and  C_16
REMARK    8  A    between atoms: C_17  and  O_18
REMARK    9  A    between atoms: O_18  and  C_19
REMARK   10  A    between atoms: C_20  and  O_21
REMARK   11  A    between atoms: O_21  and  C_22
REMARK   12  A    between atoms: C_27  and  O_28
REMARK   13  A    between atoms: O_28  and  C_29
REMARK                            x       y       z     vdW  Elec       q    Type
REMARK                         _______ _______ _______ _____ _____    ______ ____
ROOT
ATOM      1  C   UNL     1       1.586   9.612  18.629  0.00  0.00    +0.000 A 
ATOM      2  C   UNL     1       0.311   9.728  19.124  0.00  0.00    +0.000 A 
ATOM      3  C   UNL     1      -0.373  10.884  18.852  0.00  0.00    +0.000 A 
ATOM      4  C   UNL     1       0.358  12.055  18.839  0.00  0.00    +0.000 A 
ATOM      5  C   UNL     1      -0.182  13.257  19.348  0.00  0.00    +0.000 A 
ATOM      6  C   UNL     1       0.559  14.436  19.245  0.00  0.00    +0.000 A 
ATOM      7  C   UNL     1       1.813  14.413  18.612  0.00  0.00    +0.000 A 
ATOM      8  C   UNL     1       2.344  13.177  18.176  0.00  0.00    +0.000 A 
ATOM      9  C   UNL     1       1.665  11.960  18.373  0.00  0.00    +0.000 A 
ATOM     10  N   UNL     1       2.238  10.723  18.173  0.00  0.00    +0.000 NA
ENDROOT
BRANCH   1  14
ATOM     11  C   UNL     1       3.315   5.633  18.635  0.00  0.00    +0.000 A 
ATOM     12  C   UNL     1       3.640   6.553  17.634  0.00  0.00    +0.000 A 
ATOM     13  C   UNL     1       3.136   7.855  17.678  0.00  0.00    +0.000 A 
ATOM     14  C   UNL     1       2.247   8.288  18.690  0.00  0.00    +0.000 A 
ATOM     15  C   UNL     1       1.966   7.370  19.697  0.00  0.00    +0.000 A 
ATOM     16  C   UNL     1       2.468   6.053  19.676  0.00  0.00    +0.000 A 
BRANCH  11  18
ATOM     17  C   UNL     1       5.125   4.138  19.044  0.00  0.00    +0.000 C 
ATOM     18  O   UNL     1       3.781   4.346  18.619  0.00  0.00    +0.000 OA
ENDBRANCH  11  18
BRANCH  16  19
ATOM     19  O   UNL     1       2.034   5.350  20.768  0.00  0.00    +0.000 OA
ATOM     20  C   UNL     1       1.135   4.273  20.585  0.00  0.00    +0.000 C 
ENDBRANCH  16  19
ENDBRANCH   1  14
BRANCH   3  21
ATOM     21  C   UNL     1      -1.465  10.819  17.820  0.00  0.00    +0.000 C 
ATOM     22  O   UNL     1      -2.214   9.866  17.692  0.00  0.00    +0.000 OA
BRANCH  21  23
ATOM     23  O   UNL     1      -1.610  11.941  17.081  0.00  0.00    +0.000 OA
ATOM     24  H   UNL     1      -2.262  12.591  17.384  0.00  0.00    +0.000 HD
ENDBRANCH  21  23
ENDBRANCH   3  21
BRANCH   5  25
ATOM     25  O   UNL     1      -1.403  13.341  19.979  0.00  0.00    +0.000 OA
ATOM     26  C   UNL     1      -1.458  12.885  21.330  0.00  0.00    +0.000 C 
ENDBRANCH   5  25
BRANCH   6  27
ATOM     27  O   UNL     1       0.020  15.507  19.918  0.00  0.00    +0.000 OA
ATOM     28  C   UNL     1      -0.646  16.494  19.146  0.00  0.00    +0.000 C 
ENDBRANCH   6  27
BRANCH   7  29
ATOM     29  O   UNL     1       2.476  15.607  18.576  0.00  0.00    +0.000 OA
ATOM     30  C   UNL     1       3.346  15.933  17.507  0.00  0.00    +0.000 C 
ENDBRANCH   7  29
TORSDOF 8
ENDMDL
MODEL 4
REMARK VINA RESULT:      -6.5      1.456      1.846
REMARK  Name = 
REMARK  13 active torsions:
REMARK  status: ('A' for Active; 'I' for Inactive)
REMARK    1  A    between atoms: C_1  and  O_2
REMARK    2  A    between atoms: O_2  and  C_3
REMARK    3  A    between atoms: C_6  and  C_7
REMARK    4  A    between atoms: C_9  and  C_10
REMARK    5  A    between atoms: C_10  and  O_12
REMARK    6  A    between atoms: C_14  and  O_15
REMARK    7  A    between atoms: O_15  and  C_16
REMARK    8  A    between atoms: C_17  and  O_18
REMARK    9  A    between atoms: O_18  and  C_19
REMARK   10  A    between atoms: C_20  and  O_21
REMARK   11  A    between atoms: O_21  and  C_22
REMARK   12  A    between atoms: C_27  and  O_28
REMARK   13  A    between atoms: O_28  and  C_29
REMARK                            x       y       z     vdW  Elec       q    Type
REMARK                         _______ _______ _______ _____ _____    ______ ____
ROOT
ATOM      1  C   UNL     1       0.607   9.668  19.745  0.00  0.00    +0.000 A 
ATOM      2  C   UNL     1      -0.088  10.182  18.680  0.00  0.00    +0.000 A 
ATOM      3  C   UNL     1      -0.743  11.371  18.863  0.00  0.00    +0.000 A 
ATOM      4  C   UNL     1      -1.326  11.581  20.097  0.00  0.00    +0.000 A 
ATOM      5  C   UNL     1      -2.570  12.240  20.213  0.00  0.00    +0.000 A 
ATOM      6  C   UNL     1      -3.088  12.501  21.483  0.00  0.00    +0.000 A 
ATOM      7  C   UNL     1      -2.352  12.133  22.621  0.00  0.00    +0.000 A 
ATOM      8  C   UNL     1      -1.143  11.416  22.459  0.00  0.00    +0.000 A 
ATOM      9  C   UNL     1      -0.660  11.041  21.193  0.00  0.00    +0.000 A 
ATOM     10  N   UNL     1       0.381  10.158  21.000  0.00  0.00    +0.000 NA
ENDROOT
BRANCH   1  14
ATOM     11  C   UNL     1       3.087   6.217  18.869  0.00  0.00    +0.000 A 
ATOM     12  C   UNL     1       3.103   7.339  18.037  0.00  0.00    +0.000 A 
ATOM     13  C   UNL     1       2.356   8.474  18.364  0.00  0.00    +0.000 A 
ATOM     14  C   UNL     1       1.522   8.528  19.505  0.00  0.00    +0.000 A 
ATOM     15  C   UNL     1       1.550   7.416  20.341  0.00  0.00    +0.000 A 
ATOM     16  C   UNL     1       2.299   6.263  20.034  0.00  0.00    +0.000 A 
BRANCH  11  18
ATOM     17  C   UNL     1       5.104   4.975  19.131  0.00  0.00    +0.000 C 
ATOM     18  O   UNL     1       3.795   5.084  18.576  0.00  0.00    +0.000 OA
ENDBRANCH  11  18
BRANCH  16  19
ATOM     19  O   UNL     1       2.145   5.310  21.005  0.00  0.00    +0.000 OA
ATOM     20  C   UNL     1       1.370   4.159  20.727  0.00  0.00    +0.000 C 
ENDBRANCH  16  19
ENDBRANCH   1  14
BRANCH   3  21
ATOM     21  C   UNL     1      -0.139  12.601  18.243  0.00  0.00    +0.000 C 
ATOM     22  O   UNL     1       0.988  12.994  18.489  0.00  0.00    +0.000 OA
BRANCH  21  23
ATOM     23  O   UNL     1      -0.918  13.208  17.321  0.00  0.00    +0.000 OA
ATOM     24  H   UNL     1      -0.881  12.868  16.414  0.00  0.00    +0.000 HD
ENDBRANCH  21  23
ENDBRANCH   3  21
BRANCH   5  25
ATOM     25  O   UNL     1      -3.337  12.624  19.136  0.00  0.00    +0.000 OA
ATOM     26  C   UNL     1      -4.094  11.599  18.492  0.00  0.00    +0.000 C 
ENDBRANCH   5  25
BRANCH   6  27
ATOM     27  O   UNL     1      -4.372  12.991  21.484  0.00  0.00    +0.000 OA
ATOM     28  C   UNL     1      -4.534  14.400  21.498  0.00  0.00    +0.000 C 
ENDBRANCH   6  27
BRANCH   7  29
ATOM     29  O   UNL     1      -2.944  12.408  23.821  0.00  0.00    +0.000 OA
ATOM     30  C   UNL     1      -2.775  13.663  24.454  0.00  0.00    +0.000 C 
ENDBRANCH   7  29
TORSDOF 8
ENDMDL
MODEL 5
REMARK VINA RESULT:      -6.4      2.181      4.078
REMARK  Name = 
REMARK  13 active torsions:
REMARK  status: ('A' for Active; 'I' for Inactive)
REMARK    1  A    between atoms: C_1  and  O_2
REMARK    2  A    between atoms: O_2  and  C_3
REMARK    3  A    between atoms: C_6  and  C_7
REMARK    4  A    between atoms: C_9  and  C_10
REMARK    5  A    between atoms: C_10  and  O_12
REMARK    6  A    between atoms: C_14  and  O_15
REMARK    7  A    between atoms: O_15  and  C_16
REMARK    8  A    between atoms: C_17  and  O_18
REMARK    9  A    between atoms: O_18  and  C_19
REMARK   10  A    between atoms: C_20  and  O_21
REMARK   11  A    between atoms: O_21  and  C_22
REMARK   12  A    between atoms: C_27  and  O_28
REMARK   13  A    between atoms: O_28  and  C_29
REMARK                            x       y       z     vdW  Elec       q    Type
REMARK                         _______ _______ _______ _____ _____    ______ ____
ROOT
ATOM      1  C   UNL     1       1.618   9.434  18.732  0.00  0.00    +0.000 A 
ATOM      2  C   UNL     1       0.444   9.642  19.412  0.00  0.00    +0.000 A 
ATOM      3  C   UNL     1      -0.211  10.826  19.198  0.00  0.00    +0.000 A 
ATOM      4  C   UNL     1       0.569  11.951  19.022  0.00  0.00    +0.000 A 
ATOM      5  C   UNL     1       0.180  13.200  19.555  0.00  0.00    +0.000 A 
ATOM      6  C   UNL     1       0.958  14.328  19.288  0.00  0.00    +0.000 A 
ATOM      7  C   UNL     1       2.094  14.210  18.471  0.00  0.00    +0.000 A 
ATOM      8  C   UNL     1       2.484  12.929  18.012  0.00  0.00    +0.000 A 
ATOM      9  C   UNL     1       1.781  11.763  18.364  0.00  0.00    +0.000 A 
ATOM     10  N   UNL     1       2.248  10.487  18.132  0.00  0.00    +0.000 NA
ENDROOT
BRANCH   1  14
ATOM     11  C   UNL     1       3.561   5.561  18.941  0.00  0.00    +0.000 A 
ATOM     12  C   UNL     1       2.664   5.965  19.933  0.00  0.00    +0.000 A 
ATOM     13  C   UNL     1       1.988   7.183  19.822  0.00  0.00    +0.000 A 
ATOM     14  C   UNL     1       2.208   8.076  18.748  0.00  0.00    +0.000 A 
ATOM     15  C   UNL     1       3.076   7.638  17.751  0.00  0.00    +0.000 A 
ATOM     16  C   UNL     1       3.765   6.411  17.840  0.00  0.00    +0.000 A 
BRANCH  11  18
ATOM     17  C   UNL     1       3.664   3.244  18.391  0.00  0.00    +0.000 C 
ATOM     18  O   UNL     1       4.250   4.381  19.021  0.00  0.00    +0.000 OA
ENDBRANCH  11  18
BRANCH  16  19
ATOM     19  O   UNL     1       4.564   6.223  16.744  0.00  0.00    +0.000 OA
ATOM     20  C   UNL     1       5.924   6.607  16.806  0.00  0.00    +0.000 C 
ENDBRANCH  16  19
ENDBRANCH   1  14
BRANCH   3  21
ATOM     21  C   UNL     1      -1.454  10.791  18.351  0.00  0.00    +0.000 C 
ATOM     22  O   UNL     1      -2.556  11.115  18.759  0.00  0.00    +0.000 OA
BRANCH  21  23
ATOM     23  O   UNL     1      -1.248  10.440  17.063  0.00  0.00    +0.000 OA
ATOM     24  H   UNL     1      -1.594   9.582  16.775  0.00  0.00    +0.000 HD
ENDBRANCH  21  23
ENDBRANCH   3  21
BRANCH   5  25
ATOM     25  O   UNL     1      -0.921  13.378  20.362  0.00  0.00    +0.000 OA
ATOM     26  C   UNL     1      -0.768  13.031  21.739  0.00  0.00    +0.000 C 
ENDBRANCH   5  25
BRANCH   6  27
ATOM     27  O   UNL     1       0.589  15.452  19.988  0.00  0.00    +0.000 OA
ATOM     28  C   UNL     1      -0.193  16.419  19.305  0.00  0.00    +0.000 C 
ENDBRANCH   6  27
BRANCH   7  29
ATOM     29  O   UNL     1       2.806  15.360  18.280  0.00  0.00    +0.000 OA
ATOM     30  C   UNL     1       4.134  15.330  17.792  0.00  0.00    +0.000 C 
ENDBRANCH   7  29
TORSDOF 8
ENDMDL
MODEL 6
REMARK VINA RESULT:      -6.3      2.518      4.329
REMARK  Name = 
REMARK  13 active torsions:
REMARK  status: ('A' for Active; 'I' for Inactive)
REMARK    1  A    between atoms: C_1  and  O_2
REMARK    2  A    between atoms: O_2  and  C_3
REMARK    3  A    between atoms: C_6  and  C_7
REMARK    4  A    between atoms: C_9  and  C_10
REMARK    5  A    between atoms: C_10  and  O_12
REMARK    6  A    between atoms: C_14  and  O_15
REMARK    7  A    between atoms: O_15  and  C_16
REMARK    8  A    between atoms: C_17  and  O_18
REMARK    9  A    between atoms: O_18  and  C_19
REMARK   10  A    between atoms: C_20  and  O_21
REMARK   11  A    between atoms: O_21  and  C_22
REMARK   12  A    between atoms: C_27  and  O_28
REMARK   13  A    between atoms: O_28  and  C_29
REMARK                            x       y       z     vdW  Elec       q    Type
REMARK                         _______ _______ _______ _____ _____    ______ ____
ROOT
ATOM      1  C   UNL     1       1.025  10.373  19.059  0.00  0.00    +0.000 A 
ATOM      2  C   UNL     1      -0.209  10.708  19.557  0.00  0.00    +0.000 A 
ATOM      3  C   UNL     1      -0.729  11.925  19.203  0.00  0.00    +0.000 A 
ATOM      4  C   UNL     1       0.159  12.975  19.088  0.00  0.00    +0.000 A 
ATOM      5  C   UNL     1      -0.194  14.278  19.507  0.00  0.00    +0.000 A 
ATOM      6  C   UNL     1       0.704  15.327  19.302  0.00  0.00    +0.000 A 
ATOM      7  C   UNL     1       1.927  15.078  18.658  0.00  0.00    +0.000 A 
ATOM      8  C   UNL     1       2.268  13.748  18.315  0.00  0.00    +0.000 A 
ATOM      9  C   UNL     1       1.429  12.660  18.616  0.00  0.00    +0.000 A 
ATOM     10  N   UNL     1       1.816  11.341  18.508  0.00  0.00    +0.000 NA
ENDROOT
BRANCH   1  14
ATOM     11  C   UNL     1       2.631   6.387  19.652  0.00  0.00    +0.000 A 
ATOM     12  C   UNL     1       1.863   7.003  20.643  0.00  0.00    +0.000 A 
ATOM     13  C   UNL     1       1.289   8.257  20.417  0.00  0.00    +0.000 A 
ATOM     14  C   UNL     1       1.493   8.977  19.217  0.00  0.00    +0.000 A 
ATOM     15  C   UNL     1       2.228   8.330  18.228  0.00  0.00    +0.000 A 
ATOM     16  C   UNL     1       2.812   7.063  18.432  0.00  0.00    +0.000 A 
BRANCH  11  18
ATOM     17  C   UNL     1       2.358   4.028  19.854  0.00  0.00    +0.000 C 
ATOM     18  O   UNL     1       3.218   5.165  19.841  0.00  0.00    +0.000 OA
ENDBRANCH  11  18
BRANCH  16  19
ATOM     19  O   UNL     1       3.493   6.657  17.316  0.00  0.00    +0.000 OA
ATOM     20  C   UNL     1       4.896   6.828  17.262  0.00  0.00    +0.000 C 
ENDBRANCH  16  19
ENDBRANCH   1  14
BRANCH   3  21
ATOM     21  C   UNL     1      -1.843  11.938  18.192  0.00  0.00    +0.000 C 
ATOM     22  O   UNL     1      -3.000  11.671  18.463  0.00  0.00    +0.000 OA
BRANCH  21  23
ATOM     23  O   UNL     1      -1.478  12.346  16.957  0.00  0.00    +0.000 OA
ATOM     24  H   UNL     1      -1.829  13.196  16.648  0.00  0.00    +0.000 HD
ENDBRANCH  21  23
ENDBRANCH   3  21
BRANCH   5  25
ATOM     25  O   UNL     1      -1.376  14.583  20.143  0.00  0.00    +0.000 OA
ATOM     26  C   UNL     1      -1.439  14.308  21.542  0.00  0.00    +0.000 C 
ENDBRANCH   5  25
BRANCH   6  27
ATOM     27  O   UNL     1       0.338  16.513  19.893  0.00  0.00    +0.000 OA
ATOM     28  C   UNL     1      -0.271  17.493  19.068  0.00  0.00    +0.000 C 
ENDBRANCH   6  27
BRANCH   7  29
ATOM     29  O   UNL     1       2.752  16.158  18.519  0.00  0.00    +0.000 OA
ATOM     30  C   UNL     1       2.975  16.755  17.255  0.00  0.00    +0.000 C 
ENDBRANCH   7  29
TORSDOF 8
ENDMDL
MODEL 7
REMARK VINA RESULT:      -6.3      2.114      3.675
REMARK  Name = 
REMARK  13 active torsions:
REMARK  status: ('A' for Active; 'I' for Inactive)
REMARK    1  A    between atoms: C_1  and  O_2
REMARK    2  A    between atoms: O_2  and  C_3
REMARK    3  A    between atoms: C_6  and  C_7
REMARK    4  A    between atoms: C_9  and  C_10
REMARK    5  A    between atoms: C_10  and  O_12
REMARK    6  A    between atoms: C_14  and  O_15
REMARK    7  A    between atoms: O_15  and  C_16
REMARK    8  A    between atoms: C_17  and  O_18
REMARK    9  A    between atoms: O_18  and  C_19
REMARK   10  A    between atoms: C_20  and  O_21
REMARK   11  A    between atoms: O_21  and  C_22
REMARK   12  A    between atoms: C_27  and  O_28
REMARK   13  A    between atoms: O_28  and  C_29
REMARK                            x       y       z     vdW  Elec       q    Type
REMARK                         _______ _______ _______ _____ _____    ______ ____
ROOT
ATOM      1  C   UNL     1       1.919   9.224  18.359  0.00  0.00    +0.000 A 
ATOM      2  C   UNL     1       0.778   9.293  19.117  0.00  0.00    +0.000 A 
ATOM      3  C   UNL     1       0.063  10.462  19.084  0.00  0.00    +0.000 A 
ATOM      4  C   UNL     1       0.785  11.635  19.006  0.00  0.00    +0.000 A 
ATOM      5  C   UNL     1       0.375  12.792  19.706  0.00  0.00    +0.000 A 
ATOM      6  C   UNL     1       1.088  13.980  19.539  0.00  0.00    +0.000 A 
ATOM      7  C   UNL     1       2.181  14.014  18.657  0.00  0.00    +0.000 A 
ATOM      8  C   UNL     1       2.597  12.818  18.027  0.00  0.00    +0.000 A 
ATOM      9  C   UNL     1       1.964  11.586  18.269  0.00  0.00    +0.000 A 
ATOM     10  N   UNL     1       2.470  10.371  17.860  0.00  0.00    +0.000 NA
ENDROOT
BRANCH   1  14
ATOM     11  C   UNL     1       3.669   5.330  17.586  0.00  0.00    +0.000 A 
ATOM     12  C   UNL     1       4.247   6.490  17.064  0.00  0.00    +0.000 A 
ATOM     13  C   UNL     1       3.720   7.746  17.377  0.00  0.00    +0.000 A 
ATOM     14  C   UNL     1       2.566   7.904  18.179  0.00  0.00    +0.000 A 
ATOM     15  C   UNL     1       2.028   6.740  18.720  0.00  0.00    +0.000 A 
ATOM     16  C   UNL     1       2.547   5.463  18.423  0.00  0.00    +0.000 A 
BRANCH  11  18
ATOM     17  C   UNL     1       5.135   3.992  16.267  0.00  0.00    +0.000 C 
ATOM     18  O   UNL     1       4.150   4.083  17.293  0.00  0.00    +0.000 OA
ENDBRANCH  11  18
BRANCH  16  19
ATOM     19  O   UNL     1       1.832   4.488  19.065  0.00  0.00    +0.000 OA
ATOM     20  C   UNL     1       1.478   4.670  20.422  0.00  0.00    +0.000 C 
ENDBRANCH  16  19
ENDBRANCH   1  14
BRANCH   3  21
ATOM     21  C   UNL     1      -1.223  10.468  18.303  0.00  0.00    +0.000 C 
ATOM     22  O   UNL     1      -2.293  10.815  18.771  0.00  0.00    +0.000 OA
BRANCH  21  23
ATOM     23  O   UNL     1      -1.093  10.127  17.001  0.00  0.00    +0.000 OA
ATOM     24  H   UNL     1      -0.196   9.972  16.670  0.00  0.00    +0.000 HD
ENDBRANCH  21  23
ENDBRANCH   3  21
BRANCH   5  25
ATOM     25  O   UNL     1      -0.685  12.819  20.584  0.00  0.00    +0.000 OA
ATOM     26  C   UNL     1      -0.445  12.305  21.894  0.00  0.00    +0.000 C 
ENDBRANCH   5  25
BRANCH   6  27
ATOM     27  O   UNL     1       0.713  14.993  20.388  0.00  0.00    +0.000 OA
ATOM     28  C   UNL     1      -0.122  16.011  19.861  0.00  0.00    +0.000 C 
ENDBRANCH   6  27
BRANCH   7  29
ATOM     29  O   UNL     1       2.833  15.212  18.571  0.00  0.00    +0.000 OA
ATOM     30  C   UNL     1       3.436  15.636  17.363  0.00  0.00    +0.000 C 
ENDBRANCH   7  29
TORSDOF 8
ENDMDL
MODEL 8
REMARK VINA RESULT:      -6.2      0.975      1.029
REMARK  Name = 
REMARK  13 active torsions:
REMARK  status: ('A' for Active; 'I' for Inactive)
REMARK    1  A    between atoms: C_1  and  O_2
REMARK    2  A    between atoms: O_2  and  C_3
REMARK    3  A    between atoms: C_6  and  C_7
REMARK    4  A    between atoms: C_9  and  C_10
REMARK    5  A    between atoms: C_10  and  O_12
REMARK    6  A    between atoms: C_14  and  O_15
REMARK    7  A    between atoms: O_15  and  C_16
REMARK    8  A    between atoms: C_17  and  O_18
REMARK    9  A    between atoms: O_18  and  C_19
REMARK   10  A    between atoms: C_20  and  O_21
REMARK   11  A    between atoms: O_21  and  C_22
REMARK   12  A    between atoms: C_27  and  O_28
REMARK   13  A    between atoms: O_28  and  C_29
REMARK                            x       y       z     vdW  Elec       q    Type
REMARK                         _______ _______ _______ _____ _____    ______ ____
ROOT
ATOM      1  C   UNL     1       1.837   8.593  19.091  0.00  0.00    +0.000 A 
ATOM      2  C   UNL     1       1.536   9.459  18.071  0.00  0.00    +0.000 A 
ATOM      3  C   UNL     1       1.111  10.717  18.411  0.00  0.00    +0.000 A 
ATOM      4  C   UNL     1       0.306  10.826  19.526  0.00  0.00    +0.000 A 
ATOM      5  C   UNL     1      -0.770  11.740  19.564  0.00  0.00    +0.000 A 
ATOM      6  C   UNL     1      -1.512  11.875  20.739  0.00  0.00    +0.000 A 
ATOM      7  C   UNL     1      -1.158  11.123  21.871  0.00  0.00    +0.000 A 
ATOM      8  C   UNL     1      -0.116  10.171  21.770  0.00  0.00    +0.000 A 
ATOM      9  C   UNL     1       0.568   9.936  20.564  0.00  0.00    +0.000 A 
ATOM     10  N   UNL     1       1.423   8.874  20.362  0.00  0.00    +0.000 NA
ENDROOT
BRANCH   1  14
ATOM     11  C   UNL     1       3.701   4.864  17.888  0.00  0.00    +0.000 A 
ATOM     12  C   UNL     1       4.136   6.083  17.363  0.00  0.00    +0.000 A 
ATOM     13  C   UNL     1       3.581   7.286  17.808  0.00  0.00    +0.000 A 
ATOM     14  C   UNL     1       2.533   7.329  18.758  0.00  0.00    +0.000 A 
ATOM     15  C   UNL     1       2.140   6.107  19.297  0.00  0.00    +0.000 A 
ATOM     16  C   UNL     1       2.691   4.883  18.867  0.00  0.00    +0.000 A 
BRANCH  11  18
ATOM     17  C   UNL     1       5.200   3.709  16.440  0.00  0.00    +0.000 C 
ATOM     18  O   UNL     1       4.214   3.667  17.468  0.00  0.00    +0.000 OA
ENDBRANCH  11  18
BRANCH  16  19
ATOM     19  O   UNL     1       2.125   3.833  19.539  0.00  0.00    +0.000 OA
ATOM     20  C   UNL     1       2.794   3.289  20.661  0.00  0.00    +0.000 C 
ENDBRANCH  16  19
ENDBRANCH   1  14
BRANCH   3  21
ATOM     21  C   UNL     1       2.082  11.852  18.230  0.00  0.00    +0.000 C 
ATOM     22  O   UNL     1       2.331  12.668  19.100  0.00  0.00    +0.000 OA
BRANCH  21  23
ATOM     23  O   UNL     1       2.726  11.859  17.043  0.00  0.00    +0.000 OA
ATOM     24  H   UNL     1       2.939  11.000  16.648  0.00  0.00    +0.000 HD
ENDBRANCH  21  23
ENDBRANCH   3  21
BRANCH   5  25
ATOM     25  O   UNL     1      -1.164  12.503  18.487  0.00  0.00    +0.000 OA
ATOM     26  C   UNL     1      -1.959  11.851  17.497  0.00  0.00    +0.000 C 
ENDBRANCH   5  25
BRANCH   6  27
ATOM     27  O   UNL     1      -2.633  12.661  20.618  0.00  0.00    +0.000 OA
ATOM     28  C   UNL     1      -2.471  14.059  20.790  0.00  0.00    +0.000 C 
ENDBRANCH   6  27
BRANCH   7  29
ATOM     29  O   UNL     1      -1.951  11.302  22.970  0.00  0.00    +0.000 OA
ATOM     30  C   UNL     1      -1.878  12.485  23.744  0.00  0.00    +0.000 C 
ENDBRANCH   7  29
TORSDOF 8
ENDMDL
MODEL 9
REMARK VINA RESULT:      -6.2      1.789      2.892
REMARK  Name = 
REMARK  13 active torsions:
REMARK  status: ('A' for Active; 'I' for Inactive)
REMARK    1  A    between atoms: C_1  and  O_2
REMARK    2  A    between atoms: O_2  and  C_3
REMARK    3  A    between atoms: C_6  and  C_7
REMARK    4  A    between atoms: C_9  and  C_10
REMARK    5  A    between atoms: C_10  and  O_12
REMARK    6  A    between atoms: C_14  and  O_15
REMARK    7  A    between atoms: O_15  and  C_16
REMARK    8  A    between atoms: C_17  and  O_18
REMARK    9  A    between atoms: O_18  and  C_19
REMARK   10  A    between atoms: C_20  and  O_21
REMARK   11  A    between atoms: O_21  and  C_22
REMARK   12  A    between atoms: C_27  and  O_28
REMARK   13  A    between atoms: O_28  and  C_29
REMARK                            x       y       z     vdW  Elec       q    Type
REMARK                         _______ _______ _______ _____ _____    ______ ____
ROOT
ATOM      1  C   UNL     1       0.596  10.197  19.577  0.00  0.00    +0.000 A 
ATOM      2  C   UNL     1      -0.753  10.064  19.362  0.00  0.00    +0.000 A 
ATOM      3  C   UNL     1      -1.523  11.194  19.437  0.00  0.00    +0.000 A 
ATOM      4  C   UNL     1      -1.173  12.128  20.391  0.00  0.00    +0.000 A 
ATOM      5  C   UNL     1      -2.159  12.843  21.108  0.00  0.00    +0.000 A 
ATOM      6  C   UNL     1      -1.763  13.834  22.008  0.00  0.00    +0.000 A 
ATOM      7  C   UNL     1      -0.398  14.124  22.165  0.00  0.00    +0.000 A 
ATOM      8  C   UNL     1       0.557  13.340  21.476  0.00  0.00    +0.000 A 
ATOM      9  C   UNL     1       0.187  12.262  20.653  0.00  0.00    +0.000 A 
ATOM     10  N   UNL     1       1.079  11.340  20.150  0.00  0.00    +0.000 NA
ENDROOT
BRANCH   1  14
ATOM     11  C   UNL     1       2.955   6.720  18.498  0.00  0.00    +0.000 A 
ATOM     12  C   UNL     1       2.850   7.810  17.630  0.00  0.00    +0.000 A 
ATOM     13  C   UNL     1       2.148   8.956  18.014  0.00  0.00    +0.000 A 
ATOM     14  C   UNL     1       1.477   9.051  19.256  0.00  0.00    +0.000 A 
ATOM     15  C   UNL     1       1.626   7.971  20.121  0.00  0.00    +0.000 A 
ATOM     16  C   UNL     1       2.334   6.808  19.757  0.00  0.00    +0.000 A 
BRANCH  11  18
ATOM     17  C   UNL     1       2.887   4.582  17.447  0.00  0.00    +0.000 C 
ATOM     18  O   UNL     1       3.624   5.577  18.153  0.00  0.00    +0.000 OA
ENDBRANCH  11  18
BRANCH  16  19
ATOM     19  O   UNL     1       2.319   5.892  20.774  0.00  0.00    +0.000 OA
ATOM     20  C   UNL     1       1.429   4.795  20.705  0.00  0.00    +0.000 C 
ENDBRANCH  16  19
ENDBRANCH   1  14
BRANCH   3  21
ATOM     21  C   UNL     1      -2.024  11.781  18.145  0.00  0.00    +0.000 C 
ATOM     22  O   UNL     1      -3.125  11.544  17.681  0.00  0.00    +0.000 OA
BRANCH  21  23
ATOM     23  O   UNL     1      -1.183  12.664  17.563  0.00  0.00    +0.000 OA
ATOM     24  H   UNL     1      -0.317  12.794  17.980  0.00  0.00    +0.000 HD
ENDBRANCH  21  23
ENDBRANCH   3  21
BRANCH   5  25
ATOM     25  O   UNL     1      -3.510  12.603  20.999  0.00  0.00    +0.000 OA
ATOM     26  C   UNL     1      -4.286  13.600  20.334  0.00  0.00    +0.000 C 
ENDBRANCH   5  25
BRANCH   6  27
ATOM     27  O   UNL     1      -2.784  14.348  22.773  0.00  0.00    +0.000 OA
ATOM     28  C   UNL     1      -3.000  13.767  24.049  0.00  0.00    +0.000 C 
ENDBRANCH   6  27
BRANCH   7  29
ATOM     29  O   UNL     1      -0.102  15.093  23.081  0.00  0.00    +0.000 OA
ATOM     30  C   UNL     1       0.793  16.147  22.775  0.00  0.00    +0.000 C 
ENDBRANCH   7  29
TORSDOF 8
ENDMDL
