MODEL 1
REMARK VINA RESULT:      -7.6      0.000      0.000
REMARK  Name = 
REMARK  10 active torsions:
REMARK  status: ('A' for Active; 'I' for Inactive)
REMARK    1  A    between atoms: C_2  and  C_3
REMARK    2  A    between atoms: C_2  and  C_12
REMARK    3  A    between atoms: C_3  and  C_4
REMARK    4  A    between atoms: C_4  and  C_5
REMARK    5  A    between atoms: C_5  and  C_6
REMARK    6  A    between atoms: N_14  and  C_15
REMARK    7  A    between atoms: C_15  and  C_16
REMARK    8  A    between atoms: C_16  and  C_17
REMARK    9  A    between atoms: C_20  and  O_21
REMARK   10  A    between atoms: O_21  and  C_22
REMARK                            x       y       z     vdW  Elec       q    Type
REMARK                         _______ _______ _______ _____ _____    ______ ____
ROOT
ATOM      1  C   UNL     1       1.763   6.398  20.842  0.00  0.00    +0.000 C 
ENDROOT
BRANCH   1   4
ATOM      2  C   UNL     1       1.631   3.959  20.632  0.00  0.00    +0.000 C 
ATOM      3  O   UNL     1       0.470   3.958  20.258  0.00  0.00    +0.000 OA
ATOM      4  N   UNL     1       2.346   5.080  20.982  0.00  0.00    +0.000 N 
ATOM      5  H   UNL     1       3.343   4.958  21.155  0.00  0.00    +0.000 HD
BRANCH   2   7
ATOM      6  O   UNL     1       3.005   2.387  21.785  0.00  0.00    +0.000 OA
ATOM      7  C   UNL     1       2.411   2.647  20.743  0.00  0.00    +0.000 C 
BRANCH   7   8
ATOM      8  C   UNL     1       2.401   1.768  19.509  0.00  0.00    +0.000 C 
BRANCH   8   9
ATOM      9  C   UNL     1       3.592   2.028  18.590  0.00  0.00    +0.000 C 
BRANCH   9  10
ATOM     10  C   UNL     1       3.317   3.172  17.607  0.00  0.00    +0.000 C 
BRANCH  10  11
ATOM     11  C   UNL     1       4.340   4.270  17.738  0.00  0.00    +0.000 A 
ATOM     12  C   UNL     1       4.453   5.248  16.742  0.00  0.00    +0.000 A 
ATOM     13  C   UNL     1       5.417   6.253  16.849  0.00  0.00    +0.000 A 
ATOM     14  C   UNL     1       6.274   6.284  17.946  0.00  0.00    +0.000 A 
ATOM     15  C   UNL     1       6.169   5.312  18.940  0.00  0.00    +0.000 A 
ATOM     16  C   UNL     1       5.206   4.307  18.837  0.00  0.00    +0.000 A 
ENDBRANCH  10  11
ENDBRANCH   9  10
ENDBRANCH   8   9
ENDBRANCH   7   8
ENDBRANCH   2   7
ENDBRANCH   1   4
BRANCH   1  17
ATOM     17  C   UNL     1       2.367   7.212  19.696  0.00  0.00    +0.000 C 
BRANCH  17  18
ATOM     18  C   UNL     1       1.628   8.494  19.381  0.00  0.00    +0.000 A 
ATOM     19  C   UNL     1       0.880   9.182  20.347  0.00  0.00    +0.000 A 
ATOM     20  C   UNL     1       0.141  10.314  20.003  0.00  0.00    +0.000 A 
ATOM     21  C   UNL     1       0.175  10.799  18.698  0.00  0.00    +0.000 A 
ATOM     22  C   UNL     1       0.942  10.139  17.734  0.00  0.00    +0.000 A 
ATOM     23  C   UNL     1       1.683   9.010  18.080  0.00  0.00    +0.000 A 
BRANCH  21  24
ATOM     24  O   UNL     1      -0.637  11.878  18.433  0.00  0.00    +0.000 OA
BRANCH  24  25
ATOM     25  C   UNL     1      -1.919  11.629  17.968  0.00  0.00    +0.000 A 
ATOM     26  C   UNL     1      -2.945  11.840  18.860  0.00  0.00    +0.000 A 
ATOM     27  C   UNL     1      -4.203  11.549  18.387  0.00  0.00    +0.000 A 
ATOM     28  N   UNL     1      -4.440  11.101  17.142  0.00  0.00    +0.000 NA
ATOM     29  C   UNL     1      -3.358  10.975  16.362  0.00  0.00    +0.000 A 
ATOM     30 CL   UNL     1      -3.611  10.358  14.792  0.00  0.00    +0.000 Cl
ATOM     31  N   UNL     1      -2.094  11.228  16.698  0.00  0.00    +0.000 NA
ENDBRANCH  24  25
ENDBRANCH  21  24
ENDBRANCH  17  18
ENDBRANCH   1  17
TORSDOF 10
ENDMDL
MODEL 2
REMARK VINA RESULT:      -7.4      7.639      9.609
REMARK  Name = 
REMARK  10 active torsions:
REMARK  status: ('A' for Active; 'I' for Inactive)
REMARK    1  A    between atoms: C_2  and  C_3
REMARK    2  A    between atoms: C_2  and  C_12
REMARK    3  A    between atoms: C_3  and  C_4
REMARK    4  A    between atoms: C_4  and  C_5
REMARK    5  A    between atoms: C_5  and  C_6
REMARK    6  A    between atoms: N_14  and  C_15
REMARK    7  A    between atoms: C_15  and  C_16
REMARK    8  A    between atoms: C_16  and  C_17
REMARK    9  A    between atoms: C_20  and  O_21
REMARK   10  A    between atoms: O_21  and  C_22
REMARK                            x       y       z     vdW  Elec       q    Type
REMARK                         _______ _______ _______ _____ _____    ______ ____
ROOT
ATOM      1  C   UNL     1       8.065   9.263  17.813  0.00  0.00    +0.000 C 
ENDROOT
BRANCH   1   4
ATOM      2  C   UNL     1       6.887   7.191  17.237  0.00  0.00    +0.000 C 
ATOM      3  O   UNL     1       5.780   7.634  17.498  0.00  0.00    +0.000 OA
ATOM      4  N   UNL     1       8.068   7.878  17.390  0.00  0.00    +0.000 N 
ATOM      5  H   UNL     1       8.910   7.441  17.017  0.00  0.00    +0.000 HD
BRANCH   2   7
ATOM      6  O   UNL     1       7.357   5.608  15.517  0.00  0.00    +0.000 OA
ATOM      7  C   UNL     1       7.044   5.770  16.692  0.00  0.00    +0.000 C 
BRANCH   7   8
ATOM      8  C   UNL     1       6.769   4.653  17.677  0.00  0.00    +0.000 C 
BRANCH   8   9
ATOM      9  C   UNL     1       5.284   4.318  17.789  0.00  0.00    +0.000 C 
BRANCH   9  10
ATOM     10  C   UNL     1       4.727   4.643  19.180  0.00  0.00    +0.000 C 
BRANCH  10  11
ATOM     11  C   UNL     1       3.331   4.107  19.355  0.00  0.00    +0.000 A 
ATOM     12  C   UNL     1       2.562   4.494  20.460  0.00  0.00    +0.000 A 
ATOM     13  C   UNL     1       1.275   3.979  20.637  0.00  0.00    +0.000 A 
ATOM     14  C   UNL     1       0.753   3.075  19.716  0.00  0.00    +0.000 A 
ATOM     15  C   UNL     1       1.512   2.684  18.615  0.00  0.00    +0.000 A 
ATOM     16  C   UNL     1       2.798   3.197  18.434  0.00  0.00    +0.000 A 
ENDBRANCH  10  11
ENDBRANCH   9  10
ENDBRANCH   8   9
ENDBRANCH   7   8
ENDBRANCH   2   7
ENDBRANCH   1   4
BRANCH   1  17
ATOM     17  C   UNL     1       8.919   9.521  19.055  0.00  0.00    +0.000 C 
BRANCH  17  18
ATOM     18  C   UNL     1       9.691  10.822  19.026  0.00  0.00    +0.000 A 
ATOM     19  C   UNL     1      10.430  11.278  20.128  0.00  0.00    +0.000 A 
ATOM     20  C   UNL     1      11.059  12.522  20.098  0.00  0.00    +0.000 A 
ATOM     21  C   UNL     1      10.995  13.309  18.950  0.00  0.00    +0.000 A 
ATOM     22  C   UNL     1      10.287  12.851  17.836  0.00  0.00    +0.000 A 
ATOM     23  C   UNL     1       9.661  11.605  17.865  0.00  0.00    +0.000 A 
BRANCH  21  24
ATOM     24  O   UNL     1      11.586  14.549  19.034  0.00  0.00    +0.000 OA
BRANCH  24  25
ATOM     25  C   UNL     1      10.835  15.654  18.664  0.00  0.00    +0.000 A 
ATOM     26  C   UNL     1      11.238  16.316  17.527  0.00  0.00    +0.000 A 
ATOM     27  C   UNL     1      10.501  17.430  17.203  0.00  0.00    +0.000 A 
ATOM     28  N   UNL     1       9.448  17.856  17.923  0.00  0.00    +0.000 NA
ATOM     29  C   UNL     1       9.136  17.100  18.985  0.00  0.00    +0.000 A 
ATOM     30 CL   UNL     1       7.840  17.636  19.955  0.00  0.00    +0.000 Cl
ATOM     31  N   UNL     1       9.766  16.001  19.400  0.00  0.00    +0.000 NA
ENDBRANCH  24  25
ENDBRANCH  21  24
ENDBRANCH  17  18
ENDBRANCH   1  17
TORSDOF 10
ENDMDL
MODEL 3
REMARK VINA RESULT:      -7.4      1.703      2.578
REMARK  Name = 
REMARK  10 active torsions:
REMARK  status: ('A' for Active; 'I' for Inactive)
REMARK    1  A    between atoms: C_2  and  C_3
REMARK    2  A    between atoms: C_2  and  C_12
REMARK    3  A    between atoms: C_3  and  C_4
REMARK    4  A    between atoms: C_4  and  C_5
REMARK    5  A    between atoms: C_5  and  C_6
REMARK    6  A    between atoms: N_14  and  C_15
REMARK    7  A    between atoms: C_15  and  C_16
REMARK    8  A    between atoms: C_16  and  C_17
REMARK    9  A    between atoms: C_20  and  O_21
REMARK   10  A    between atoms: O_21  and  C_22
REMARK                            x       y       z     vdW  Elec       q    Type
REMARK                         _______ _______ _______ _____ _____    ______ ____
ROOT
ATOM      1  C   UNL     1       1.506   6.185  20.682  0.00  0.00    +0.000 C 
ENDROOT
BRANCH   1   4
ATOM      2  C   UNL     1       1.747   4.290  19.146  0.00  0.00    +0.000 C 
ATOM      3  O   UNL     1       0.904   3.606  19.704  0.00  0.00    +0.000 OA
ATOM      4  N   UNL     1       2.148   5.538  19.557  0.00  0.00    +0.000 N 
ATOM      5  H   UNL     1       2.767   6.056  18.933  0.00  0.00    +0.000 HD
BRANCH   2   7
ATOM      6  O   UNL     1       2.036   2.763  17.337  0.00  0.00    +0.000 OA
ATOM      7  C   UNL     1       2.451   3.778  17.887  0.00  0.00    +0.000 C 
BRANCH   7   8
ATOM      8  C   UNL     1       3.649   4.583  17.429  0.00  0.00    +0.000 C 
BRANCH   8   9
ATOM      9  C   UNL     1       4.717   3.722  16.759  0.00  0.00    +0.000 C 
BRANCH   9  10
ATOM     10  C   UNL     1       5.732   4.569  15.983  0.00  0.00    +0.000 C 
BRANCH  10  11
ATOM     11  C   UNL     1       6.577   5.404  16.909  0.00  0.00    +0.000 A 
ATOM     12  C   UNL     1       7.155   4.826  18.046  0.00  0.00    +0.000 A 
ATOM     13  C   UNL     1       7.919   5.604  18.920  0.00  0.00    +0.000 A 
ATOM     14  C   UNL     1       8.107   6.959  18.664  0.00  0.00    +0.000 A 
ATOM     15  C   UNL     1       7.533   7.542  17.535  0.00  0.00    +0.000 A 
ATOM     16  C   UNL     1       6.769   6.768  16.660  0.00  0.00    +0.000 A 
ENDBRANCH  10  11
ENDBRANCH   9  10
ENDBRANCH   8   9
ENDBRANCH   7   8
ENDBRANCH   2   7
ENDBRANCH   1   4
BRANCH   1  17
ATOM     17  C   UNL     1       1.963   7.630  20.896  0.00  0.00    +0.000 C 
BRANCH  17  18
ATOM     18  C   UNL     1       1.138   8.663  20.161  0.00  0.00    +0.000 A 
ATOM     19  C   UNL     1       1.361   8.975  18.812  0.00  0.00    +0.000 A 
ATOM     20  C   UNL     1       0.640   9.994  18.189  0.00  0.00    +0.000 A 
ATOM     21  C   UNL     1      -0.343  10.685  18.892  0.00  0.00    +0.000 A 
ATOM     22  C   UNL     1      -0.595  10.361  20.228  0.00  0.00    +0.000 A 
ATOM     23  C   UNL     1       0.124   9.340  20.850  0.00  0.00    +0.000 A 
BRANCH  21  24
ATOM     24  O   UNL     1      -0.956  11.718  18.220  0.00  0.00    +0.000 OA
BRANCH  24  25
ATOM     25  C   UNL     1      -2.273  11.546  17.823  0.00  0.00    +0.000 A 
ATOM     26  C   UNL     1      -2.470  11.049  16.555  0.00  0.00    +0.000 A 
ATOM     27  C   UNL     1      -3.784  10.924  16.171  0.00  0.00    +0.000 A 
ATOM     28  N   UNL     1      -4.821  11.246  16.965  0.00  0.00    +0.000 NA
ATOM     29  C   UNL     1      -4.493  11.681  18.189  0.00  0.00    +0.000 A 
ATOM     30 CL   UNL     1      -5.777  12.151  19.207  0.00  0.00    +0.000 Cl
ATOM     31  N   UNL     1      -3.264  11.842  18.680  0.00  0.00    +0.000 NA
ENDBRANCH  24  25
ENDBRANCH  21  24
ENDBRANCH  17  18
ENDBRANCH   1  17
TORSDOF 10
ENDMDL
MODEL 4
REMARK VINA RESULT:      -7.3      7.362      9.310
REMARK  Name = 
REMARK  10 active torsions:
REMARK  status: ('A' for Active; 'I' for Inactive)
REMARK    1  A    between atoms: C_2  and  C_3
REMARK    2  A    between atoms: C_2  and  C_12
REMARK    3  A    between atoms: C_3  and  C_4
REMARK    4  A    between atoms: C_4  and  C_5
REMARK    5  A    between atoms: C_5  and  C_6
REMARK    6  A    between atoms: N_14  and  C_15
REMARK    7  A    between atoms: C_15  and  C_16
REMARK    8  A    between atoms: C_16  and  C_17
REMARK    9  A    between atoms: C_20  and  O_21
REMARK   10  A    between atoms: O_21  and  C_22
REMARK                            x       y       z     vdW  Elec       q    Type
REMARK                         _______ _______ _______ _____ _____    ______ ____
ROOT
ATOM      1  C   UNL     1       7.599   8.927  17.779  0.00  0.00    +0.000 C 
ENDROOT
BRANCH   1   4
ATOM      2  C   UNL     1       7.043   6.572  17.381  0.00  0.00    +0.000 C 
ATOM      3  O   UNL     1       6.722   6.353  18.538  0.00  0.00    +0.000 OA
ATOM      4  N   UNL     1       7.521   7.772  16.909  0.00  0.00    +0.000 N 
ATOM      5  H   UNL     1       7.632   7.862  15.899  0.00  0.00    +0.000 HD
BRANCH   2   7
ATOM      6  O   UNL     1       7.465   5.633  15.230  0.00  0.00    +0.000 OA
ATOM      7  C   UNL     1       6.929   5.473  16.322  0.00  0.00    +0.000 C 
BRANCH   7   8
ATOM      8  C   UNL     1       6.120   4.256  16.721  0.00  0.00    +0.000 C 
BRANCH   8   9
ATOM      9  C   UNL     1       4.615   4.502  16.660  0.00  0.00    +0.000 C 
BRANCH   9  10
ATOM     10  C   UNL     1       3.818   3.318  17.218  0.00  0.00    +0.000 C 
BRANCH  10  11
ATOM     11  C   UNL     1       2.946   3.735  18.373  0.00  0.00    +0.000 A 
ATOM     12  C   UNL     1       3.428   4.640  19.328  0.00  0.00    +0.000 A 
ATOM     13  C   UNL     1       2.631   5.009  20.413  0.00  0.00    +0.000 A 
ATOM     14  C   UNL     1       1.352   4.476  20.553  0.00  0.00    +0.000 A 
ATOM     15  C   UNL     1       0.866   3.574  19.608  0.00  0.00    +0.000 A 
ATOM     16  C   UNL     1       1.661   3.202  18.522  0.00  0.00    +0.000 A 
ENDBRANCH  10  11
ENDBRANCH   9  10
ENDBRANCH   8   9
ENDBRANCH   7   8
ENDBRANCH   2   7
ENDBRANCH   1   4
BRANCH   1  17
ATOM     17  C   UNL     1       8.832   8.925  18.684  0.00  0.00    +0.000 C 
BRANCH  17  18
ATOM     18  C   UNL     1       9.400  10.298  18.972  0.00  0.00    +0.000 A 
ATOM     19  C   UNL     1       9.906  11.125  17.959  0.00  0.00    +0.000 A 
ATOM     20  C   UNL     1      10.501  12.348  18.269  0.00  0.00    +0.000 A 
ATOM     21  C   UNL     1      10.558  12.781  19.591  0.00  0.00    +0.000 A 
ATOM     22  C   UNL     1      10.029  11.978  20.606  0.00  0.00    +0.000 A 
ATOM     23  C   UNL     1       9.431  10.757  20.294  0.00  0.00    +0.000 A 
BRANCH  21  24
ATOM     24  O   UNL     1      11.222  13.966  19.811  0.00  0.00    +0.000 OA
BRANCH  24  25
ATOM     25  C   UNL     1      10.469  15.084  20.134  0.00  0.00    +0.000 A 
ATOM     26  C   UNL     1      10.555  15.526  21.434  0.00  0.00    +0.000 A 
ATOM     27  C   UNL     1       9.770  16.612  21.739  0.00  0.00    +0.000 A 
ATOM     28  N   UNL     1       8.975  17.225  20.844  0.00  0.00    +0.000 NA
ATOM     29  C   UNL     1       9.011  16.719  19.603  0.00  0.00    +0.000 A 
ATOM     30 CL   UNL     1       7.976  17.433  18.452  0.00  0.00    +0.000 Cl
ATOM     31  N   UNL     1       9.730  15.678  19.182  0.00  0.00    +0.000 NA
ENDBRANCH  24  25
ENDBRANCH  21  24
ENDBRANCH  17  18
ENDBRANCH   1  17
TORSDOF 10
ENDMDL
MODEL 5
REMARK VINA RESULT:      -7.3      1.059      1.275
REMARK  Name = 
REMARK  10 active torsions:
REMARK  status: ('A' for Active; 'I' for Inactive)
REMARK    1  A    between atoms: C_2  and  C_3
REMARK    2  A    between atoms: C_2  and  C_12
REMARK    3  A    between atoms: C_3  and  C_4
REMARK    4  A    between atoms: C_4  and  C_5
REMARK    5  A    between atoms: C_5  and  C_6
REMARK    6  A    between atoms: N_14  and  C_15
REMARK    7  A    between atoms: C_15  and  C_16
REMARK    8  A    between atoms: C_16  and  C_17
REMARK    9  A    between atoms: C_20  and  O_21
REMARK   10  A    between atoms: O_21  and  C_22
REMARK                            x       y       z     vdW  Elec       q    Type
REMARK                         _______ _______ _______ _____ _____    ______ ____
ROOT
ATOM      1  C   UNL     1       1.218   6.409  20.743  0.00  0.00    +0.000 C 
ENDROOT
BRANCH   1   4
ATOM      2  C   UNL     1       1.582   3.988  20.618  0.00  0.00    +0.000 C 
ATOM      3  O   UNL     1       0.490   3.751  20.130  0.00  0.00    +0.000 OA
ATOM      4  N   UNL     1       2.026   5.234  20.992  0.00  0.00    +0.000 N 
ATOM      5  H   UNL     1       3.004   5.315  21.268  0.00  0.00    +0.000 HD
BRANCH   2   7
ATOM      6  O   UNL     1       2.861   2.533  22.009  0.00  0.00    +0.000 OA
ATOM      7  C   UNL     1       2.586   2.858  20.858  0.00  0.00    +0.000 C 
BRANCH   7   8
ATOM      8  C   UNL     1       3.187   2.235  19.615  0.00  0.00    +0.000 C 
BRANCH   8   9
ATOM      9  C   UNL     1       3.451   3.257  18.512  0.00  0.00    +0.000 C 
BRANCH   9  10
ATOM     10  C   UNL     1       4.764   4.015  18.737  0.00  0.00    +0.000 C 
BRANCH  10  11
ATOM     11  C   UNL     1       5.473   4.291  17.437  0.00  0.00    +0.000 A 
ATOM     12  C   UNL     1       4.786   4.170  16.223  0.00  0.00    +0.000 A 
ATOM     13  C   UNL     1       5.447   4.401  15.014  0.00  0.00    +0.000 A 
ATOM     14  C   UNL     1       6.795   4.749  15.012  0.00  0.00    +0.000 A 
ATOM     15  C   UNL     1       7.486   4.869  16.217  0.00  0.00    +0.000 A 
ATOM     16  C   UNL     1       6.828   4.639  17.426  0.00  0.00    +0.000 A 
ENDBRANCH  10  11
ENDBRANCH   9  10
ENDBRANCH   8   9
ENDBRANCH   7   8
ENDBRANCH   2   7
ENDBRANCH   1   4
BRANCH   1  17
ATOM     17  C   UNL     1       2.040   7.687  20.561  0.00  0.00    +0.000 C 
BRANCH  17  18
ATOM     18  C   UNL     1       1.250   8.874  20.055  0.00  0.00    +0.000 A 
ATOM     19  C   UNL     1       0.377   9.597  20.881  0.00  0.00    +0.000 A 
ATOM     20  C   UNL     1      -0.401  10.632  20.362  0.00  0.00    +0.000 A 
ATOM     21  C   UNL     1      -0.283  10.988  19.021  0.00  0.00    +0.000 A 
ATOM     22  C   UNL     1       0.606  10.294  18.196  0.00  0.00    +0.000 A 
ATOM     23  C   UNL     1       1.387   9.261  18.717  0.00  0.00    +0.000 A 
BRANCH  21  24
ATOM     24  O   UNL     1      -1.137  11.973  18.580  0.00  0.00    +0.000 OA
BRANCH  24  25
ATOM     25  C   UNL     1      -2.265  11.587  17.873  0.00  0.00    +0.000 A 
ATOM     26  C   UNL     1      -3.465  11.670  18.542  0.00  0.00    +0.000 A 
ATOM     27  C   UNL     1      -4.564  11.246  17.834  0.00  0.00    +0.000 A 
ATOM     28  N   UNL     1      -4.498  10.790  16.570  0.00  0.00    +0.000 NA
ATOM     29  C   UNL     1      -3.277  10.796  16.020  0.00  0.00    +0.000 A 
ATOM     30 CL   UNL     1      -3.143  10.174  14.438  0.00  0.00    +0.000 Cl
ATOM     31  N   UNL     1      -2.140  11.185  16.598  0.00  0.00    +0.000 NA
ENDBRANCH  24  25
ENDBRANCH  21  24
ENDBRANCH  17  18
ENDBRANCH   1  17
TORSDOF 10
ENDMDL
MODEL 6
REMARK VINA RESULT:      -7.3      7.212      9.128
REMARK  Name = 
REMARK  10 active torsions:
REMARK  status: ('A' for Active; 'I' for Inactive)
REMARK    1  A    between atoms: C_2  and  C_3
REMARK    2  A    between atoms: C_2  and  C_12
REMARK    3  A    between atoms: C_3  and  C_4
REMARK    4  A    between atoms: C_4  and  C_5
REMARK    5  A    between atoms: C_5  and  C_6
REMARK    6  A    between atoms: N_14  and  C_15
REMARK    7  A    between atoms: C_15  and  C_16
REMARK    8  A    between atoms: C_16  and  C_17
REMARK    9  A    between atoms: C_20  and  O_21
REMARK   10  A    between atoms: O_21  and  C_22
REMARK                            x       y       z     vdW  Elec       q    Type
REMARK                         _______ _______ _______ _____ _____    ______ ____
ROOT
ATOM      1  C   UNL     1       7.626   8.629  17.696  0.00  0.00    +0.000 C 
ENDROOT
BRANCH   1   4
ATOM      2  C   UNL     1       6.972   6.267  17.665  0.00  0.00    +0.000 C 
ATOM      3  O   UNL     1       6.459   6.294  18.771  0.00  0.00    +0.000 OA
ATOM      4  N   UNL     1       7.602   7.328  17.060  0.00  0.00    +0.000 N 
ATOM      5  H   UNL     1       7.876   7.212  16.085  0.00  0.00    +0.000 HD
BRANCH   2   7
ATOM      6  O   UNL     1       7.981   4.341  16.685  0.00  0.00    +0.000 OA
ATOM      7  C   UNL     1       6.946   4.984  16.830  0.00  0.00    +0.000 C 
BRANCH   7   8
ATOM      8  C   UNL     1       5.609   4.623  16.218  0.00  0.00    +0.000 C 
BRANCH   8   9
ATOM      9  C   UNL     1       4.703   3.864  17.184  0.00  0.00    +0.000 C 
BRANCH   9  10
ATOM     10  C   UNL     1       3.227   4.228  16.991  0.00  0.00    +0.000 C 
BRANCH  10  11
ATOM     11  C   UNL     1       2.445   4.058  18.267  0.00  0.00    +0.000 A 
ATOM     12  C   UNL     1       2.651   4.934  19.340  0.00  0.00    +0.000 A 
ATOM     13  C   UNL     1       1.945   4.764  20.533  0.00  0.00    +0.000 A 
ATOM     14  C   UNL     1       1.035   3.718  20.661  0.00  0.00    +0.000 A 
ATOM     15  C   UNL     1       0.825   2.841  19.599  0.00  0.00    +0.000 A 
ATOM     16  C   UNL     1       1.529   3.009  18.405  0.00  0.00    +0.000 A 
ENDBRANCH  10  11
ENDBRANCH   9  10
ENDBRANCH   8   9
ENDBRANCH   7   8
ENDBRANCH   2   7
ENDBRANCH   1   4
BRANCH   1  17
ATOM     17  C   UNL     1       8.766   8.794  18.703  0.00  0.00    +0.000 C 
BRANCH  17  18
ATOM     18  C   UNL     1       9.225  10.222  18.902  0.00  0.00    +0.000 A 
ATOM     19  C   UNL     1       9.557  11.057  17.824  0.00  0.00    +0.000 A 
ATOM     20  C   UNL     1      10.059  12.339  18.046  0.00  0.00    +0.000 A 
ATOM     21  C   UNL     1      10.195  12.820  19.345  0.00  0.00    +0.000 A 
ATOM     22  C   UNL     1       9.839  12.008  20.425  0.00  0.00    +0.000 A 
ATOM     23  C   UNL     1       9.333  10.727  20.203  0.00  0.00    +0.000 A 
BRANCH  21  24
ATOM     24  O   UNL     1      10.762  14.068  19.472  0.00  0.00    +0.000 OA
BRANCH  24  25
ATOM     25  C   UNL     1       9.916  15.154  19.632  0.00  0.00    +0.000 A 
ATOM     26  C   UNL     1       9.363  15.674  18.484  0.00  0.00    +0.000 A 
ATOM     27  C   UNL     1       8.558  16.774  18.665  0.00  0.00    +0.000 A 
ATOM     28  N   UNL     1       8.304  17.314  19.870  0.00  0.00    +0.000 NA
ATOM     29  C   UNL     1       8.872  16.690  20.910  0.00  0.00    +0.000 A 
ATOM     30 CL   UNL     1       8.619  17.377  22.451  0.00  0.00    +0.000 Cl
ATOM     31  N   UNL     1       9.665  15.619  20.867  0.00  0.00    +0.000 NA
ENDBRANCH  24  25
ENDBRANCH  21  24
ENDBRANCH  17  18
ENDBRANCH   1  17
TORSDOF 10
ENDMDL
MODEL 7
REMARK VINA RESULT:      -7.2      3.552      4.832
REMARK  Name = 
REMARK  10 active torsions:
REMARK  status: ('A' for Active; 'I' for Inactive)
REMARK    1  A    between atoms: C_2  and  C_3
REMARK    2  A    between atoms: C_2  and  C_12
REMARK    3  A    between atoms: C_3  and  C_4
REMARK    4  A    between atoms: C_4  and  C_5
REMARK    5  A    between atoms: C_5  and  C_6
REMARK    6  A    between atoms: N_14  and  C_15
REMARK    7  A    between atoms: C_15  and  C_16
REMARK    8  A    between atoms: C_16  and  C_17
REMARK    9  A    between atoms: C_20  and  O_21
REMARK   10  A    between atoms: O_21  and  C_22
REMARK                            x       y       z     vdW  Elec       q    Type
REMARK                         _______ _______ _______ _____ _____    ______ ____
ROOT
ATOM      1  C   UNL     1       4.105   7.573  17.529  0.00  0.00    +0.000 C 
ENDROOT
BRANCH   1   4
ATOM      2  C   UNL     1       5.946   6.110  16.836  0.00  0.00    +0.000 C 
ATOM      3  O   UNL     1       6.604   6.298  17.847  0.00  0.00    +0.000 OA
ATOM      4  N   UNL     1       4.740   6.706  16.557  0.00  0.00    +0.000 N 
ATOM      5  H   UNL     1       4.233   6.369  15.740  0.00  0.00    +0.000 HD
BRANCH   2   7
ATOM      6  O   UNL     1       7.347   5.504  15.004  0.00  0.00    +0.000 OA
ATOM      7  C   UNL     1       6.444   5.148  15.755  0.00  0.00    +0.000 C 
BRANCH   7   8
ATOM      8  C   UNL     1       5.741   3.809  15.691  0.00  0.00    +0.000 C 
BRANCH   8   9
ATOM      9  C   UNL     1       4.394   3.814  16.408  0.00  0.00    +0.000 C 
BRANCH   9  10
ATOM     10  C   UNL     1       4.423   2.969  17.687  0.00  0.00    +0.000 C 
BRANCH  10  11
ATOM     11  C   UNL     1       3.265   3.297  18.592  0.00  0.00    +0.000 A 
ATOM     12  C   UNL     1       3.492   3.614  19.937  0.00  0.00    +0.000 A 
ATOM     13  C   UNL     1       2.418   3.895  20.785  0.00  0.00    +0.000 A 
ATOM     14  C   UNL     1       1.115   3.858  20.296  0.00  0.00    +0.000 A 
ATOM     15  C   UNL     1       0.881   3.542  18.958  0.00  0.00    +0.000 A 
ATOM     16  C   UNL     1       1.952   3.261  18.108  0.00  0.00    +0.000 A 
ENDBRANCH  10  11
ENDBRANCH   9  10
ENDBRANCH   8   9
ENDBRANCH   7   8
ENDBRANCH   2   7
ENDBRANCH   1   4
BRANCH   1  17
ATOM     17  C   UNL     1       2.921   6.919  18.245  0.00  0.00    +0.000 C 
BRANCH  17  18
ATOM     18  C   UNL     1       2.096   7.868  19.087  0.00  0.00    +0.000 A 
ATOM     19  C   UNL     1       1.741   7.575  20.412  0.00  0.00    +0.000 A 
ATOM     20  C   UNL     1       0.908   8.432  21.131  0.00  0.00    +0.000 A 
ATOM     21  C   UNL     1       0.454   9.614  20.551  0.00  0.00    +0.000 A 
ATOM     22  C   UNL     1       0.827   9.931  19.242  0.00  0.00    +0.000 A 
ATOM     23  C   UNL     1       1.663   9.075  18.524  0.00  0.00    +0.000 A 
BRANCH  21  24
ATOM     24  O   UNL     1      -0.417  10.364  21.309  0.00  0.00    +0.000 OA
BRANCH  24  25
ATOM     25  C   UNL     1      -0.437  11.735  21.111  0.00  0.00    +0.000 A 
ATOM     26  C   UNL     1      -1.512  12.239  20.414  0.00  0.00    +0.000 A 
ATOM     27  C   UNL     1      -1.489  13.596  20.198  0.00  0.00    +0.000 A 
ATOM     28  N   UNL     1      -0.503  14.398  20.637  0.00  0.00    +0.000 NA
ATOM     29  C   UNL     1       0.465  13.789  21.334  0.00  0.00    +0.000 A 
ATOM     30 CL   UNL     1       1.762  14.763  21.862  0.00  0.00    +0.000 Cl
ATOM     31  N   UNL     1       0.555  12.489  21.615  0.00  0.00    +0.000 NA
ENDBRANCH  24  25
ENDBRANCH  21  24
ENDBRANCH  17  18
ENDBRANCH   1  17
TORSDOF 10
ENDMDL
MODEL 8
REMARK VINA RESULT:      -7.2      7.529      9.807
REMARK  Name = 
REMARK  10 active torsions:
REMARK  status: ('A' for Active; 'I' for Inactive)
REMARK    1  A    between atoms: C_2  and  C_3
REMARK    2  A    between atoms: C_2  and  C_12
REMARK    3  A    between atoms: C_3  and  C_4
REMARK    4  A    between atoms: C_4  and  C_5
REMARK    5  A    between atoms: C_5  and  C_6
REMARK    6  A    between atoms: N_14  and  C_15
REMARK    7  A    between atoms: C_15  and  C_16
REMARK    8  A    between atoms: C_16  and  C_17
REMARK    9  A    between atoms: C_20  and  O_21
REMARK   10  A    between atoms: O_21  and  C_22
REMARK                            x       y       z     vdW  Elec       q    Type
REMARK                         _______ _______ _______ _____ _____    ______ ____
ROOT
ATOM      1  C   UNL     1       8.544   8.416  17.760  0.00  0.00    +0.000 C 
ENDROOT
BRANCH   1   4
ATOM      2  C   UNL     1       6.875   6.832  16.913  0.00  0.00    +0.000 C 
ATOM      3  O   UNL     1       7.608   5.861  17.007  0.00  0.00    +0.000 OA
ATOM      4  N   UNL     1       7.236   8.124  17.212  0.00  0.00    +0.000 N 
ATOM      5  H   UNL     1       6.495   8.824  17.213  0.00  0.00    +0.000 HD
BRANCH   2   7
ATOM      6  O   UNL     1       5.218   6.270  15.293  0.00  0.00    +0.000 OA
ATOM      7  C   UNL     1       5.431   6.670  16.433  0.00  0.00    +0.000 C 
BRANCH   7   8
ATOM      8  C   UNL     1       4.358   7.051  17.432  0.00  0.00    +0.000 C 
BRANCH   8   9
ATOM      9  C   UNL     1       4.309   6.110  18.633  0.00  0.00    +0.000 C 
BRANCH   9  10
ATOM     10  C   UNL     1       2.976   6.208  19.383  0.00  0.00    +0.000 C 
BRANCH  10  11
ATOM     11  C   UNL     1       2.204   4.917  19.307  0.00  0.00    +0.000 A 
ATOM     12  C   UNL     1       1.482   4.463  20.419  0.00  0.00    +0.000 A 
ATOM     13  C   UNL     1       0.786   3.254  20.360  0.00  0.00    +0.000 A 
ATOM     14  C   UNL     1       0.810   2.492  19.195  0.00  0.00    +0.000 A 
ATOM     15  C   UNL     1       1.527   2.936  18.085  0.00  0.00    +0.000 A 
ATOM     16  C   UNL     1       2.224   4.144  18.141  0.00  0.00    +0.000 A 
ENDBRANCH  10  11
ENDBRANCH   9  10
ENDBRANCH   8   9
ENDBRANCH   7   8
ENDBRANCH   2   7
ENDBRANCH   1   4
BRANCH   1  17
ATOM     17  C   UNL     1       8.492   9.169  19.091  0.00  0.00    +0.000 C 
BRANCH  17  18
ATOM     18  C   UNL     1       9.297  10.449  19.118  0.00  0.00    +0.000 A 
ATOM     19  C   UNL     1       9.792  11.046  17.949  0.00  0.00    +0.000 A 
ATOM     20  C   UNL     1      10.603  12.179  18.017  0.00  0.00    +0.000 A 
ATOM     21  C   UNL     1      10.895  12.756  19.250  0.00  0.00    +0.000 A 
ATOM     22  C   UNL     1      10.382  12.187  20.419  0.00  0.00    +0.000 A 
ATOM     23  C   UNL     1       9.568  11.057  20.351  0.00  0.00    +0.000 A 
BRANCH  21  24
ATOM     24  O   UNL     1      11.757  13.828  19.227  0.00  0.00    +0.000 OA
BRANCH  24  25
ATOM     25  C   UNL     1      11.365  14.964  18.537  0.00  0.00    +0.000 A 
ATOM     26  C   UNL     1      12.252  15.453  17.606  0.00  0.00    +0.000 A 
ATOM     27  C   UNL     1      11.856  16.602  16.963  0.00  0.00    +0.000 A 
ATOM     28  N   UNL     1      10.684  17.216  17.201  0.00  0.00    +0.000 NA
ATOM     29  C   UNL     1       9.895  16.617  18.102  0.00  0.00    +0.000 A 
ATOM     30 CL   UNL     1       8.422  17.395  18.472  0.00  0.00    +0.000 Cl
ATOM     31  N   UNL     1      10.160  15.505  18.787  0.00  0.00    +0.000 NA
ENDBRANCH  24  25
ENDBRANCH  21  24
ENDBRANCH  17  18
ENDBRANCH   1  17
TORSDOF 10
ENDMDL
MODEL 9
REMARK VINA RESULT:      -7.2      7.391      9.565
REMARK  Name = 
REMARK  10 active torsions:
REMARK  status: ('A' for Active; 'I' for Inactive)
REMARK    1  A    between atoms: C_2  and  C_3
REMARK    2  A    between atoms: C_2  and  C_12
REMARK    3  A    between atoms: C_3  and  C_4
REMARK    4  A    between atoms: C_4  and  C_5
REMARK    5  A    between atoms: C_5  and  C_6
REMARK    6  A    between atoms: N_14  and  C_15
REMARK    7  A    between atoms: C_15  and  C_16
REMARK    8  A    between atoms: C_16  and  C_17
REMARK    9  A    between atoms: C_20  and  O_21
REMARK   10  A    between atoms: O_21  and  C_22
REMARK                            x       y       z     vdW  Elec       q    Type
REMARK                         _______ _______ _______ _____ _____    ______ ____
ROOT
ATOM      1  C   UNL     1       7.934   7.846  18.257  0.00  0.00    +0.000 C 
ENDROOT
BRANCH   1   4
ATOM      2  C   UNL     1       7.327   5.502  17.874  0.00  0.00    +0.000 C 
ATOM      3  O   UNL     1       7.895   5.091  18.872  0.00  0.00    +0.000 OA
ATOM      4  N   UNL     1       7.314   6.812  17.456  0.00  0.00    +0.000 N 
ATOM      5  H   UNL     1       6.698   7.045  16.678  0.00  0.00    +0.000 HD
BRANCH   2   7
ATOM      6  O   UNL     1       7.088   4.090  15.967  0.00  0.00    +0.000 OA
ATOM      7  C   UNL     1       6.548   4.540  16.973  0.00  0.00    +0.000 C 
BRANCH   7   8
ATOM      8  C   UNL     1       5.129   4.238  17.403  0.00  0.00    +0.000 C 
BRANCH   8   9
ATOM      9  C   UNL     1       4.118   5.238  16.849  0.00  0.00    +0.000 C 
BRANCH   9  10
ATOM     10  C   UNL     1       3.278   5.879  17.959  0.00  0.00    +0.000 C 
BRANCH  10  11
ATOM     11  C   UNL     1       2.589   4.837  18.801  0.00  0.00    +0.000 A 
ATOM     12  C   UNL     1       1.737   3.899  18.202  0.00  0.00    +0.000 A 
ATOM     13  C   UNL     1       1.078   2.948  18.984  0.00  0.00    +0.000 A 
ATOM     14  C   UNL     1       1.262   2.930  20.364  0.00  0.00    +0.000 A 
ATOM     15  C   UNL     1       2.106   3.861  20.967  0.00  0.00    +0.000 A 
ATOM     16  C   UNL     1       2.767   4.813  20.189  0.00  0.00    +0.000 A 
ENDBRANCH  10  11
ENDBRANCH   9  10
ENDBRANCH   8   9
ENDBRANCH   7   8
ENDBRANCH   2   7
ENDBRANCH   1   4
BRANCH   1  17
ATOM     17  C   UNL     1       7.909   9.226  17.596  0.00  0.00    +0.000 C 
BRANCH  17  18
ATOM     18  C   UNL     1       8.760  10.268  18.287  0.00  0.00    +0.000 A 
ATOM     19  C   UNL     1       9.335  10.048  19.548  0.00  0.00    +0.000 A 
ATOM     20  C   UNL     1      10.042  11.061  20.195  0.00  0.00    +0.000 A 
ATOM     21  C   UNL     1      10.223  12.293  19.572  0.00  0.00    +0.000 A 
ATOM     22  C   UNL     1       9.681  12.513  18.303  0.00  0.00    +0.000 A 
ATOM     23  C   UNL     1       8.976  11.499  17.655  0.00  0.00    +0.000 A 
BRANCH  21  24
ATOM     24  O   UNL     1      10.873  13.255  20.311  0.00  0.00    +0.000 OA
BRANCH  24  25
ATOM     25  C   UNL     1      11.048  14.506  19.741  0.00  0.00    +0.000 A 
ATOM     26  C   UNL     1      12.162  14.668  18.950  0.00  0.00    +0.000 A 
ATOM     27  C   UNL     1      12.333  15.928  18.427  0.00  0.00    +0.000 A 
ATOM     28  N   UNL     1      11.480  16.943  18.650  0.00  0.00    +0.000 NA
ATOM     29  C   UNL     1      10.416  16.643  19.406  0.00  0.00    +0.000 A 
ATOM     30 CL   UNL     1       9.338  17.918  19.756  0.00  0.00    +0.000 Cl
ATOM     31  N   UNL     1      10.135  15.466  19.964  0.00  0.00    +0.000 NA
ENDBRANCH  24  25
ENDBRANCH  21  24
ENDBRANCH  17  18
ENDBRANCH   1  17
TORSDOF 10
ENDMDL
