MODEL 1
REMARK VINA RESULT:      -7.8      0.000      0.000
REMARK  Name = 
REMARK  10 active torsions:
REMARK  status: ('A' for Active; 'I' for Inactive)
REMARK    1  A    between atoms: C_1  and  C_2
REMARK    2  A    between atoms: C_2  and  N_3
REMARK    3  A    between atoms: C_7  and  C_8
REMARK    4  A    between atoms: C_11  and  O_12
REMARK    5  A    between atoms: C_13  and  C_14
REMARK    6  A    between atoms: C_17  and  S_18
REMARK    7  A    between atoms: S_18  and  C_21
REMARK    8  A    between atoms: C_21  and  C_22
REMARK    9  A    between atoms: C_24  and  O_25
REMARK   10  A    between atoms: O_25  and  C_26
REMARK                            x       y       z     vdW  Elec       q    Type
REMARK                         _______ _______ _______ _____ _____    ______ ____
ROOT
ATOM      1  C   UNL     1      -1.700  11.907  18.532  0.00  0.00    +0.000 A 
ATOM      2  C   UNL     1      -1.002  13.105  18.348  0.00  0.00    +0.000 A 
ATOM      3  C   UNL     1       0.385  13.147  18.459  0.00  0.00    +0.000 A 
ATOM      4  C   UNL     1       1.107  11.975  18.708  0.00  0.00    +0.000 A 
ATOM      5  C   UNL     1       0.474  10.722  18.875  0.00  0.00    +0.000 A 
ATOM      6  C   UNL     1      -0.939  10.754  18.834  0.00  0.00    +0.000 A 
ENDROOT
BRANCH   1  11
ATOM      7  N   UNL     1      -6.069  12.369  20.247  0.00  0.00    +0.000 N 
ATOM      8  C   UNL     1      -5.120  12.692  21.174  0.00  0.00    +0.000 A 
ATOM      9  N   UNL     1      -3.905  12.580  20.684  0.00  0.00    +0.000 NA
ATOM     10  C   UNL     1      -4.070  12.154  19.377  0.00  0.00    +0.000 A 
ATOM     11  C   UNL     1      -3.158  11.844  18.357  0.00  0.00    +0.000 A 
ATOM     12  C   UNL     1      -3.788  11.435  17.176  0.00  0.00    +0.000 A 
ATOM     13  N   UNL     1      -5.130  11.343  16.965  0.00  0.00    +0.000 NA
ATOM     14  N   UNL     1      -5.968  11.641  17.932  0.00  0.00    +0.000 NA
ATOM     15  C   UNL     1      -5.421  12.025  19.097  0.00  0.00    +0.000 A 
BRANCH   7  17
ATOM     16  C   UNL     1      -7.870  12.559  21.909  0.00  0.00    +0.000 C 
ATOM     17  C   UNL     1      -7.500  12.368  20.449  0.00  0.00    +0.000 C 
ENDBRANCH   7  17
ENDBRANCH   1  11
BRANCH   5  18
ATOM     18  C   UNL     1       1.212   9.416  19.050  0.00  0.00    +0.000 A 
ATOM     19  C   UNL     1       1.778   8.772  17.922  0.00  0.00    +0.000 A 
ATOM     20  C   UNL     1       2.369   7.506  17.986  0.00  0.00    +0.000 A 
ATOM     21  C   UNL     1       2.470   6.871  19.214  0.00  0.00    +0.000 A 
ATOM     22  C   UNL     1       1.982   7.479  20.363  0.00  0.00    +0.000 A 
ATOM     23  C   UNL     1       1.361   8.738  20.298  0.00  0.00    +0.000 A 
BRANCH  21  24
ATOM     24  S   UNL     1       3.190   5.256  19.318  0.00  0.00    +0.000 S 
ATOM     25  O   UNL     1       2.747   4.505  18.150  0.00  0.00    +0.000 OA
ATOM     26  O   UNL     1       4.599   5.446  19.590  0.00  0.00    +0.000 OA
BRANCH  24  27
ATOM     27  C   UNL     1       2.417   4.534  20.747  0.00  0.00    +0.000 C 
ATOM     28  C   UNL     1       1.123   3.841  20.370  0.00  0.00    +0.000 C 
ENDBRANCH  24  27
ENDBRANCH  21  24
BRANCH  23  29
ATOM     29  O   UNL     1       0.802   9.281  21.434  0.00  0.00    +0.000 OA
ATOM     30  C   UNL     1      -0.390   8.654  21.916  0.00  0.00    +0.000 C 
ENDBRANCH  23  29
ENDBRANCH   5  18
BRANCH   4  31
ATOM     31  O   UNL     1       2.474  12.096  18.762  0.00  0.00    +0.000 OA
ATOM     32  H   UNL     1       2.722  13.016  18.573  0.00  0.00    +0.000 HD
ENDBRANCH   4  31
TORSDOF 7
ENDMDL
MODEL 2
REMARK VINA RESULT:      -7.5      3.621      5.726
REMARK  Name = 
REMARK  10 active torsions:
REMARK  status: ('A' for Active; 'I' for Inactive)
REMARK    1  A    between atoms: C_1  and  C_2
REMARK    2  A    between atoms: C_2  and  N_3
REMARK    3  A    between atoms: C_7  and  C_8
REMARK    4  A    between atoms: C_11  and  O_12
REMARK    5  A    between atoms: C_13  and  C_14
REMARK    6  A    between atoms: C_17  and  S_18
REMARK    7  A    between atoms: S_18  and  C_21
REMARK    8  A    between atoms: C_21  and  C_22
REMARK    9  A    between atoms: C_24  and  O_25
REMARK   10  A    between atoms: O_25  and  C_26
REMARK                            x       y       z     vdW  Elec       q    Type
REMARK                         _______ _______ _______ _____ _____    ______ ____
ROOT
ATOM      1  C   UNL     1       0.880   9.296  19.369  0.00  0.00    +0.000 A 
ATOM      2  C   UNL     1       0.560   8.821  20.646  0.00  0.00    +0.000 A 
ATOM      3  C   UNL     1       1.107   7.633  21.123  0.00  0.00    +0.000 A 
ATOM      4  C   UNL     1       2.027   6.921  20.347  0.00  0.00    +0.000 A 
ATOM      5  C   UNL     1       2.423   7.354  19.061  0.00  0.00    +0.000 A 
ATOM      6  C   UNL     1       1.773   8.521  18.595  0.00  0.00    +0.000 A 
ENDROOT
BRANCH   1  11
ATOM      7  N   UNL     1       1.138  13.996  19.065  0.00  0.00    +0.000 N 
ATOM      8  C   UNL     1       2.186  13.471  19.767  0.00  0.00    +0.000 A 
ATOM      9  N   UNL     1       2.118  12.159  19.832  0.00  0.00    +0.000 NA
ATOM     10  C   UNL     1       0.966  11.814  19.147  0.00  0.00    +0.000 A 
ATOM     11  C   UNL     1       0.353  10.580  18.884  0.00  0.00    +0.000 A 
ATOM     12  C   UNL     1      -0.830  10.711  18.147  0.00  0.00    +0.000 A 
ATOM     13  N   UNL     1      -1.372  11.873  17.688  0.00  0.00    +0.000 NA
ATOM     14  N   UNL     1      -0.779  13.018  17.941  0.00  0.00    +0.000 NA
ATOM     15  C   UNL     1       0.353  12.957  18.660  0.00  0.00    +0.000 A 
BRANCH   7  17
ATOM     16  C   UNL     1      -0.082  15.995  19.812  0.00  0.00    +0.000 C 
ATOM     17  C   UNL     1       0.892  15.397  18.812  0.00  0.00    +0.000 C 
ENDBRANCH   7  17
ENDBRANCH   1  11
BRANCH   5  18
ATOM     18  C   UNL     1       3.482   6.675  18.225  0.00  0.00    +0.000 A 
ATOM     19  C   UNL     1       4.666   7.374  17.886  0.00  0.00    +0.000 A 
ATOM     20  C   UNL     1       5.634   6.857  17.019  0.00  0.00    +0.000 A 
ATOM     21  C   UNL     1       5.470   5.576  16.515  0.00  0.00    +0.000 A 
ATOM     22  C   UNL     1       4.356   4.822  16.858  0.00  0.00    +0.000 A 
ATOM     23  C   UNL     1       3.367   5.350  17.705  0.00  0.00    +0.000 A 
BRANCH  21  24
ATOM     24  S   UNL     1       6.668   4.907  15.394  0.00  0.00    +0.000 S 
ATOM     25  O   UNL     1       6.912   5.910  14.366  0.00  0.00    +0.000 OA
ATOM     26  O   UNL     1       7.752   4.392  16.203  0.00  0.00    +0.000 OA
BRANCH  24  27
ATOM     27  C   UNL     1       5.823   3.545  14.627  0.00  0.00    +0.000 C 
ATOM     28  C   UNL     1       5.937   3.618  13.117  0.00  0.00    +0.000 C 
ENDBRANCH  24  27
ENDBRANCH  21  24
BRANCH  23  29
ATOM     29  O   UNL     1       2.226   4.620  17.956  0.00  0.00    +0.000 OA
ATOM     30  C   UNL     1       2.327   3.204  17.778  0.00  0.00    +0.000 C 
ENDBRANCH  23  29
ENDBRANCH   5  18
BRANCH   4  31
ATOM     31  O   UNL     1       2.551   5.781  20.907  0.00  0.00    +0.000 OA
ATOM     32  H   UNL     1       3.083   6.022  21.683  0.00  0.00    +0.000 HD
ENDBRANCH   4  31
TORSDOF 7
ENDMDL
MODEL 3
REMARK VINA RESULT:      -7.5      0.992      1.283
REMARK  Name = 
REMARK  10 active torsions:
REMARK  status: ('A' for Active; 'I' for Inactive)
REMARK    1  A    between atoms: C_1  and  C_2
REMARK    2  A    between atoms: C_2  and  N_3
REMARK    3  A    between atoms: C_7  and  C_8
REMARK    4  A    between atoms: C_11  and  O_12
REMARK    5  A    between atoms: C_13  and  C_14
REMARK    6  A    between atoms: C_17  and  S_18
REMARK    7  A    between atoms: S_18  and  C_21
REMARK    8  A    between atoms: C_21  and  C_22
REMARK    9  A    between atoms: C_24  and  O_25
REMARK   10  A    between atoms: O_25  and  C_26
REMARK                            x       y       z     vdW  Elec       q    Type
REMARK                         _______ _______ _______ _____ _____    ______ ____
ROOT
ATOM      1  C   UNL     1      -1.636  11.859  18.504  0.00  0.00    +0.000 A 
ATOM      2  C   UNL     1      -0.935  13.059  18.341  0.00  0.00    +0.000 A 
ATOM      3  C   UNL     1       0.451  13.097  18.457  0.00  0.00    +0.000 A 
ATOM      4  C   UNL     1       1.170  11.919  18.689  0.00  0.00    +0.000 A 
ATOM      5  C   UNL     1       0.534  10.665  18.833  0.00  0.00    +0.000 A 
ATOM      6  C   UNL     1      -0.879  10.700  18.789  0.00  0.00    +0.000 A 
ENDROOT
BRANCH   1  11
ATOM      7  N   UNL     1      -6.010  12.372  20.193  0.00  0.00    +0.000 N 
ATOM      8  C   UNL     1      -5.063  12.705  21.119  0.00  0.00    +0.000 A 
ATOM      9  N   UNL     1      -3.846  12.579  20.635  0.00  0.00    +0.000 NA
ATOM     10  C   UNL     1      -4.009  12.133  19.335  0.00  0.00    +0.000 A 
ATOM     11  C   UNL     1      -3.094  11.802  18.324  0.00  0.00    +0.000 A 
ATOM     12  C   UNL     1      -3.721  11.378  17.146  0.00  0.00    +0.000 A 
ATOM     13  N   UNL     1      -5.063  11.290  16.932  0.00  0.00    +0.000 NA
ATOM     14  N   UNL     1      -5.903  11.608  17.891  0.00  0.00    +0.000 NA
ATOM     15  C   UNL     1      -5.359  12.007  19.051  0.00  0.00    +0.000 A 
BRANCH   7  17
ATOM     16  C   UNL     1      -7.890  11.326  21.382  0.00  0.00    +0.000 C 
ATOM     17  C   UNL     1      -7.442  12.383  20.389  0.00  0.00    +0.000 C 
ENDBRANCH   7  17
ENDBRANCH   1  11
BRANCH   5  18
ATOM     18  C   UNL     1       1.270   9.354  18.988  0.00  0.00    +0.000 A 
ATOM     19  C   UNL     1       1.838   8.728  17.852  0.00  0.00    +0.000 A 
ATOM     20  C   UNL     1       2.427   7.461  17.896  0.00  0.00    +0.000 A 
ATOM     21  C   UNL     1       2.522   6.805  19.113  0.00  0.00    +0.000 A 
ATOM     22  C   UNL     1       2.032   7.394  20.271  0.00  0.00    +0.000 A 
ATOM     23  C   UNL     1       1.413   8.655  20.225  0.00  0.00    +0.000 A 
BRANCH  21  24
ATOM     24  S   UNL     1       3.239   5.187  19.192  0.00  0.00    +0.000 S 
ATOM     25  O   UNL     1       2.873   4.608  20.478  0.00  0.00    +0.000 OA
ATOM     26  O   UNL     1       2.899   4.521  17.953  0.00  0.00    +0.000 OA
BRANCH  24  27
ATOM     27  C   UNL     1       4.990   5.495  19.220  0.00  0.00    +0.000 C 
ATOM     28  C   UNL     1       5.670   4.865  18.022  0.00  0.00    +0.000 C 
ENDBRANCH  24  27
ENDBRANCH  21  24
BRANCH  23  29
ATOM     29  O   UNL     1       0.851   9.179  21.368  0.00  0.00    +0.000 OA
ATOM     30  C   UNL     1      -0.358   8.562  21.821  0.00  0.00    +0.000 C 
ENDBRANCH  23  29
ENDBRANCH   5  18
BRANCH   4  31
ATOM     31  O   UNL     1       2.537  12.036  18.748  0.00  0.00    +0.000 OA
ATOM     32  H   UNL     1       2.934  11.150  18.756  0.00  0.00    +0.000 HD
ENDBRANCH   4  31
TORSDOF 7
ENDMDL
MODEL 4
REMARK VINA RESULT:      -7.4      3.510      5.670
REMARK  Name = 
REMARK  10 active torsions:
REMARK  status: ('A' for Active; 'I' for Inactive)
REMARK    1  A    between atoms: C_1  and  C_2
REMARK    2  A    between atoms: C_2  and  N_3
REMARK    3  A    between atoms: C_7  and  C_8
REMARK    4  A    between atoms: C_11  and  O_12
REMARK    5  A    between atoms: C_13  and  C_14
REMARK    6  A    between atoms: C_17  and  S_18
REMARK    7  A    between atoms: S_18  and  C_21
REMARK    8  A    between atoms: C_21  and  C_22
REMARK    9  A    between atoms: C_24  and  O_25
REMARK   10  A    between atoms: O_25  and  C_26
REMARK                            x       y       z     vdW  Elec       q    Type
REMARK                         _______ _______ _______ _____ _____    ______ ____
ROOT
ATOM      1  C   UNL     1       0.738   9.608  19.559  0.00  0.00    +0.000 A 
ATOM      2  C   UNL     1       0.444   9.218  20.871  0.00  0.00    +0.000 A 
ATOM      3  C   UNL     1       0.913   8.011  21.379  0.00  0.00    +0.000 A 
ATOM      4  C   UNL     1       1.733   7.189  20.597  0.00  0.00    +0.000 A 
ATOM      5  C   UNL     1       2.099   7.531  19.274  0.00  0.00    +0.000 A 
ATOM      6  C   UNL     1       1.525   8.726  18.783  0.00  0.00    +0.000 A 
ENDROOT
BRANCH   1  11
ATOM      7  N   UNL     1       1.341  14.259  19.058  0.00  0.00    +0.000 N 
ATOM      8  C   UNL     1       2.367  13.683  19.753  0.00  0.00    +0.000 A 
ATOM      9  N   UNL     1       2.202  12.383  19.872  0.00  0.00    +0.000 NA
ATOM     10  C   UNL     1       1.008  12.101  19.233  0.00  0.00    +0.000 A 
ATOM     11  C   UNL     1       0.295  10.909  19.037  0.00  0.00    +0.000 A 
ATOM     12  C   UNL     1      -0.896  11.102  18.327  0.00  0.00    +0.000 A 
ATOM     13  N   UNL     1      -1.362  12.284  17.837  0.00  0.00    +0.000 NA
ATOM     14  N   UNL     1      -0.677  13.389  18.028  0.00  0.00    +0.000 NA
ATOM     15  C   UNL     1       0.468  13.268  18.717  0.00  0.00    +0.000 A 
BRANCH   7  17
ATOM     16  C   UNL     1       2.521  16.315  18.408  0.00  0.00    +0.000 C 
ATOM     17  C   UNL     1       1.194  15.664  18.756  0.00  0.00    +0.000 C 
ENDBRANCH   7  17
ENDBRANCH   1  11
BRANCH   5  18
ATOM     18  C   UNL     1       3.056   6.728  18.425  0.00  0.00    +0.000 A 
ATOM     19  C   UNL     1       4.087   7.387  17.713  0.00  0.00    +0.000 A 
ATOM     20  C   UNL     1       4.933   6.729  16.816  0.00  0.00    +0.000 A 
ATOM     21  C   UNL     1       4.809   5.357  16.656  0.00  0.00    +0.000 A 
ATOM     22  C   UNL     1       3.852   4.649  17.370  0.00  0.00    +0.000 A 
ATOM     23  C   UNL     1       2.981   5.312  18.251  0.00  0.00    +0.000 A 
BRANCH  21  24
ATOM     24  S   UNL     1       5.851   4.503  15.506  0.00  0.00    +0.000 S 
ATOM     25  O   UNL     1       5.600   3.077  15.663  0.00  0.00    +0.000 OA
ATOM     26  O   UNL     1       5.675   5.153  14.224  0.00  0.00    +0.000 OA
BRANCH  24  27
ATOM     27  C   UNL     1       7.496   4.828  16.095  0.00  0.00    +0.000 C 
ATOM     28  C   UNL     1       7.597   4.574  17.586  0.00  0.00    +0.000 C 
ENDBRANCH  24  27
ENDBRANCH  21  24
BRANCH  23  29
ATOM     29  O   UNL     1       1.979   4.604  18.878  0.00  0.00    +0.000 OA
ATOM     30  C   UNL     1       1.390   3.538  18.128  0.00  0.00    +0.000 C 
ENDBRANCH  23  29
ENDBRANCH   5  18
BRANCH   4  31
ATOM     31  O   UNL     1       2.188   6.036  21.187  0.00  0.00    +0.000 OA
ATOM     32  H   UNL     1       1.894   5.272  20.665  0.00  0.00    +0.000 HD
ENDBRANCH   4  31
TORSDOF 7
ENDMDL
MODEL 5
REMARK VINA RESULT:      -7.2      2.959      4.065
REMARK  Name = 
REMARK  10 active torsions:
REMARK  status: ('A' for Active; 'I' for Inactive)
REMARK    1  A    between atoms: C_1  and  C_2
REMARK    2  A    between atoms: C_2  and  N_3
REMARK    3  A    between atoms: C_7  and  C_8
REMARK    4  A    between atoms: C_11  and  O_12
REMARK    5  A    between atoms: C_13  and  C_14
REMARK    6  A    between atoms: C_17  and  S_18
REMARK    7  A    between atoms: S_18  and  C_21
REMARK    8  A    between atoms: C_21  and  C_22
REMARK    9  A    between atoms: C_24  and  O_25
REMARK   10  A    between atoms: O_25  and  C_26
REMARK                            x       y       z     vdW  Elec       q    Type
REMARK                         _______ _______ _______ _____ _____    ______ ____
ROOT
ATOM      1  C   UNL     1      -0.611  12.515  20.339  0.00  0.00    +0.000 A 
ATOM      2  C   UNL     1      -1.654  12.617  19.413  0.00  0.00    +0.000 A 
ATOM      3  C   UNL     1      -1.759  11.718  18.355  0.00  0.00    +0.000 A 
ATOM      4  C   UNL     1      -0.846  10.665  18.232  0.00  0.00    +0.000 A 
ATOM      5  C   UNL     1       0.216  10.480  19.147  0.00  0.00    +0.000 A 
ATOM      6  C   UNL     1       0.322  11.470  20.152  0.00  0.00    +0.000 A 
ENDROOT
BRANCH   1  11
ATOM      7  N   UNL     1      -2.435  14.301  24.305  0.00  0.00    +0.000 N 
ATOM      8  C   UNL     1      -3.232  13.330  23.768  0.00  0.00    +0.000 A 
ATOM      9  N   UNL     1      -2.709  12.823  22.673  0.00  0.00    +0.000 NA
ATOM     10  C   UNL     1      -1.518  13.503  22.483  0.00  0.00    +0.000 A 
ATOM     11  C   UNL     1      -0.529  13.424  21.491  0.00  0.00    +0.000 A 
ATOM     12  C   UNL     1       0.518  14.330  21.700  0.00  0.00    +0.000 A 
ATOM     13  N   UNL     1       0.636  15.204  22.738  0.00  0.00    +0.000 NA
ATOM     14  N   UNL     1      -0.300  15.259  23.659  0.00  0.00    +0.000 NA
ATOM     15  C   UNL     1      -1.339  14.424  23.502  0.00  0.00    +0.000 A 
BRANCH   7  17
ATOM     16  C   UNL     1      -3.488  16.342  25.184  0.00  0.00    +0.000 C 
ATOM     17  C   UNL     1      -2.710  15.075  25.494  0.00  0.00    +0.000 C 
ENDBRANCH   7  17
ENDBRANCH   1  11
BRANCH   5  18
ATOM     18  C   UNL     1       1.168   9.307  19.115  0.00  0.00    +0.000 A 
ATOM     19  C   UNL     1       1.953   9.071  17.960  0.00  0.00    +0.000 A 
ATOM     20  C   UNL     1       2.764   7.942  17.809  0.00  0.00    +0.000 A 
ATOM     21  C   UNL     1       2.863   7.039  18.857  0.00  0.00    +0.000 A 
ATOM     22  C   UNL     1       2.159   7.248  20.035  0.00  0.00    +0.000 A 
ATOM     23  C   UNL     1       1.320   8.366  20.178  0.00  0.00    +0.000 A 
BRANCH  21  24
ATOM     24  S   UNL     1       3.863   5.588  18.681  0.00  0.00    +0.000 S 
ATOM     25  O   UNL     1       5.153   6.007  18.149  0.00  0.00    +0.000 OA
ATOM     26  O   UNL     1       3.773   4.867  19.933  0.00  0.00    +0.000 OA
BRANCH  24  27
ATOM     27  C   UNL     1       3.038   4.651  17.416  0.00  0.00    +0.000 C 
ATOM     28  C   UNL     1       1.610   4.340  17.816  0.00  0.00    +0.000 C 
ENDBRANCH  24  27
ENDBRANCH  21  24
BRANCH  23  29
ATOM     29  O   UNL     1       0.559   8.504  21.318  0.00  0.00    +0.000 OA
ATOM     30  C   UNL     1       1.219   9.065  22.457  0.00  0.00    +0.000 C 
ENDBRANCH  23  29
ENDBRANCH   5  18
BRANCH   4  31
ATOM     31  O   UNL     1      -1.044   9.799  17.185  0.00  0.00    +0.000 OA
ATOM     32  H   UNL     1      -1.990   9.586  17.120  0.00  0.00    +0.000 HD
ENDBRANCH   4  31
TORSDOF 7
ENDMDL
MODEL 6
REMARK VINA RESULT:      -7.2      4.077      6.405
REMARK  Name = 
REMARK  10 active torsions:
REMARK  status: ('A' for Active; 'I' for Inactive)
REMARK    1  A    between atoms: C_1  and  C_2
REMARK    2  A    between atoms: C_2  and  N_3
REMARK    3  A    between atoms: C_7  and  C_8
REMARK    4  A    between atoms: C_11  and  O_12
REMARK    5  A    between atoms: C_13  and  C_14
REMARK    6  A    between atoms: C_17  and  S_18
REMARK    7  A    between atoms: S_18  and  C_21
REMARK    8  A    between atoms: C_21  and  C_22
REMARK    9  A    between atoms: C_24  and  O_25
REMARK   10  A    between atoms: O_25  and  C_26
REMARK                            x       y       z     vdW  Elec       q    Type
REMARK                         _______ _______ _______ _____ _____    ______ ____
ROOT
ATOM      1  C   UNL     1       0.941  13.534  18.974  0.00  0.00    +0.000 A 
ATOM      2  C   UNL     1      -0.401  13.666  18.596  0.00  0.00    +0.000 A 
ATOM      3  C   UNL     1      -1.168  12.548  18.284  0.00  0.00    +0.000 A 
ATOM      4  C   UNL     1      -0.619  11.266  18.392  0.00  0.00    +0.000 A 
ATOM      5  C   UNL     1       0.719  11.051  18.796  0.00  0.00    +0.000 A 
ATOM      6  C   UNL     1       1.474  12.226  19.020  0.00  0.00    +0.000 A 
ENDROOT
BRANCH   1  11
ATOM      7  N   UNL     1       4.912  16.067  18.734  0.00  0.00    +0.000 N 
ATOM      8  C   UNL     1       4.959  14.966  17.927  0.00  0.00    +0.000 A 
ATOM      9  N   UNL     1       3.841  14.274  17.984  0.00  0.00    +0.000 NA
ATOM     10  C   UNL     1       3.031  14.953  18.877  0.00  0.00    +0.000 A 
ATOM     11  C   UNL     1       1.738  14.706  19.362  0.00  0.00    +0.000 A 
ATOM     12  C   UNL     1       1.312  15.673  20.280  0.00  0.00    +0.000 A 
ATOM     13  N   UNL     1       2.014  16.766  20.687  0.00  0.00    +0.000 NA
ATOM     14  N   UNL     1       3.223  16.982  20.218  0.00  0.00    +0.000 NA
ATOM     15  C   UNL     1       3.692  16.077  19.345  0.00  0.00    +0.000 A 
BRANCH   7  17
ATOM     16  C   UNL     1       6.931  16.622  20.021  0.00  0.00    +0.000 C 
ATOM     17  C   UNL     1       5.967  17.036  18.924  0.00  0.00    +0.000 C 
ENDBRANCH   7  17
ENDBRANCH   1  11
BRANCH   5  18
ATOM     18  C   UNL     1       1.328   9.687  19.021  0.00  0.00    +0.000 A 
ATOM     19  C   UNL     1       1.987   9.027  17.955  0.00  0.00    +0.000 A 
ATOM     20  C   UNL     1       2.469   7.718  18.052  0.00  0.00    +0.000 A 
ATOM     21  C   UNL     1       2.360   7.048  19.261  0.00  0.00    +0.000 A 
ATOM     22  C   UNL     1       1.772   7.666  20.357  0.00  0.00    +0.000 A 
ATOM     23  C   UNL     1       1.261   8.971  20.255  0.00  0.00    +0.000 A 
BRANCH  21  24
ATOM     24  S   UNL     1       2.937   5.380  19.403  0.00  0.00    +0.000 S 
ATOM     25  O   UNL     1       2.399   4.634  18.273  0.00  0.00    +0.000 OA
ATOM     26  O   UNL     1       4.364   5.452  19.635  0.00  0.00    +0.000 OA
BRANCH  24  27
ATOM     27  C   UNL     1       2.142   4.775  20.873  0.00  0.00    +0.000 C 
ATOM     28  C   UNL     1       1.117   3.711  20.536  0.00  0.00    +0.000 C 
ENDBRANCH  24  27
ENDBRANCH  21  24
BRANCH  23  29
ATOM     29  O   UNL     1       0.600   9.528  21.327  0.00  0.00    +0.000 OA
ATOM     30  C   UNL     1      -0.357   8.694  21.986  0.00  0.00    +0.000 C 
ENDBRANCH  23  29
ENDBRANCH   5  18
BRANCH   4  31
ATOM     31  O   UNL     1      -1.454  10.214  18.106  0.00  0.00    +0.000 OA
ATOM     32  H   UNL     1      -1.522  10.112  17.142  0.00  0.00    +0.000 HD
ENDBRANCH   4  31
TORSDOF 7
ENDMDL
MODEL 7
REMARK VINA RESULT:      -7.1      1.021      1.842
REMARK  Name = 
REMARK  10 active torsions:
REMARK  status: ('A' for Active; 'I' for Inactive)
REMARK    1  A    between atoms: C_1  and  C_2
REMARK    2  A    between atoms: C_2  and  N_3
REMARK    3  A    between atoms: C_7  and  C_8
REMARK    4  A    between atoms: C_11  and  O_12
REMARK    5  A    between atoms: C_13  and  C_14
REMARK    6  A    between atoms: C_17  and  S_18
REMARK    7  A    between atoms: S_18  and  C_21
REMARK    8  A    between atoms: C_21  and  C_22
REMARK    9  A    between atoms: C_24  and  O_25
REMARK   10  A    between atoms: O_25  and  C_26
REMARK                            x       y       z     vdW  Elec       q    Type
REMARK                         _______ _______ _______ _____ _____    ______ ____
ROOT
ATOM      1  C   UNL     1      -1.274  12.667  19.681  0.00  0.00    +0.000 A 
ATOM      2  C   UNL     1      -0.642  13.700  18.980  0.00  0.00    +0.000 A 
ATOM      3  C   UNL     1       0.623  13.519  18.429  0.00  0.00    +0.000 A 
ATOM      4  C   UNL     1       1.261  12.278  18.525  0.00  0.00    +0.000 A 
ATOM      5  C   UNL     1       0.672  11.178  19.191  0.00  0.00    +0.000 A 
ATOM      6  C   UNL     1      -0.575  11.445  19.802  0.00  0.00    +0.000 A 
ENDROOT
BRANCH   1  11
ATOM      7  N   UNL     1      -5.926  11.950  19.376  0.00  0.00    +0.000 N 
ATOM      8  C   UNL     1      -5.249  11.354  18.351  0.00  0.00    +0.000 A 
ATOM      9  N   UNL     1      -3.951  11.541  18.452  0.00  0.00    +0.000 NA
ATOM     10  C   UNL     1      -3.775  12.304  19.593  0.00  0.00    +0.000 A 
ATOM     11  C   UNL     1      -2.634  12.834  20.214  0.00  0.00    +0.000 A 
ATOM     12  C   UNL     1      -2.938  13.567  21.367  0.00  0.00    +0.000 A 
ATOM     13  N   UNL     1      -4.177  13.767  21.895  0.00  0.00    +0.000 NA
ATOM     14  N   UNL     1      -5.233  13.259  21.300  0.00  0.00    +0.000 NA
ATOM     15  C   UNL     1      -5.005  12.558  20.178  0.00  0.00    +0.000 A 
BRANCH   7  17
ATOM     16  C   UNL     1      -7.802  10.922  20.587  0.00  0.00    +0.000 C 
ATOM     17  C   UNL     1      -7.358  11.957  19.569  0.00  0.00    +0.000 C 
ENDBRANCH   7  17
ENDBRANCH   1  11
BRANCH   5  18
ATOM     18  C   UNL     1       1.276   9.794  19.240  0.00  0.00    +0.000 A 
ATOM     19  C   UNL     1       1.779   9.204  18.055  0.00  0.00    +0.000 A 
ATOM     20  C   UNL     1       2.241   7.886  17.997  0.00  0.00    +0.000 A 
ATOM     21  C   UNL     1       2.273   7.133  19.161  0.00  0.00    +0.000 A 
ATOM     22  C   UNL     1       1.843   7.677  20.364  0.00  0.00    +0.000 A 
ATOM     23  C   UNL     1       1.351   8.992  20.419  0.00  0.00    +0.000 A 
BRANCH  21  24
ATOM     24  S   UNL     1       2.828   5.451  19.111  0.00  0.00    +0.000 S 
ATOM     25  O   UNL     1       2.091   4.779  18.048  0.00  0.00    +0.000 OA
ATOM     26  O   UNL     1       4.274   5.491  19.103  0.00  0.00    +0.000 OA
BRANCH  24  27
ATOM     27  C   UNL     1       2.277   4.772  20.659  0.00  0.00    +0.000 C 
ATOM     28  C   UNL     1       1.054   3.898  20.462  0.00  0.00    +0.000 C 
ENDBRANCH  24  27
ENDBRANCH  21  24
BRANCH  23  29
ATOM     29  O   UNL     1       0.844   9.480  21.603  0.00  0.00    +0.000 OA
ATOM     30  C   UNL     1      -0.300   8.802  22.131  0.00  0.00    +0.000 C 
ENDBRANCH  23  29
ENDBRANCH   5  18
BRANCH   4  31
ATOM     31  O   UNL     1       2.488  12.169  17.919  0.00  0.00    +0.000 OA
ATOM     32  H   UNL     1       2.468  12.638  17.068  0.00  0.00    +0.000 HD
ENDBRANCH   4  31
TORSDOF 7
ENDMDL
MODEL 8
REMARK VINA RESULT:      -7.1      1.369      2.279
REMARK  Name = 
REMARK  10 active torsions:
REMARK  status: ('A' for Active; 'I' for Inactive)
REMARK    1  A    between atoms: C_1  and  C_2
REMARK    2  A    between atoms: C_2  and  N_3
REMARK    3  A    between atoms: C_7  and  C_8
REMARK    4  A    between atoms: C_11  and  O_12
REMARK    5  A    between atoms: C_13  and  C_14
REMARK    6  A    between atoms: C_17  and  S_18
REMARK    7  A    between atoms: S_18  and  C_21
REMARK    8  A    between atoms: C_21  and  C_22
REMARK    9  A    between atoms: C_24  and  O_25
REMARK   10  A    between atoms: O_25  and  C_26
REMARK                            x       y       z     vdW  Elec       q    Type
REMARK                         _______ _______ _______ _____ _____    ______ ____
ROOT
ATOM      1  C   UNL     1      -1.287  12.255  19.428  0.00  0.00    +0.000 A 
ATOM      2  C   UNL     1      -0.601  13.360  18.912  0.00  0.00    +0.000 A 
ATOM      3  C   UNL     1       0.729  13.253  18.516  0.00  0.00    +0.000 A 
ATOM      4  C   UNL     1       1.387  12.020  18.583  0.00  0.00    +0.000 A 
ATOM      5  C   UNL     1       0.750  10.852  19.064  0.00  0.00    +0.000 A 
ATOM      6  C   UNL     1      -0.572  11.039  19.529  0.00  0.00    +0.000 A 
ENDROOT
BRANCH   1  11
ATOM      7  N   UNL     1      -5.851  11.906  18.295  0.00  0.00    +0.000 N 
ATOM      8  C   UNL     1      -5.039  11.571  17.249  0.00  0.00    +0.000 A 
ATOM      9  N   UNL     1      -3.767  11.652  17.577  0.00  0.00    +0.000 NA
ATOM     10  C   UNL     1      -3.752  12.068  18.897  0.00  0.00    +0.000 A 
ATOM     11  C   UNL     1      -2.708  12.347  19.792  0.00  0.00    +0.000 A 
ATOM     12  C   UNL     1      -3.169  12.756  21.049  0.00  0.00    +0.000 A 
ATOM     13  N   UNL     1      -4.470  12.876  21.433  0.00  0.00    +0.000 NA
ATOM     14  N   UNL     1      -5.433  12.606  20.581  0.00  0.00    +0.000 NA
ATOM     15  C   UNL     1      -5.051  12.223  19.353  0.00  0.00    +0.000 A 
BRANCH   7  17
ATOM     16  C   UNL     1      -7.832  13.335  18.017  0.00  0.00    +0.000 C 
ATOM     17  C   UNL     1      -7.296  11.939  18.280  0.00  0.00    +0.000 C 
ENDBRANCH   7  17
ENDBRANCH   1  11
BRANCH   5  18
ATOM     18  C   UNL     1       1.383   9.481  19.067  0.00  0.00    +0.000 A 
ATOM     19  C   UNL     1       1.867   8.928  17.856  0.00  0.00    +0.000 A 
ATOM     20  C   UNL     1       2.354   7.621  17.758  0.00  0.00    +0.000 A 
ATOM     21  C   UNL     1       2.433   6.844  18.904  0.00  0.00    +0.000 A 
ATOM     22  C   UNL     1       2.025   7.353  20.129  0.00  0.00    +0.000 A 
ATOM     23  C   UNL     1       1.508   8.656  20.226  0.00  0.00    +0.000 A 
BRANCH  21  24
ATOM     24  S   UNL     1       3.022   5.176  18.802  0.00  0.00    +0.000 S 
ATOM     25  O   UNL     1       3.132   4.668  20.163  0.00  0.00    +0.000 OA
ATOM     26  O   UNL     1       2.197   4.503  17.821  0.00  0.00    +0.000 OA
BRANCH  24  27
ATOM     27  C   UNL     1       4.669   5.342  18.155  0.00  0.00    +0.000 C 
ATOM     28  C   UNL     1       4.730   4.897  16.708  0.00  0.00    +0.000 C 
ENDBRANCH  24  27
ENDBRANCH  21  24
BRANCH  23  29
ATOM     29  O   UNL     1       1.023   9.107  21.434  0.00  0.00    +0.000 OA
ATOM     30  C   UNL     1      -0.203   8.523  21.884  0.00  0.00    +0.000 C 
ENDBRANCH  23  29
ENDBRANCH   5  18
BRANCH   4  31
ATOM     31  O   UNL     1       2.684  11.990  18.134  0.00  0.00    +0.000 OA
ATOM     32  H   UNL     1       3.198  12.673  18.597  0.00  0.00    +0.000 HD
ENDBRANCH   4  31
TORSDOF 7
ENDMDL
MODEL 9
REMARK VINA RESULT:      -7.1      5.956     10.197
REMARK  Name = 
REMARK  10 active torsions:
REMARK  status: ('A' for Active; 'I' for Inactive)
REMARK    1  A    between atoms: C_1  and  C_2
REMARK    2  A    between atoms: C_2  and  N_3
REMARK    3  A    between atoms: C_7  and  C_8
REMARK    4  A    between atoms: C_11  and  O_12
REMARK    5  A    between atoms: C_13  and  C_14
REMARK    6  A    between atoms: C_17  and  S_18
REMARK    7  A    between atoms: S_18  and  C_21
REMARK    8  A    between atoms: C_21  and  C_22
REMARK    9  A    between atoms: C_24  and  O_25
REMARK   10  A    between atoms: O_25  and  C_26
REMARK                            x       y       z     vdW  Elec       q    Type
REMARK                         _______ _______ _______ _____ _____    ______ ____
ROOT
ATOM      1  C   UNL     1       4.489   5.905  18.177  0.00  0.00    +0.000 A 
ATOM      2  C   UNL     1       4.238   4.797  18.994  0.00  0.00    +0.000 A 
ATOM      3  C   UNL     1       3.189   4.808  19.908  0.00  0.00    +0.000 A 
ATOM      4  C   UNL     1       2.336   5.914  19.987  0.00  0.00    +0.000 A 
ATOM      5  C   UNL     1       2.508   7.057  19.173  0.00  0.00    +0.000 A 
ATOM      6  C   UNL     1       3.638   7.024  18.323  0.00  0.00    +0.000 A 
ENDROOT
BRANCH   1  11
ATOM      7  N   UNL     1       6.236   4.353  14.080  0.00  0.00    +0.000 N 
ATOM      8  C   UNL     1       4.983   3.865  14.318  0.00  0.00    +0.000 A 
ATOM      9  N   UNL     1       4.494   4.317  15.453  0.00  0.00    +0.000 NA
ATOM     10  C   UNL     1       5.480   5.130  15.983  0.00  0.00    +0.000 A 
ATOM     11  C   UNL     1       5.559   5.877  17.168  0.00  0.00    +0.000 A 
ATOM     12  C   UNL     1       6.776   6.555  17.300  0.00  0.00    +0.000 A 
ATOM     13  N   UNL     1       7.805   6.549  16.407  0.00  0.00    +0.000 NA
ATOM     14  N   UNL     1       7.710   5.847  15.301  0.00  0.00    +0.000 NA
ATOM     15  C   UNL     1       6.569   5.161  15.127  0.00  0.00    +0.000 A 
BRANCH   7  17
ATOM     16  C   UNL     1       6.401   3.081  11.983  0.00  0.00    +0.000 C 
ATOM     17  C   UNL     1       7.070   4.052  12.939  0.00  0.00    +0.000 C 
ENDBRANCH   7  17
ENDBRANCH   1  11
BRANCH   5  18
ATOM     18  C   UNL     1       1.561   8.234  19.152  0.00  0.00    +0.000 A 
ATOM     19  C   UNL     1       1.127   8.766  17.914  0.00  0.00    +0.000 A 
ATOM     20  C   UNL     1       0.350   9.923  17.813  0.00  0.00    +0.000 A 
ATOM     21  C   UNL     1      -0.077  10.551  18.973  0.00  0.00    +0.000 A 
ATOM     22  C   UNL     1       0.272  10.043  20.217  0.00  0.00    +0.000 A 
ATOM     23  C   UNL     1       1.077   8.896  20.321  0.00  0.00    +0.000 A 
BRANCH  21  24
ATOM     24  S   UNL     1      -1.040  12.035  18.873  0.00  0.00    +0.000 S 
ATOM     25  O   UNL     1      -1.833  12.124  20.092  0.00  0.00    +0.000 OA
ATOM     26  O   UNL     1      -0.130  13.096  18.498  0.00  0.00    +0.000 OA
BRANCH  24  27
ATOM     27  C   UNL     1      -2.158  11.729  17.525  0.00  0.00    +0.000 C 
ATOM     28  C   UNL     1      -3.320  10.864  17.971  0.00  0.00    +0.000 C 
ENDBRANCH  24  27
ENDBRANCH  21  24
BRANCH  23  29
ATOM     29  O   UNL     1       1.487   8.464  21.563  0.00  0.00    +0.000 OA
ATOM     30  C   UNL     1       1.080   9.261  22.679  0.00  0.00    +0.000 C 
ENDBRANCH  23  29
ENDBRANCH   5  18
BRANCH   4  31
ATOM     31  O   UNL     1       1.301   5.828  20.885  0.00  0.00    +0.000 OA
ATOM     32  H   UNL     1       0.837   4.984  20.760  0.00  0.00    +0.000 HD
ENDBRANCH   4  31
TORSDOF 7
ENDMDL
