MODEL 1
REMARK VINA RESULT:      -6.7      0.000      0.000
REMARK  Name = 
REMARK  7 active torsions:
REMARK  status: ('A' for Active; 'I' for Inactive)
REMARK    1  A    between atoms: C_2  and  C_3
REMARK    2  A    between atoms: N_5  and  C_6
REMARK    3  A    between atoms: C_6  and  C_7
REMARK    4  A    between atoms: C_7  and  O_8
REMARK    5  A    between atoms: O_8  and  C_9
REMARK    6  A    between atoms: N_17  and  S_18
REMARK    7  A    between atoms: S_18  and  C_21
REMARK                            x       y       z     vdW  Elec       q    Type
REMARK                         _______ _______ _______ _____ _____    ______ ____
ROOT
ATOM      1  C   UNL     1       4.942   4.610  16.481  0.00  0.00    +0.000 C 
ATOM      2  C   UNL     1       5.603   5.932  16.893  0.00  0.00    +0.000 C 
ATOM      3  N   UNL     1       6.538   5.776  18.013  0.00  0.00    +0.000 N 
ATOM      4  C   UNL     1       6.154   5.359  19.287  0.00  0.00    +0.000 C 
ATOM      5  O   UNL     1       6.892   5.555  20.260  0.00  0.00    +0.000 OA
ATOM      6  C   UNL     1       4.898   4.486  19.462  0.00  0.00    +0.000 C 
ATOM      7  C   UNL     1       5.268   3.015  19.196  0.00  0.00    +0.000 C 
ATOM      8  C   UNL     1       4.132   2.169  18.640  0.00  0.00    +0.000 C 
ATOM      9  C   UNL     1       3.436   2.795  17.429  0.00  0.00    +0.000 C 
ATOM     10  C   UNL     1       3.652   4.313  17.308  0.00  0.00    +0.000 C 
ATOM     11  N   UNL     1       3.707   4.949  18.664  0.00  0.00    +0.000 NA
ENDROOT
BRANCH  11  12
ATOM     12  S   UNL     1       2.265   5.046  19.593  0.00  0.00    +0.000 S 
ATOM     13  O   UNL     1       1.159   4.543  18.809  0.00  0.00    +0.000 OA
ATOM     14  O   UNL     1       2.543   4.490  20.899  0.00  0.00    +0.000 OA
BRANCH  12  15
ATOM     15  C   UNL     1       1.959   6.780  19.851  0.00  0.00    +0.000 A 
ATOM     16  C   UNL     1       2.176   7.689  18.810  0.00  0.00    +0.000 A 
ATOM     17  C   UNL     1       1.759   9.012  18.961  0.00  0.00    +0.000 A 
ATOM     18 CL   UNL     1       2.031  10.140  17.690  0.00  0.00    +0.000 Cl
ATOM     19  C   UNL     1       1.103   9.427  20.118  0.00  0.00    +0.000 A 
ATOM     20  C   UNL     1       0.863   8.504  21.134  0.00  0.00    +0.000 A 
ATOM     21 CL   UNL     1      -0.004   8.994  22.539  0.00  0.00    +0.000 Cl
ATOM     22  C   UNL     1       1.287   7.183  21.011  0.00  0.00    +0.000 A 
ENDBRANCH  12  15
ENDBRANCH  11  12
BRANCH   1  24
ATOM     23  C   UNL     1       5.524   4.155  14.071  0.00  0.00    +0.000 C 
ATOM     24  C   UNL     1       4.657   4.605  14.986  0.00  0.00    +0.000 C 
ENDBRANCH   1  24
BRANCH   3  25
ATOM     25  C   UNL     1       7.882   6.357  17.858  0.00  0.00    +0.000 C 
BRANCH  25  26
ATOM     26  C   UNL     1       7.879   7.882  17.651  0.00  0.00    +0.000 C 
BRANCH  26  27
ATOM     27  O   UNL     1       8.615   8.533  18.695  0.00  0.00    +0.000 OA
ATOM     28  C   UNL     1       8.792   9.918  18.409  0.00  0.00    +0.000 C 
ENDBRANCH  26  27
ENDBRANCH  25  26
ENDBRANCH   3  25
TORSDOF 6
ENDMDL
MODEL 2
REMARK VINA RESULT:      -6.1      5.125      8.295
REMARK  Name = 
REMARK  7 active torsions:
REMARK  status: ('A' for Active; 'I' for Inactive)
REMARK    1  A    between atoms: C_2  and  C_3
REMARK    2  A    between atoms: N_5  and  C_6
REMARK    3  A    between atoms: C_6  and  C_7
REMARK    4  A    between atoms: C_7  and  O_8
REMARK    5  A    between atoms: O_8  and  C_9
REMARK    6  A    between atoms: N_17  and  S_18
REMARK    7  A    between atoms: S_18  and  C_21
REMARK                            x       y       z     vdW  Elec       q    Type
REMARK                         _______ _______ _______ _____ _____    ______ ____
ROOT
ATOM      1  C   UNL     1       0.754  10.128  21.407  0.00  0.00    +0.000 C 
ATOM      2  C   UNL     1       0.537   8.977  20.416  0.00  0.00    +0.000 C 
ATOM      3  N   UNL     1       1.484   9.003  19.296  0.00  0.00    +0.000 N 
ATOM      4  C   UNL     1       1.548  10.037  18.363  0.00  0.00    +0.000 C 
ATOM      5  O   UNL     1       2.114   9.868  17.277  0.00  0.00    +0.000 OA
ATOM      6  C   UNL     1       1.079  11.451  18.752  0.00  0.00    +0.000 C 
ATOM      7  C   UNL     1       2.222  12.174  19.488  0.00  0.00    +0.000 C 
ATOM      8  C   UNL     1       1.763  13.204  20.511  0.00  0.00    +0.000 C 
ATOM      9  C   UNL     1       0.719  12.668  21.495  0.00  0.00    +0.000 C 
ATOM     10  C   UNL     1      -0.021  11.418  20.990  0.00  0.00    +0.000 C 
ATOM     11  N   UNL     1      -0.225  11.485  19.507  0.00  0.00    +0.000 NA
ENDROOT
BRANCH  11  12
ATOM     12  S   UNL     1      -1.345  12.623  18.875  0.00  0.00    +0.000 S 
ATOM     13  O   UNL     1      -2.043  13.262  19.969  0.00  0.00    +0.000 OA
ATOM     14  O   UNL     1      -0.653  13.423  17.889  0.00  0.00    +0.000 OA
BRANCH  12  15
ATOM     15  C   UNL     1      -2.558  11.678  17.980  0.00  0.00    +0.000 A 
ATOM     16  C   UNL     1      -3.884  11.645  18.424  0.00  0.00    +0.000 A 
ATOM     17  C   UNL     1      -4.860  11.058  17.618  0.00  0.00    +0.000 A 
ATOM     18 CL   UNL     1      -6.492  11.004  18.161  0.00  0.00    +0.000 Cl
ATOM     19  C   UNL     1      -4.535  10.537  16.367  0.00  0.00    +0.000 A 
ATOM     20  C   UNL     1      -3.217  10.606  15.921  0.00  0.00    +0.000 A 
ATOM     21 CL   UNL     1      -2.820  10.022  14.351  0.00  0.00    +0.000 Cl
ATOM     22  C   UNL     1      -2.224  11.171  16.718  0.00  0.00    +0.000 A 
ENDBRANCH  12  15
ENDBRANCH  11  12
BRANCH   1  24
ATOM     23  C   UNL     1      -0.797   9.954  23.386  0.00  0.00    +0.000 C 
ATOM     24  C   UNL     1       0.386   9.690  22.817  0.00  0.00    +0.000 C 
ENDBRANCH   1  24
BRANCH   3  25
ATOM     25  C   UNL     1       2.199   7.754  18.985  0.00  0.00    +0.000 C 
BRANCH  25  26
ATOM     26  C   UNL     1       2.084   6.683  20.084  0.00  0.00    +0.000 C 
BRANCH  26  27
ATOM     27  O   UNL     1       2.660   5.446  19.643  0.00  0.00    +0.000 OA
ATOM     28  C   UNL     1       3.956   5.655  19.087  0.00  0.00    +0.000 C 
ENDBRANCH  26  27
ENDBRANCH  25  26
ENDBRANCH   3  25
TORSDOF 6
ENDMDL
MODEL 3
REMARK VINA RESULT:      -6.0      9.939     13.449
REMARK  Name = 
REMARK  7 active torsions:
REMARK  status: ('A' for Active; 'I' for Inactive)
REMARK    1  A    between atoms: C_2  and  C_3
REMARK    2  A    between atoms: N_5  and  C_6
REMARK    3  A    between atoms: C_6  and  C_7
REMARK    4  A    between atoms: C_7  and  O_8
REMARK    5  A    between atoms: O_8  and  C_9
REMARK    6  A    between atoms: N_17  and  S_18
REMARK    7  A    between atoms: S_18  and  C_21
REMARK                            x       y       z     vdW  Elec       q    Type
REMARK                         _______ _______ _______ _____ _____    ______ ____
ROOT
ATOM      1  C   UNL     1      -6.789  15.129  21.202  0.00  0.00    +0.000 C 
ATOM      2  C   UNL     1      -6.244  14.268  20.054  0.00  0.00    +0.000 C 
ATOM      3  N   UNL     1      -6.854  12.934  20.004  0.00  0.00    +0.000 N 
ATOM      4  C   UNL     1      -6.725  11.988  21.019  0.00  0.00    +0.000 C 
ATOM      5  O   UNL     1      -6.966  10.795  20.799  0.00  0.00    +0.000 OA
ATOM      6  C   UNL     1      -6.464  12.445  22.466  0.00  0.00    +0.000 C 
ATOM      7  C   UNL     1      -7.804  12.825  23.122  0.00  0.00    +0.000 C 
ATOM      8  C   UNL     1      -7.700  13.901  24.193  0.00  0.00    +0.000 C 
ATOM      9  C   UNL     1      -6.930  15.145  23.740  0.00  0.00    +0.000 C 
ATOM     10  C   UNL     1      -6.008  14.896  22.534  0.00  0.00    +0.000 C 
ATOM     11  N   UNL     1      -5.416  13.521  22.595  0.00  0.00    +0.000 NA
ENDROOT
BRANCH  11  12
ATOM     12  S   UNL     1      -4.237  13.178  23.795  0.00  0.00    +0.000 S 
ATOM     13  O   UNL     1      -3.868  14.406  24.464  0.00  0.00    +0.000 OA
ATOM     14  O   UNL     1      -4.703  12.044  24.563  0.00  0.00    +0.000 OA
BRANCH  12  15
ATOM     15  C   UNL     1      -2.790  12.620  22.923  0.00  0.00    +0.000 A 
ATOM     16  C   UNL     1      -2.162  13.466  22.002  0.00  0.00    +0.000 A 
ATOM     17  C   UNL     1      -0.930  13.093  21.464  0.00  0.00    +0.000 A 
ATOM     18 CL   UNL     1      -0.153  14.121  20.323  0.00  0.00    +0.000 Cl
ATOM     19  C   UNL     1      -0.306  11.910  21.856  0.00  0.00    +0.000 A 
ATOM     20  C   UNL     1      -0.926  11.093  22.799  0.00  0.00    +0.000 A 
ATOM     21 CL   UNL     1      -0.133   9.663  23.337  0.00  0.00    +0.000 Cl
ATOM     22  C   UNL     1      -2.166  11.437  23.335  0.00  0.00    +0.000 A 
ENDBRANCH  12  15
ENDBRANCH  11  12
BRANCH   1  24
ATOM     23  C   UNL     1      -5.909  17.489  21.281  0.00  0.00    +0.000 C 
ATOM     24  C   UNL     1      -6.789  16.598  20.808  0.00  0.00    +0.000 C 
ENDBRANCH   1  24
BRANCH   3  25
ATOM     25  C   UNL     1      -7.382  12.481  18.706  0.00  0.00    +0.000 C 
BRANCH  25  26
ATOM     26  C   UNL     1      -6.701  13.141  17.494  0.00  0.00    +0.000 C 
BRANCH  26  27
ATOM     27  O   UNL     1      -7.617  14.010  16.814  0.00  0.00    +0.000 OA
ATOM     28  C   UNL     1      -7.010  15.268  16.528  0.00  0.00    +0.000 C 
ENDBRANCH  26  27
ENDBRANCH  25  26
ENDBRANCH   3  25
TORSDOF 6
ENDMDL
MODEL 4
REMARK VINA RESULT:      -5.9      6.344      9.569
REMARK  Name = 
REMARK  7 active torsions:
REMARK  status: ('A' for Active; 'I' for Inactive)
REMARK    1  A    between atoms: C_2  and  C_3
REMARK    2  A    between atoms: N_5  and  C_6
REMARK    3  A    between atoms: C_6  and  C_7
REMARK    4  A    between atoms: C_7  and  O_8
REMARK    5  A    between atoms: O_8  and  C_9
REMARK    6  A    between atoms: N_17  and  S_18
REMARK    7  A    between atoms: S_18  and  C_21
REMARK                            x       y       z     vdW  Elec       q    Type
REMARK                         _______ _______ _______ _____ _____    ______ ____
ROOT
ATOM      1  C   UNL     1      -1.578  11.343  19.676  0.00  0.00    +0.000 C 
ATOM      2  C   UNL     1      -0.316  10.512  19.946  0.00  0.00    +0.000 C 
ATOM      3  N   UNL     1      -0.303   9.916  21.288  0.00  0.00    +0.000 N 
ATOM      4  C   UNL     1      -0.285  10.664  22.464  0.00  0.00    +0.000 C 
ATOM      5  O   UNL     1       0.052  10.143  23.533  0.00  0.00    +0.000 OA
ATOM      6  C   UNL     1      -0.864  12.091  22.475  0.00  0.00    +0.000 C 
ATOM      7  C   UNL     1      -2.390  12.013  22.661  0.00  0.00    +0.000 C 
ATOM      8  C   UNL     1      -3.164  13.154  22.017  0.00  0.00    +0.000 C 
ATOM      9  C   UNL     1      -2.795  13.395  20.551  0.00  0.00    +0.000 C 
ATOM     10  C   UNL     1      -1.424  12.820  20.157  0.00  0.00    +0.000 C 
ATOM     11  N   UNL     1      -0.455  12.933  21.294  0.00  0.00    +0.000 NA
ENDROOT
BRANCH  11  12
ATOM     12  S   UNL     1       0.124  14.488  21.738  0.00  0.00    +0.000 S 
ATOM     13  O   UNL     1      -0.855  15.136  22.584  0.00  0.00    +0.000 OA
ATOM     14  O   UNL     1       1.490  14.339  22.190  0.00  0.00    +0.000 OA
BRANCH  12  15
ATOM     15  C   UNL     1       0.203  15.435  20.234  0.00  0.00    +0.000 A 
ATOM     16  C   UNL     1      -0.831  16.320  19.912  0.00  0.00    +0.000 A 
ATOM     17  C   UNL     1      -0.673  17.190  18.833  0.00  0.00    +0.000 A 
ATOM     18 CL   UNL     1      -1.943  18.276  18.422  0.00  0.00    +0.000 Cl
ATOM     19  C   UNL     1       0.510  17.209  18.096  0.00  0.00    +0.000 A 
ATOM     20  C   UNL     1       1.546  16.345  18.447  0.00  0.00    +0.000 A 
ATOM     21 CL   UNL     1       3.033  16.407  17.583  0.00  0.00    +0.000 Cl
ATOM     22  C   UNL     1       1.402  15.456  19.511  0.00  0.00    +0.000 A 
ENDBRANCH  12  15
ENDBRANCH  11  12
BRANCH   1  24
ATOM     23  C   UNL     1      -1.790  10.178  17.451  0.00  0.00    +0.000 C 
ATOM     24  C   UNL     1      -1.951  11.274  18.202  0.00  0.00    +0.000 C 
ENDBRANCH   1  24
BRANCH   3  25
ATOM     25  C   UNL     1      -0.011   8.476  21.385  0.00  0.00    +0.000 C 
BRANCH  25  26
ATOM     26  C   UNL     1       1.478   8.132  21.203  0.00  0.00    +0.000 C 
BRANCH  26  27
ATOM     27  O   UNL     1       1.754   7.798  19.836  0.00  0.00    +0.000 OA
ATOM     28  C   UNL     1       2.459   6.562  19.744  0.00  0.00    +0.000 C 
ENDBRANCH  26  27
ENDBRANCH  25  26
ENDBRANCH   3  25
TORSDOF 6
ENDMDL
MODEL 5
REMARK VINA RESULT:      -5.9      6.441      9.598
REMARK  Name = 
REMARK  7 active torsions:
REMARK  status: ('A' for Active; 'I' for Inactive)
REMARK    1  A    between atoms: C_2  and  C_3
REMARK    2  A    between atoms: N_5  and  C_6
REMARK    3  A    between atoms: C_6  and  C_7
REMARK    4  A    between atoms: C_7  and  O_8
REMARK    5  A    between atoms: O_8  and  C_9
REMARK    6  A    between atoms: N_17  and  S_18
REMARK    7  A    between atoms: S_18  and  C_21
REMARK                            x       y       z     vdW  Elec       q    Type
REMARK                         _______ _______ _______ _____ _____    ______ ____
ROOT
ATOM      1  C   UNL     1       0.181  10.409  18.340  0.00  0.00    +0.000 C 
ATOM      2  C   UNL     1      -1.170   9.706  18.526  0.00  0.00    +0.000 C 
ATOM      3  N   UNL     1      -2.312  10.569  18.199  0.00  0.00    +0.000 N 
ATOM      4  C   UNL     1      -2.618  11.738  18.892  0.00  0.00    +0.000 C 
ATOM      5  O   UNL     1      -3.743  12.244  18.804  0.00  0.00    +0.000 OA
ATOM      6  C   UNL     1      -1.504  12.511  19.623  0.00  0.00    +0.000 C 
ATOM      7  C   UNL     1      -0.775  13.415  18.613  0.00  0.00    +0.000 C 
ATOM      8  C   UNL     1       0.689  13.675  18.940  0.00  0.00    +0.000 C 
ATOM      9  C   UNL     1       1.489  12.401  19.225  0.00  0.00    +0.000 C 
ATOM     10  C   UNL     1       0.615  11.197  19.616  0.00  0.00    +0.000 C 
ATOM     11  N   UNL     1      -0.568  11.640  20.421  0.00  0.00    +0.000 NA
ENDROOT
BRANCH  11  12
ATOM     12  S   UNL     1      -0.317  12.207  22.023  0.00  0.00    +0.000 S 
ATOM     13  O   UNL     1      -0.147  11.074  22.907  0.00  0.00    +0.000 OA
ATOM     14  O   UNL     1       0.687  13.246  21.972  0.00  0.00    +0.000 OA
BRANCH  12  15
ATOM     15  C   UNL     1      -1.830  13.007  22.508  0.00  0.00    +0.000 A 
ATOM     16  C   UNL     1      -2.765  12.317  23.288  0.00  0.00    +0.000 A 
ATOM     17  C   UNL     1      -3.856  13.009  23.816  0.00  0.00    +0.000 A 
ATOM     18 CL   UNL     1      -5.016  12.168  24.769  0.00  0.00    +0.000 Cl
ATOM     19  C   UNL     1      -4.005  14.378  23.604  0.00  0.00    +0.000 A 
ATOM     20  C   UNL     1      -3.050  15.060  22.852  0.00  0.00    +0.000 A 
ATOM     21 CL   UNL     1      -3.194  16.762  22.639  0.00  0.00    +0.000 Cl
ATOM     22  C   UNL     1      -1.963  14.385  22.300  0.00  0.00    +0.000 A 
ENDBRANCH  12  15
ENDBRANCH  11  12
BRANCH   1  24
ATOM     23  C   UNL     1       1.854   8.574  18.768  0.00  0.00    +0.000 C 
ATOM     24  C   UNL     1       1.245   9.408  17.916  0.00  0.00    +0.000 C 
ENDBRANCH   1  24
BRANCH   3  25
ATOM     25  C   UNL     1      -3.332  10.024  17.288  0.00  0.00    +0.000 C 
BRANCH  25  26
ATOM     26  C   UNL     1      -2.780   9.617  15.910  0.00  0.00    +0.000 C 
BRANCH  26  27
ATOM     27  O   UNL     1      -3.056  10.633  14.937  0.00  0.00    +0.000 OA
ATOM     28  C   UNL     1      -3.703  10.082  13.792  0.00  0.00    +0.000 C 
ENDBRANCH  26  27
ENDBRANCH  25  26
ENDBRANCH   3  25
TORSDOF 6
ENDMDL
MODEL 6
REMARK VINA RESULT:      -5.8      6.496      9.566
REMARK  Name = 
REMARK  7 active torsions:
REMARK  status: ('A' for Active; 'I' for Inactive)
REMARK    1  A    between atoms: C_2  and  C_3
REMARK    2  A    between atoms: N_5  and  C_6
REMARK    3  A    between atoms: C_6  and  C_7
REMARK    4  A    between atoms: C_7  and  O_8
REMARK    5  A    between atoms: O_8  and  C_9
REMARK    6  A    between atoms: N_17  and  S_18
REMARK    7  A    between atoms: S_18  and  C_21
REMARK                            x       y       z     vdW  Elec       q    Type
REMARK                         _______ _______ _______ _____ _____    ______ ____
ROOT
ATOM      1  C   UNL     1      -0.190  10.847  21.641  0.00  0.00    +0.000 C 
ATOM      2  C   UNL     1      -0.222  10.439  20.162  0.00  0.00    +0.000 C 
ATOM      3  N   UNL     1       0.312  11.478  19.273  0.00  0.00    +0.000 N 
ATOM      4  C   UNL     1      -0.263  12.739  19.127  0.00  0.00    +0.000 C 
ATOM      5  O   UNL     1       0.013  13.445  18.150  0.00  0.00    +0.000 OA
ATOM      6  C   UNL     1      -1.100  13.338  20.273  0.00  0.00    +0.000 C 
ATOM      7  C   UNL     1      -0.153  13.994  21.295  0.00  0.00    +0.000 C 
ATOM      8  C   UNL     1      -0.669  13.989  22.727  0.00  0.00    +0.000 C 
ATOM      9  C   UNL     1      -1.137  12.613  23.206  0.00  0.00    +0.000 C 
ATOM     10  C   UNL     1      -1.468  11.639  22.061  0.00  0.00    +0.000 C 
ATOM     11  N   UNL     1      -2.070  12.372  20.901  0.00  0.00    +0.000 NA
ENDROOT
BRANCH  11  12
ATOM     12  S   UNL     1      -3.657  13.011  21.057  0.00  0.00    +0.000 S 
ATOM     13  O   UNL     1      -4.318  12.376  22.176  0.00  0.00    +0.000 OA
ATOM     14  O   UNL     1      -3.562  14.453  20.992  0.00  0.00    +0.000 OA
BRANCH  12  15
ATOM     15  C   UNL     1      -4.538  12.509  19.595  0.00  0.00    +0.000 A 
ATOM     16  C   UNL     1      -5.776  13.087  19.293  0.00  0.00    +0.000 A 
ATOM     17  C   UNL     1      -6.369  12.826  18.058  0.00  0.00    +0.000 A 
ATOM     18 CL   UNL     1      -7.895  13.525  17.680  0.00  0.00    +0.000 Cl
ATOM     19  C   UNL     1      -5.729  12.025  17.113  0.00  0.00    +0.000 A 
ATOM     20  C   UNL     1      -4.481  11.482  17.412  0.00  0.00    +0.000 A 
ATOM     21 CL   UNL     1      -3.656  10.545  16.227  0.00  0.00    +0.000 Cl
ATOM     22  C   UNL     1      -3.880  11.716  18.648  0.00  0.00    +0.000 A 
ENDBRANCH  12  15
ENDBRANCH  11  12
BRANCH   1  24
ATOM     23  C   UNL     1       0.605   8.499  22.095  0.00  0.00    +0.000 C 
ATOM     24  C   UNL     1       0.021   9.625  22.523  0.00  0.00    +0.000 C 
ENDBRANCH   1  24
BRANCH   3  25
ATOM     25  C   UNL     1       1.326  11.068  18.288  0.00  0.00    +0.000 C 
BRANCH  25  26
ATOM     26  C   UNL     1       1.279   9.571  17.934  0.00  0.00    +0.000 C 
BRANCH  26  27
ATOM     27  O   UNL     1       2.552   8.957  18.176  0.00  0.00    +0.000 OA
ATOM     28  C   UNL     1       2.422   7.542  18.299  0.00  0.00    +0.000 C 
ENDBRANCH  26  27
ENDBRANCH  25  26
ENDBRANCH   3  25
TORSDOF 6
ENDMDL
MODEL 7
REMARK VINA RESULT:      -5.8      5.749      8.696
REMARK  Name = 
REMARK  7 active torsions:
REMARK  status: ('A' for Active; 'I' for Inactive)
REMARK    1  A    between atoms: C_2  and  C_3
REMARK    2  A    between atoms: N_5  and  C_6
REMARK    3  A    between atoms: C_6  and  C_7
REMARK    4  A    between atoms: C_7  and  O_8
REMARK    5  A    between atoms: O_8  and  C_9
REMARK    6  A    between atoms: N_17  and  S_18
REMARK    7  A    between atoms: S_18  and  C_21
REMARK                            x       y       z     vdW  Elec       q    Type
REMARK                         _______ _______ _______ _____ _____    ______ ____
ROOT
ATOM      1  C   UNL     1      -0.964  10.876  19.071  0.00  0.00    +0.000 C 
ATOM      2  C   UNL     1       0.441  10.262  19.042  0.00  0.00    +0.000 C 
ATOM      3  N   UNL     1       0.819   9.643  20.318  0.00  0.00    +0.000 N 
ATOM      4  C   UNL     1       0.955  10.353  21.509  0.00  0.00    +0.000 C 
ATOM      5  O   UNL     1       1.580   9.869  22.461  0.00  0.00    +0.000 OA
ATOM      6  C   UNL     1       0.170  11.662  21.716  0.00  0.00    +0.000 C 
ATOM      7  C   UNL     1      -1.254  11.324  22.192  0.00  0.00    +0.000 C 
ATOM      8  C   UNL     1      -2.314  12.335  21.778  0.00  0.00    +0.000 C 
ATOM      9  C   UNL     1      -2.292  12.672  20.285  0.00  0.00    +0.000 C 
ATOM     10  C   UNL     1      -0.954  12.345  19.598  0.00  0.00    +0.000 C 
ATOM     11  N   UNL     1       0.193  12.590  20.529  0.00  0.00    +0.000 NA
ENDROOT
BRANCH  11  12
ATOM     12  S   UNL     1       0.595  14.208  20.943  0.00  0.00    +0.000 S 
ATOM     13  O   UNL     1      -0.620  14.986  21.054  0.00  0.00    +0.000 OA
ATOM     14  O   UNL     1       1.532  14.164  22.043  0.00  0.00    +0.000 OA
BRANCH  12  15
ATOM     15  C   UNL     1       1.494  14.865  19.556  0.00  0.00    +0.000 A 
ATOM     16  C   UNL     1       1.048  16.030  18.923  0.00  0.00    +0.000 A 
ATOM     17  C   UNL     1       1.857  16.637  17.961  0.00  0.00    +0.000 A 
ATOM     18 CL   UNL     1       1.313  18.065  17.170  0.00  0.00    +0.000 Cl
ATOM     19  C   UNL     1       3.111  16.116  17.650  0.00  0.00    +0.000 A 
ATOM     20  C   UNL     1       3.559  14.974  18.311  0.00  0.00    +0.000 A 
ATOM     21 CL   UNL     1       5.133  14.362  17.979  0.00  0.00    +0.000 Cl
ATOM     22  C   UNL     1       2.759  14.342  19.261  0.00  0.00    +0.000 A 
ENDBRANCH  12  15
ENDBRANCH  11  12
BRANCH   1  24
ATOM     23  C   UNL     1      -2.670  10.008  17.430  0.00  0.00    +0.000 C 
ATOM     24  C   UNL     1      -1.611  10.783  17.697  0.00  0.00    +0.000 C 
ENDBRANCH   1  24
BRANCH   3  25
ATOM     25  C   UNL     1       1.352   8.271  20.272  0.00  0.00    +0.000 C 
BRANCH  25  26
ATOM     26  C   UNL     1       2.177   7.966  19.009  0.00  0.00    +0.000 C 
BRANCH  26  27
ATOM     27  O   UNL     1       2.871   6.720  19.150  0.00  0.00    +0.000 OA
ATOM     28  C   UNL     1       3.508   6.349  17.930  0.00  0.00    +0.000 C 
ENDBRANCH  26  27
ENDBRANCH  25  26
ENDBRANCH   3  25
TORSDOF 6
ENDMDL
MODEL 8
REMARK VINA RESULT:      -5.7      5.613      8.439
REMARK  Name = 
REMARK  7 active torsions:
REMARK  status: ('A' for Active; 'I' for Inactive)
REMARK    1  A    between atoms: C_2  and  C_3
REMARK    2  A    between atoms: N_5  and  C_6
REMARK    3  A    between atoms: C_6  and  C_7
REMARK    4  A    between atoms: C_7  and  O_8
REMARK    5  A    between atoms: O_8  and  C_9
REMARK    6  A    between atoms: N_17  and  S_18
REMARK    7  A    between atoms: S_18  and  C_21
REMARK                            x       y       z     vdW  Elec       q    Type
REMARK                         _______ _______ _______ _____ _____    ______ ____
ROOT
ATOM      1  C   UNL     1      -1.107  10.509  18.802  0.00  0.00    +0.000 C 
ATOM      2  C   UNL     1       0.320   9.946  18.843  0.00  0.00    +0.000 C 
ATOM      3  N   UNL     1       0.740   9.556  20.194  0.00  0.00    +0.000 N 
ATOM      4  C   UNL     1       0.868  10.456  21.252  0.00  0.00    +0.000 C 
ATOM      5  O   UNL     1       1.525  10.154  22.255  0.00  0.00    +0.000 OA
ATOM      6  C   UNL     1       0.040  11.754  21.260  0.00  0.00    +0.000 C 
ATOM      7  C   UNL     1      -1.364  11.450  21.814  0.00  0.00    +0.000 C 
ATOM      8  C   UNL     1      -2.467  12.344  21.265  0.00  0.00    +0.000 C 
ATOM      9  C   UNL     1      -2.480  12.434  19.737  0.00  0.00    +0.000 C 
ATOM     10  C   UNL     1      -1.143  12.044  19.083  0.00  0.00    +0.000 C 
ATOM     11  N   UNL     1       0.010  12.476  19.938  0.00  0.00    +0.000 NA
ENDROOT
BRANCH  11  12
ATOM     12  S   UNL     1       0.358  14.153  20.074  0.00  0.00    +0.000 S 
ATOM     13  O   UNL     1      -0.029  14.820  18.851  0.00  0.00    +0.000 OA
ATOM     14  O   UNL     1      -0.157  14.610  21.346  0.00  0.00    +0.000 OA
BRANCH  12  15
ATOM     15  C   UNL     1       2.129  14.282  20.185  0.00  0.00    +0.000 A 
ATOM     16  C   UNL     1       2.890  14.454  19.024  0.00  0.00    +0.000 A 
ATOM     17  C   UNL     1       4.252  14.739  19.136  0.00  0.00    +0.000 A 
ATOM     18 CL   UNL     1       5.199  14.942  17.713  0.00  0.00    +0.000 Cl
ATOM     19  C   UNL     1       4.851  14.887  20.385  0.00  0.00    +0.000 A 
ATOM     20  C   UNL     1       4.075  14.746  21.535  0.00  0.00    +0.000 A 
ATOM     21 CL   UNL     1       4.794  14.990  23.079  0.00  0.00    +0.000 Cl
ATOM     22  C   UNL     1       2.718  14.443  21.445  0.00  0.00    +0.000 A 
ENDBRANCH  12  15
ENDBRANCH  11  12
BRANCH   1  24
ATOM     23  C   UNL     1      -3.017   9.690  17.376  0.00  0.00    +0.000 C 
ATOM     24  C   UNL     1      -1.771  10.172  17.476  0.00  0.00    +0.000 C 
ENDBRANCH   1  24
BRANCH   3  25
ATOM     25  C   UNL     1       1.321   8.214  20.361  0.00  0.00    +0.000 C 
BRANCH  25  26
ATOM     26  C   UNL     1       2.192   7.763  19.175  0.00  0.00    +0.000 C 
BRANCH  26  27
ATOM     27  O   UNL     1       2.547   6.380  19.308  0.00  0.00    +0.000 OA
ATOM     28  C   UNL     1       3.031   5.855  18.075  0.00  0.00    +0.000 C 
ENDBRANCH  26  27
ENDBRANCH  25  26
ENDBRANCH   3  25
TORSDOF 6
ENDMDL
MODEL 9
REMARK VINA RESULT:      -5.7      7.667     10.144
REMARK  Name = 
REMARK  7 active torsions:
REMARK  status: ('A' for Active; 'I' for Inactive)
REMARK    1  A    between atoms: C_2  and  C_3
REMARK    2  A    between atoms: N_5  and  C_6
REMARK    3  A    between atoms: C_6  and  C_7
REMARK    4  A    between atoms: C_7  and  O_8
REMARK    5  A    between atoms: O_8  and  C_9
REMARK    6  A    between atoms: N_17  and  S_18
REMARK    7  A    between atoms: S_18  and  C_21
REMARK                            x       y       z     vdW  Elec       q    Type
REMARK                         _______ _______ _______ _____ _____    ______ ____
ROOT
ATOM      1  C   UNL     1      -2.702  12.266  20.423  0.00  0.00    +0.000 C 
ATOM      2  C   UNL     1      -2.336  12.290  18.933  0.00  0.00    +0.000 C 
ATOM      3  N   UNL     1      -1.567  11.112  18.516  0.00  0.00    +0.000 N 
ATOM      4  C   UNL     1      -0.301  10.802  19.011  0.00  0.00    +0.000 C 
ATOM      5  O   UNL     1       0.432  10.009  18.408  0.00  0.00    +0.000 OA
ATOM      6  C   UNL     1       0.121  11.299  20.406  0.00  0.00    +0.000 C 
ATOM      7  C   UNL     1      -0.426  10.331  21.470  0.00  0.00    +0.000 C 
ATOM      8  C   UNL     1      -0.729  10.976  22.815  0.00  0.00    +0.000 C 
ATOM      9  C   UNL     1      -1.595  12.234  22.711  0.00  0.00    +0.000 C 
ATOM     10  C   UNL     1      -1.579  12.882  21.315  0.00  0.00    +0.000 C 
ATOM     11  N   UNL     1      -0.229  12.739  20.681  0.00  0.00    +0.000 NA
ENDROOT
BRANCH  11  12
ATOM     12  S   UNL     1       1.085  13.646  21.315  0.00  0.00    +0.000 S 
ATOM     13  O   UNL     1       0.655  14.331  22.514  0.00  0.00    +0.000 OA
ATOM     14  O   UNL     1       2.244  12.782  21.348  0.00  0.00    +0.000 OA
BRANCH  12  15
ATOM     15  C   UNL     1       1.443  14.905  20.110  0.00  0.00    +0.000 A 
ATOM     16  C   UNL     1       2.673  14.902  19.442  0.00  0.00    +0.000 A 
ATOM     17  C   UNL     1       2.871  15.776  18.373  0.00  0.00    +0.000 A 
ATOM     18 CL   UNL     1       4.383  15.788  17.551  0.00  0.00    +0.000 Cl
ATOM     19  C   UNL     1       1.851  16.624  17.945  0.00  0.00    +0.000 A 
ATOM     20  C   UNL     1       0.620  16.595  18.597  0.00  0.00    +0.000 A 
ATOM     21 CL   UNL     1      -0.664  17.593  18.033  0.00  0.00    +0.000 Cl
ATOM     22  C   UNL     1       0.408  15.742  19.679  0.00  0.00    +0.000 A 
ENDBRANCH  12  15
ENDBRANCH  11  12
BRANCH   1  24
ATOM     23  C   UNL     1      -5.219  12.342  20.544  0.00  0.00    +0.000 C 
ATOM     24  C   UNL     1      -4.036  12.961  20.651  0.00  0.00    +0.000 C 
ENDBRANCH   1  24
BRANCH   3  25
ATOM     25  C   UNL     1      -2.033  10.388  17.321  0.00  0.00    +0.000 C 
BRANCH  25  26
ATOM     26  C   UNL     1      -3.558  10.188  17.272  0.00  0.00    +0.000 C 
BRANCH  26  27
ATOM     27  O   UNL     1      -4.151  11.078  16.317  0.00  0.00    +0.000 OA
ATOM     28  C   UNL     1      -5.223  11.814  16.902  0.00  0.00    +0.000 C 
ENDBRANCH  26  27
ENDBRANCH  25  26
ENDBRANCH   3  25
TORSDOF 6
ENDMDL
