MODEL 1
REMARK VINA RESULT:      -5.7      0.000      0.000
REMARK  Name = 
REMARK  9 active torsions:
REMARK  status: ('A' for Active; 'I' for Inactive)
REMARK    1  A    between atoms: C_1  and  C_2
REMARK    2  A    between atoms: C_2  and  O_3
REMARK    3  A    between atoms: O_3  and  C_4
REMARK    4  A    between atoms: C_4  and  C_6
REMARK    5  A    between atoms: N_8  and  C_9
REMARK    6  A    between atoms: C_18  and  C_19
REMARK    7  A    between atoms: C_19  and  C_20
REMARK    8  A    between atoms: C_22  and  C_23
REMARK    9  A    between atoms: N_24  and  C_25
REMARK                            x       y       z     vdW  Elec       q    Type
REMARK                         _______ _______ _______ _____ _____    ______ ____
ROOT
ATOM      1  C   UNL     1       7.030  14.064  23.392  0.00  0.00    +0.000 C 
ATOM      2  N   UNL     1       6.245  14.059  22.370  0.00  0.00    +0.000 NA
ATOM      3  N   UNL     1       6.937  14.459  21.234  0.00  0.00    +0.000 N 
ATOM      4  C   UNL     1       8.315  14.992  21.507  0.00  0.00    +0.000 C 
ATOM      5  S   UNL     1       8.649  14.640  23.286  0.00  0.00    +0.000 S 
ATOM      6  S   UNL     1       8.319  16.890  21.301  0.00  0.00    +0.000 S 
ATOM      7  C   UNL     1       9.412  16.732  19.963  0.00  0.00    +0.000 C 
ATOM      8  C   UNL     1      10.119  15.600  20.010  0.00  0.00    +0.000 C 
ATOM      9  C   UNL     1      11.581  15.909  20.325  0.00  0.00    +0.000 C 
ATOM     10  N   UNL     1       9.498  14.513  20.700  0.00  0.00    +0.000 N 
ENDROOT
BRANCH   3  11
ATOM     11  C   UNL     1       6.167  15.111  20.244  0.00  0.00    +0.000 A 
ATOM     12  C   UNL     1       6.301  14.790  18.881  0.00  0.00    +0.000 A 
ATOM     13  C   UNL     1       5.391  15.268  17.931  0.00  0.00    +0.000 A 
ATOM     14  C   UNL     1       4.355  16.112  18.320  0.00  0.00    +0.000 A 
ATOM     15  C   UNL     1       4.242  16.492  19.651  0.00  0.00    +0.000 A 
ATOM     16  C   UNL     1       5.145  16.000  20.596  0.00  0.00    +0.000 A 
ENDBRANCH   3  11
BRANCH  10  17
ATOM     17  C   UNL     1       9.306  13.239  20.051  0.00  0.00    +0.000 A 
ATOM     18  C   UNL     1       9.303  12.031  20.773  0.00  0.00    +0.000 A 
ATOM     19  C   UNL     1       9.367  10.785  20.126  0.00  0.00    +0.000 A 
ATOM     20  C   UNL     1       9.361  10.710  18.737  0.00  0.00    +0.000 A 
ATOM     21  C   UNL     1       9.234  11.882  18.002  0.00  0.00    +0.000 A 
ATOM     22  C   UNL     1       9.189  13.126  18.656  0.00  0.00    +0.000 A 
ENDBRANCH  10  17
BRANCH   7  23
ATOM     23  C   UNL     1       9.016  17.185  18.585  0.00  0.00    +0.000 C 
ATOM     24  C   UNL     1       9.750  16.648  17.384  0.00  0.00    +0.000 C 
ATOM     25  O   UNL     1       8.088  17.986  18.422  0.00  0.00    +0.000 OA
ENDBRANCH   7  23
BRANCH   1  26
ATOM     26  C   UNL     1       6.745  13.540  24.782  0.00  0.00    +0.000 C 
ATOM     27  O   UNL     1       7.423  13.760  25.768  0.00  0.00    +0.000 OA
BRANCH  26  28
ATOM     28  O   UNL     1       5.676  12.712  24.702  0.00  0.00    +0.000 OA
BRANCH  28  30
ATOM     29  C   UNL     1       5.272  10.918  26.210  0.00  0.00    +0.000 C 
ATOM     30  C   UNL     1       5.924  11.315  24.900  0.00  0.00    +0.000 C 
ENDBRANCH  28  30
ENDBRANCH  26  28
ENDBRANCH   1  26
TORSDOF 6
ENDMDL
MODEL 2
REMARK VINA RESULT:      -5.6      8.101     10.802
REMARK  Name = 
REMARK  9 active torsions:
REMARK  status: ('A' for Active; 'I' for Inactive)
REMARK    1  A    between atoms: C_1  and  C_2
REMARK    2  A    between atoms: C_2  and  O_3
REMARK    3  A    between atoms: O_3  and  C_4
REMARK    4  A    between atoms: C_4  and  C_6
REMARK    5  A    between atoms: N_8  and  C_9
REMARK    6  A    between atoms: C_18  and  C_19
REMARK    7  A    between atoms: C_19  and  C_20
REMARK    8  A    between atoms: C_22  and  C_23
REMARK    9  A    between atoms: N_24  and  C_25
REMARK                            x       y       z     vdW  Elec       q    Type
REMARK                         _______ _______ _______ _____ _____    ______ ____
ROOT
ATOM      1  C   UNL     1      -2.711  12.010  18.192  0.00  0.00    +0.000 C 
ATOM      2  N   UNL     1      -1.485  12.407  18.220  0.00  0.00    +0.000 NA
ATOM      3  N   UNL     1      -1.126  12.756  19.515  0.00  0.00    +0.000 N 
ATOM      4  C   UNL     1      -2.273  12.796  20.484  0.00  0.00    +0.000 C 
ATOM      5  S   UNL     1      -3.715  12.079  19.588  0.00  0.00    +0.000 S 
ATOM      6  S   UNL     1      -2.709  14.611  20.885  0.00  0.00    +0.000 S 
ATOM      7  C   UNL     1      -2.245  14.348  22.536  0.00  0.00    +0.000 C 
ATOM      8  C   UNL     1      -2.323  13.063  22.891  0.00  0.00    +0.000 C 
ATOM      9  C   UNL     1      -3.480  12.860  23.867  0.00  0.00    +0.000 C 
ATOM     10  N   UNL     1      -2.167  12.118  21.829  0.00  0.00    +0.000 N 
ENDROOT
BRANCH   3  11
ATOM     11  C   UNL     1      -0.137  13.761  19.628  0.00  0.00    +0.000 A 
ATOM     12  C   UNL     1       0.976  13.603  20.473  0.00  0.00    +0.000 A 
ATOM     13  C   UNL     1       2.058  14.489  20.418  0.00  0.00    +0.000 A 
ATOM     14  C   UNL     1       2.028  15.574  19.548  0.00  0.00    +0.000 A 
ATOM     15  C   UNL     1       0.911  15.785  18.750  0.00  0.00    +0.000 A 
ATOM     16  C   UNL     1      -0.160  14.889  18.799  0.00  0.00    +0.000 A 
ENDBRANCH   3  11
BRANCH  10  17
ATOM     17  C   UNL     1      -1.164  11.084  21.903  0.00  0.00    +0.000 A 
ATOM     18  C   UNL     1      -0.699  10.417  20.754  0.00  0.00    +0.000 A 
ATOM     19  C   UNL     1       0.082   9.253  20.843  0.00  0.00    +0.000 A 
ATOM     20  C   UNL     1       0.481   8.763  22.082  0.00  0.00    +0.000 A 
ATOM     21  C   UNL     1       0.145   9.476  23.225  0.00  0.00    +0.000 A 
ATOM     22  C   UNL     1      -0.653  10.630  23.130  0.00  0.00    +0.000 A 
ENDBRANCH  10  17
BRANCH   7  23
ATOM     23  C   UNL     1      -1.107  15.115  23.150  0.00  0.00    +0.000 C 
ATOM     24  C   UNL     1      -0.551  16.321  22.439  0.00  0.00    +0.000 C 
ATOM     25  O   UNL     1      -0.626  14.776  24.238  0.00  0.00    +0.000 OA
ENDBRANCH   7  23
BRANCH   1  26
ATOM     26  C   UNL     1      -3.455  11.380  17.036  0.00  0.00    +0.000 C 
ATOM     27  O   UNL     1      -4.639  11.102  17.030  0.00  0.00    +0.000 OA
BRANCH  26  28
ATOM     28  O   UNL     1      -2.551  11.092  16.068  0.00  0.00    +0.000 OA
BRANCH  28  30
ATOM     29  C   UNL     1      -3.199  10.101  14.006  0.00  0.00    +0.000 C 
ATOM     30  C   UNL     1      -2.691   9.828  15.408  0.00  0.00    +0.000 C 
ENDBRANCH  28  30
ENDBRANCH  26  28
ENDBRANCH   1  26
TORSDOF 6
ENDMDL
MODEL 3
REMARK VINA RESULT:      -5.5      2.283      4.687
REMARK  Name = 
REMARK  9 active torsions:
REMARK  status: ('A' for Active; 'I' for Inactive)
REMARK    1  A    between atoms: C_1  and  C_2
REMARK    2  A    between atoms: C_2  and  O_3
REMARK    3  A    between atoms: O_3  and  C_4
REMARK    4  A    between atoms: C_4  and  C_6
REMARK    5  A    between atoms: N_8  and  C_9
REMARK    6  A    between atoms: C_18  and  C_19
REMARK    7  A    between atoms: C_19  and  C_20
REMARK    8  A    between atoms: C_22  and  C_23
REMARK    9  A    between atoms: N_24  and  C_25
REMARK                            x       y       z     vdW  Elec       q    Type
REMARK                         _______ _______ _______ _____ _____    ______ ____
ROOT
ATOM      1  C   UNL     1       7.483  12.659  22.772  0.00  0.00    +0.000 C 
ATOM      2  N   UNL     1       8.661  12.356  22.344  0.00  0.00    +0.000 NA
ATOM      3  N   UNL     1       9.192  13.413  21.616  0.00  0.00    +0.000 N 
ATOM      4  C   UNL     1       8.214  14.517  21.330  0.00  0.00    +0.000 C 
ATOM      5  S   UNL     1       6.712  14.133  22.327  0.00  0.00    +0.000 S 
ATOM      6  S   UNL     1       7.699  14.454  19.493  0.00  0.00    +0.000 S 
ATOM      7  C   UNL     1       8.441  16.002  19.242  0.00  0.00    +0.000 C 
ATOM      8  C   UNL     1       8.527  16.717  20.367  0.00  0.00    +0.000 C 
ATOM      9  C   UNL     1       7.561  17.899  20.310  0.00  0.00    +0.000 C 
ATOM     10  N   UNL     1       8.590  15.959  21.577  0.00  0.00    +0.000 N 
ENDROOT
BRANCH   3  11
ATOM     11  C   UNL     1      10.098  13.058  20.591  0.00  0.00    +0.000 A 
ATOM     12  C   UNL     1      11.256  13.816  20.342  0.00  0.00    +0.000 A 
ATOM     13  C   UNL     1      12.259  13.346  19.486  0.00  0.00    +0.000 A 
ATOM     14  C   UNL     1      12.103  12.129  18.830  0.00  0.00    +0.000 A 
ATOM     15  C   UNL     1      10.938  11.394  19.013  0.00  0.00    +0.000 A 
ATOM     16  C   UNL     1       9.948  11.862  19.880  0.00  0.00    +0.000 A 
ENDBRANCH   3  11
BRANCH  10  17
ATOM     17  C   UNL     1       9.674  16.145  22.510  0.00  0.00    +0.000 A 
ATOM     18  C   UNL     1       9.524  15.884  23.885  0.00  0.00    +0.000 A 
ATOM     19  C   UNL     1      10.485  16.297  24.823  0.00  0.00    +0.000 A 
ATOM     20  C   UNL     1      11.657  16.918  24.406  0.00  0.00    +0.000 A 
ATOM     21  C   UNL     1      11.889  17.070  23.044  0.00  0.00    +0.000 A 
ATOM     22  C   UNL     1      10.914  16.672  22.112  0.00  0.00    +0.000 A 
ENDBRANCH  10  17
BRANCH   7  23
ATOM     23  C   UNL     1       9.594  16.161  18.291  0.00  0.00    +0.000 C 
ATOM     24  C   UNL     1      10.453  17.396  18.360  0.00  0.00    +0.000 C 
ATOM     25  O   UNL     1       9.856  15.285  17.458  0.00  0.00    +0.000 OA
ENDBRANCH   7  23
BRANCH   1  26
ATOM     26  C   UNL     1       6.619  11.881  23.739  0.00  0.00    +0.000 C 
ATOM     27  O   UNL     1       5.414  11.739  23.646  0.00  0.00    +0.000 OA
BRANCH  26  28
ATOM     28  O   UNL     1       7.408  11.471  24.762  0.00  0.00    +0.000 OA
BRANCH  28  30
ATOM     29  C   UNL     1       8.125  13.168  26.266  0.00  0.00    +0.000 C 
ATOM     30  C   UNL     1       7.139  12.036  26.051  0.00  0.00    +0.000 C 
ENDBRANCH  28  30
ENDBRANCH  26  28
ENDBRANCH   1  26
TORSDOF 6
ENDMDL
MODEL 4
REMARK VINA RESULT:      -5.5      0.806      1.001
REMARK  Name = 
REMARK  9 active torsions:
REMARK  status: ('A' for Active; 'I' for Inactive)
REMARK    1  A    between atoms: C_1  and  C_2
REMARK    2  A    between atoms: C_2  and  O_3
REMARK    3  A    between atoms: O_3  and  C_4
REMARK    4  A    between atoms: C_4  and  C_6
REMARK    5  A    between atoms: N_8  and  C_9
REMARK    6  A    between atoms: C_18  and  C_19
REMARK    7  A    between atoms: C_19  and  C_20
REMARK    8  A    between atoms: C_22  and  C_23
REMARK    9  A    between atoms: N_24  and  C_25
REMARK                            x       y       z     vdW  Elec       q    Type
REMARK                         _______ _______ _______ _____ _____    ______ ____
ROOT
ATOM      1  C   UNL     1       6.533  14.488  23.464  0.00  0.00    +0.000 C 
ATOM      2  N   UNL     1       5.850  14.329  22.382  0.00  0.00    +0.000 NA
ATOM      3  N   UNL     1       6.623  14.659  21.277  0.00  0.00    +0.000 N 
ATOM      4  C   UNL     1       7.936  15.306  21.613  0.00  0.00    +0.000 C 
ATOM      5  S   UNL     1       8.120  15.156  23.441  0.00  0.00    +0.000 S 
ATOM      6  S   UNL     1       7.852  17.170  21.210  0.00  0.00    +0.000 S 
ATOM      7  C   UNL     1       9.074  16.953  19.998  0.00  0.00    +0.000 C 
ATOM      8  C   UNL     1       9.836  15.880  20.225  0.00  0.00    +0.000 C 
ATOM      9  C   UNL     1      11.242  16.314  20.634  0.00  0.00    +0.000 C 
ATOM     10  N   UNL     1       9.216  14.828  20.968  0.00  0.00    +0.000 N 
ENDROOT
BRANCH   3  11
ATOM     11  C   UNL     1       5.914  15.158  20.159  0.00  0.00    +0.000 A 
ATOM     12  C   UNL     1       6.222  14.743  18.851  0.00  0.00    +0.000 A 
ATOM     13  C   UNL     1       5.385  15.059  17.775  0.00  0.00    +0.000 A 
ATOM     14  C   UNL     1       4.247  15.833  17.980  0.00  0.00    +0.000 A 
ATOM     15  C   UNL     1       3.958  16.306  19.254  0.00  0.00    +0.000 A 
ATOM     16  C   UNL     1       4.790  15.975  20.326  0.00  0.00    +0.000 A 
ENDBRANCH   3  11
BRANCH  10  17
ATOM     17  C   UNL     1       9.158  13.486  20.442  0.00  0.00    +0.000 A 
ATOM     18  C   UNL     1       9.165  12.358  21.284  0.00  0.00    +0.000 A 
ATOM     19  C   UNL     1       9.360  11.062  20.776  0.00  0.00    +0.000 A 
ATOM     20  C   UNL     1       9.480  10.850  19.407  0.00  0.00    +0.000 A 
ATOM     21  C   UNL     1       9.346  11.932  18.546  0.00  0.00    +0.000 A 
ATOM     22  C   UNL     1       9.170  13.229  19.061  0.00  0.00    +0.000 A 
ENDBRANCH  10  17
BRANCH   7  23
ATOM     23  C   UNL     1       8.786  17.240  18.551  0.00  0.00    +0.000 C 
ATOM     24  C   UNL     1       9.569  16.528  17.479  0.00  0.00    +0.000 C 
ATOM     25  O   UNL     1       7.906  18.046  18.226  0.00  0.00    +0.000 OA
ENDBRANCH   7  23
BRANCH   1  26
ATOM     26  C   UNL     1       6.149  14.086  24.870  0.00  0.00    +0.000 C 
ATOM     27  O   UNL     1       5.050  14.243  25.370  0.00  0.00    +0.000 OA
BRANCH  26  28
ATOM     28  O   UNL     1       7.262  13.626  25.490  0.00  0.00    +0.000 OA
BRANCH  28  30
ATOM     29  C   UNL     1       7.919  11.509  24.627  0.00  0.00    +0.000 C 
ATOM     30  C   UNL     1       7.294  12.229  25.807  0.00  0.00    +0.000 C 
ENDBRANCH  28  30
ENDBRANCH  26  28
ENDBRANCH   1  26
TORSDOF 6
ENDMDL
MODEL 5
REMARK VINA RESULT:      -5.4      4.884      8.646
REMARK  Name = 
REMARK  9 active torsions:
REMARK  status: ('A' for Active; 'I' for Inactive)
REMARK    1  A    between atoms: C_1  and  C_2
REMARK    2  A    between atoms: C_2  and  O_3
REMARK    3  A    between atoms: O_3  and  C_4
REMARK    4  A    between atoms: C_4  and  C_6
REMARK    5  A    between atoms: N_8  and  C_9
REMARK    6  A    between atoms: C_18  and  C_19
REMARK    7  A    between atoms: C_19  and  C_20
REMARK    8  A    between atoms: C_22  and  C_23
REMARK    9  A    between atoms: N_24  and  C_25
REMARK                            x       y       z     vdW  Elec       q    Type
REMARK                         _______ _______ _______ _____ _____    ______ ____
ROOT
ATOM      1  C   UNL     1       4.397  14.869  18.620  0.00  0.00    +0.000 C 
ATOM      2  N   UNL     1       3.471  14.190  18.034  0.00  0.00    +0.000 NA
ATOM      3  N   UNL     1       2.244  14.436  18.637  0.00  0.00    +0.000 N 
ATOM      4  C   UNL     1       2.331  15.227  19.911  0.00  0.00    +0.000 C 
ATOM      5  S   UNL     1       4.077  15.805  20.028  0.00  0.00    +0.000 S 
ATOM      6  S   UNL     1       2.020  14.076  21.402  0.00  0.00    +0.000 S 
ATOM      7  C   UNL     1       0.579  14.966  21.776  0.00  0.00    +0.000 C 
ATOM      8  C   UNL     1       0.609  16.214  21.300  0.00  0.00    +0.000 C 
ATOM      9  C   UNL     1       0.740  17.210  22.450  0.00  0.00    +0.000 C 
ATOM     10  N   UNL     1       1.424  16.413  20.142  0.00  0.00    +0.000 N 
ENDROOT
BRANCH   3  11
ATOM     11  C   UNL     1       1.312  13.374  18.588  0.00  0.00    +0.000 A 
ATOM     12  C   UNL     1       1.682  12.058  18.918  0.00  0.00    +0.000 A 
ATOM     13  C   UNL     1       0.719  11.056  19.086  0.00  0.00    +0.000 A 
ATOM     14  C   UNL     1      -0.628  11.340  18.882  0.00  0.00    +0.000 A 
ATOM     15  C   UNL     1      -1.009  12.618  18.494  0.00  0.00    +0.000 A 
ATOM     16  C   UNL     1      -0.045  13.618  18.343  0.00  0.00    +0.000 A 
ENDBRANCH   3  11
BRANCH  10  17
ATOM     17  C   UNL     1       0.873  16.991  18.941  0.00  0.00    +0.000 A 
ATOM     18  C   UNL     1       1.694  17.491  17.913  0.00  0.00    +0.000 A 
ATOM     19  C   UNL     1       1.172  18.271  16.868  0.00  0.00    +0.000 A 
ATOM     20  C   UNL     1      -0.195  18.512  16.780  0.00  0.00    +0.000 A 
ATOM     21  C   UNL     1      -1.041  17.921  17.710  0.00  0.00    +0.000 A 
ATOM     22  C   UNL     1      -0.511  17.157  18.765  0.00  0.00    +0.000 A 
ENDBRANCH  10  17
BRANCH   7  23
ATOM     23  C   UNL     1      -0.769  14.301  21.748  0.00  0.00    +0.000 C 
ATOM     24  C   UNL     1      -0.925  12.909  22.301  0.00  0.00    +0.000 C 
ATOM     25  O   UNL     1      -1.756  14.885  21.286  0.00  0.00    +0.000 OA
ENDBRANCH   7  23
BRANCH   1  26
ATOM     26  C   UNL     1       5.837  15.037  18.188  0.00  0.00    +0.000 C 
ATOM     27  O   UNL     1       6.471  14.232  17.533  0.00  0.00    +0.000 OA
BRANCH  26  28
ATOM     28  O   UNL     1       6.307  16.179  18.746  0.00  0.00    +0.000 OA
BRANCH  28  30
ATOM     29  C   UNL     1       8.416  17.198  18.335  0.00  0.00    +0.000 C 
ATOM     30  C   UNL     1       7.675  16.173  19.172  0.00  0.00    +0.000 C 
ENDBRANCH  28  30
ENDBRANCH  26  28
ENDBRANCH   1  26
TORSDOF 6
ENDMDL
MODEL 6
REMARK VINA RESULT:      -5.4      8.286     10.463
REMARK  Name = 
REMARK  9 active torsions:
REMARK  status: ('A' for Active; 'I' for Inactive)
REMARK    1  A    between atoms: C_1  and  C_2
REMARK    2  A    between atoms: C_2  and  O_3
REMARK    3  A    between atoms: O_3  and  C_4
REMARK    4  A    between atoms: C_4  and  C_6
REMARK    5  A    between atoms: N_8  and  C_9
REMARK    6  A    between atoms: C_18  and  C_19
REMARK    7  A    between atoms: C_19  and  C_20
REMARK    8  A    between atoms: C_22  and  C_23
REMARK    9  A    between atoms: N_24  and  C_25
REMARK                            x       y       z     vdW  Elec       q    Type
REMARK                         _______ _______ _______ _____ _____    ______ ____
ROOT
ATOM      1  C   UNL     1       0.127  10.455  22.036  0.00  0.00    +0.000 C 
ATOM      2  N   UNL     1      -1.120  10.515  22.357  0.00  0.00    +0.000 NA
ATOM      3  N   UNL     1      -1.717  11.614  21.753  0.00  0.00    +0.000 N 
ATOM      4  C   UNL     1      -0.751  12.549  21.083  0.00  0.00    +0.000 C 
ATOM      5  S   UNL     1       0.880  11.690  21.104  0.00  0.00    +0.000 S 
ATOM      6  S   UNL     1      -0.563  14.133  22.131  0.00  0.00    +0.000 S 
ATOM      7  C   UNL     1      -1.261  15.059  20.840  0.00  0.00    +0.000 C 
ATOM      8  C   UNL     1      -1.117  14.468  19.651  0.00  0.00    +0.000 C 
ATOM      9  C   UNL     1      -0.119  15.247  18.797  0.00  0.00    +0.000 C 
ATOM     10  N   UNL     1      -1.008  13.043  19.679  0.00  0.00    +0.000 N 
ENDROOT
BRANCH   3  11
ATOM     11  C   UNL     1      -2.802  12.186  22.456  0.00  0.00    +0.000 A 
ATOM     12  C   UNL     1      -3.932  12.683  21.781  0.00  0.00    +0.000 A 
ATOM     13  C   UNL     1      -5.092  13.041  22.477  0.00  0.00    +0.000 A 
ATOM     14  C   UNL     1      -5.129  12.951  23.865  0.00  0.00    +0.000 A 
ATOM     15  C   UNL     1      -4.002  12.522  24.556  0.00  0.00    +0.000 A 
ATOM     16  C   UNL     1      -2.853  12.152  23.854  0.00  0.00    +0.000 A 
ENDBRANCH   3  11
BRANCH  10  17
ATOM     17  C   UNL     1      -1.905  12.217  18.908  0.00  0.00    +0.000 A 
ATOM     18  C   UNL     1      -3.277  12.511  18.801  0.00  0.00    +0.000 A 
ATOM     19  C   UNL     1      -4.189  11.585  18.266  0.00  0.00    +0.000 A 
ATOM     20  C   UNL     1      -3.744  10.370  17.756  0.00  0.00    +0.000 A 
ATOM     21  C   UNL     1      -2.379  10.111  17.731  0.00  0.00    +0.000 A 
ATOM     22  C   UNL     1      -1.474  11.034  18.285  0.00  0.00    +0.000 A 
ENDBRANCH  10  17
BRANCH   7  23
ATOM     23  C   UNL     1      -2.551  15.804  21.035  0.00  0.00    +0.000 C 
ATOM     24  C   UNL     1      -2.875  16.396  22.381  0.00  0.00    +0.000 C 
ATOM     25  O   UNL     1      -3.349  15.948  20.100  0.00  0.00    +0.000 OA
ENDBRANCH   7  23
BRANCH   1  26
ATOM     26  C   UNL     1       1.105   9.338  22.325  0.00  0.00    +0.000 C 
ATOM     27  O   UNL     1       2.091   9.434  23.031  0.00  0.00    +0.000 OA
BRANCH  26  28
ATOM     28  O   UNL     1       0.743   8.266  21.579  0.00  0.00    +0.000 OA
BRANCH  28  30
ATOM     29  C   UNL     1       1.797   6.403  20.542  0.00  0.00    +0.000 C 
ATOM     30  C   UNL     1       1.613   7.908  20.498  0.00  0.00    +0.000 C 
ENDBRANCH  28  30
ENDBRANCH  26  28
ENDBRANCH   1  26
TORSDOF 6
ENDMDL
MODEL 7
REMARK VINA RESULT:      -5.4      9.433     12.144
REMARK  Name = 
REMARK  9 active torsions:
REMARK  status: ('A' for Active; 'I' for Inactive)
REMARK    1  A    between atoms: C_1  and  C_2
REMARK    2  A    between atoms: C_2  and  O_3
REMARK    3  A    between atoms: O_3  and  C_4
REMARK    4  A    between atoms: C_4  and  C_6
REMARK    5  A    between atoms: N_8  and  C_9
REMARK    6  A    between atoms: C_18  and  C_19
REMARK    7  A    between atoms: C_19  and  C_20
REMARK    8  A    between atoms: C_22  and  C_23
REMARK    9  A    between atoms: N_24  and  C_25
REMARK                            x       y       z     vdW  Elec       q    Type
REMARK                         _______ _______ _______ _____ _____    ______ ____
ROOT
ATOM      1  C   UNL     1      -1.919  11.661  19.667  0.00  0.00    +0.000 C 
ATOM      2  N   UNL     1      -3.070  12.160  19.370  0.00  0.00    +0.000 NA
ATOM      3  N   UNL     1      -3.391  13.180  20.257  0.00  0.00    +0.000 N 
ATOM      4  C   UNL     1      -2.459  13.294  21.429  0.00  0.00    +0.000 C 
ATOM      5  S   UNL     1      -1.051  12.160  21.067  0.00  0.00    +0.000 S 
ATOM      6  S   UNL     1      -3.321  12.634  22.999  0.00  0.00    +0.000 S 
ATOM      7  C   UNL     1      -3.254  14.223  23.692  0.00  0.00    +0.000 C 
ATOM      8  C   UNL     1      -2.278  14.969  23.170  0.00  0.00    +0.000 C 
ATOM      9  C   UNL     1      -1.173  15.182  24.202  0.00  0.00    +0.000 C 
ATOM     10  N   UNL     1      -1.894  14.635  21.834  0.00  0.00    +0.000 N 
ENDROOT
BRANCH   3  11
ATOM     11  C   UNL     1      -4.772  13.372  20.497  0.00  0.00    +0.000 A 
ATOM     12  C   UNL     1      -5.355  14.651  20.436  0.00  0.00    +0.000 A 
ATOM     13  C   UNL     1      -6.744  14.814  20.451  0.00  0.00    +0.000 A 
ATOM     14  C   UNL     1      -7.576  13.705  20.571  0.00  0.00    +0.000 A 
ATOM     15  C   UNL     1      -7.019  12.439  20.696  0.00  0.00    +0.000 A 
ATOM     16  C   UNL     1      -5.632  12.281  20.665  0.00  0.00    +0.000 A 
ENDBRANCH   3  11
BRANCH  10  17
ATOM     17  C   UNL     1      -1.907  15.631  20.790  0.00  0.00    +0.000 A 
ATOM     18  C   UNL     1      -0.962  15.626  19.746  0.00  0.00    +0.000 A 
ATOM     19  C   UNL     1      -0.816  16.721  18.880  0.00  0.00    +0.000 A 
ATOM     20  C   UNL     1      -1.659  17.823  18.985  0.00  0.00    +0.000 A 
ATOM     21  C   UNL     1      -2.683  17.797  19.923  0.00  0.00    +0.000 A 
ATOM     22  C   UNL     1      -2.812  16.705  20.800  0.00  0.00    +0.000 A 
ENDBRANCH  10  17
BRANCH   7  23
ATOM     23  C   UNL     1      -4.513  14.966  24.041  0.00  0.00    +0.000 C 
ATOM     24  C   UNL     1      -4.425  16.372  24.577  0.00  0.00    +0.000 C 
ATOM     25  O   UNL     1      -5.624  14.444  23.885  0.00  0.00    +0.000 OA
ENDBRANCH   7  23
BRANCH   1  26
ATOM     26  C   UNL     1      -1.111  10.660  18.872  0.00  0.00    +0.000 C 
ATOM     27  O   UNL     1      -0.278   9.903  19.336  0.00  0.00    +0.000 OA
BRANCH  26  28
ATOM     28  O   UNL     1      -1.406  10.834  17.561  0.00  0.00    +0.000 OA
BRANCH  28  30
ATOM     29  C   UNL     1      -2.722  10.354  15.639  0.00  0.00    +0.000 C 
ATOM     30  C   UNL     1      -2.143   9.786  16.921  0.00  0.00    +0.000 C 
ENDBRANCH  28  30
ENDBRANCH  26  28
ENDBRANCH   1  26
TORSDOF 6
ENDMDL
MODEL 8
REMARK VINA RESULT:      -5.4      2.440      4.742
REMARK  Name = 
REMARK  9 active torsions:
REMARK  status: ('A' for Active; 'I' for Inactive)
REMARK    1  A    between atoms: C_1  and  C_2
REMARK    2  A    between atoms: C_2  and  O_3
REMARK    3  A    between atoms: O_3  and  C_4
REMARK    4  A    between atoms: C_4  and  C_6
REMARK    5  A    between atoms: N_8  and  C_9
REMARK    6  A    between atoms: C_18  and  C_19
REMARK    7  A    between atoms: C_19  and  C_20
REMARK    8  A    between atoms: C_22  and  C_23
REMARK    9  A    between atoms: N_24  and  C_25
REMARK                            x       y       z     vdW  Elec       q    Type
REMARK                         _______ _______ _______ _____ _____    ______ ____
ROOT
ATOM      1  C   UNL     1       6.765  13.933  21.932  0.00  0.00    +0.000 C 
ATOM      2  N   UNL     1       7.848  13.234  21.936  0.00  0.00    +0.000 NA
ATOM      3  N   UNL     1       8.815  13.847  21.149  0.00  0.00    +0.000 N 
ATOM      4  C   UNL     1       8.309  15.008  20.343  0.00  0.00    +0.000 C 
ATOM      5  S   UNL     1       6.598  15.334  20.946  0.00  0.00    +0.000 S 
ATOM      6  S   UNL     1       8.169  14.500  18.508  0.00  0.00    +0.000 S 
ATOM      7  C   UNL     1       9.393  15.662  18.103  0.00  0.00    +0.000 C 
ATOM      8  C   UNL     1       9.477  16.650  18.998  0.00  0.00    +0.000 C 
ATOM      9  C   UNL     1       8.961  17.952  18.390  0.00  0.00    +0.000 C 
ATOM     10  N   UNL     1       9.062  16.318  20.325  0.00  0.00    +0.000 N 
ENDROOT
BRANCH   3  11
ATOM     11  C   UNL     1       9.747  12.978  20.535  0.00  0.00    +0.000 A 
ATOM     12  C   UNL     1       9.330  11.828  19.841  0.00  0.00    +0.000 A 
ATOM     13  C   UNL     1      10.223  11.097  19.050  0.00  0.00    +0.000 A 
ATOM     14  C   UNL     1      11.559  11.476  18.972  0.00  0.00    +0.000 A 
ATOM     15  C   UNL     1      12.005  12.572  19.700  0.00  0.00    +0.000 A 
ATOM     16  C   UNL     1      11.106  13.307  20.475  0.00  0.00    +0.000 A 
ENDBRANCH   3  11
BRANCH  10  17
ATOM     17  C   UNL     1       9.945  16.517  21.448  0.00  0.00    +0.000 A 
ATOM     18  C   UNL     1       9.465  16.574  22.770  0.00  0.00    +0.000 A 
ATOM     19  C   UNL     1      10.276  17.013  23.830  0.00  0.00    +0.000 A 
ATOM     20  C   UNL     1      11.611  17.337  23.610  0.00  0.00    +0.000 A 
ATOM     21  C   UNL     1      12.143  17.165  22.339  0.00  0.00    +0.000 A 
ATOM     22  C   UNL     1      11.321  16.744  21.279  0.00  0.00    +0.000 A 
ENDBRANCH  10  17
BRANCH   7  23
ATOM     23  C   UNL     1      10.700  15.229  17.501  0.00  0.00    +0.000 C 
ATOM     24  C   UNL     1      11.919  16.099  17.660  0.00  0.00    +0.000 C 
ATOM     25  O   UNL     1      10.793  14.160  16.885  0.00  0.00    +0.000 OA
ENDBRANCH   7  23
BRANCH   1  26
ATOM     26  C   UNL     1       5.530  13.733  22.781  0.00  0.00    +0.000 C 
ATOM     27  O   UNL     1       4.388  13.707  22.363  0.00  0.00    +0.000 OA
BRANCH  26  28
ATOM     28  O   UNL     1       5.920  13.694  24.078  0.00  0.00    +0.000 OA
BRANCH  28  30
ATOM     29  C   UNL     1       7.179  15.190  25.431  0.00  0.00    +0.000 C 
ATOM     30  C   UNL     1       5.819  14.915  24.820  0.00  0.00    +0.000 C 
ENDBRANCH  28  30
ENDBRANCH  26  28
ENDBRANCH   1  26
TORSDOF 6
ENDMDL
MODEL 9
REMARK VINA RESULT:      -5.3      8.003     10.581
REMARK  Name = 
REMARK  9 active torsions:
REMARK  status: ('A' for Active; 'I' for Inactive)
REMARK    1  A    between atoms: C_1  and  C_2
REMARK    2  A    between atoms: C_2  and  O_3
REMARK    3  A    between atoms: O_3  and  C_4
REMARK    4  A    between atoms: C_4  and  C_6
REMARK    5  A    between atoms: N_8  and  C_9
REMARK    6  A    between atoms: C_18  and  C_19
REMARK    7  A    between atoms: C_19  and  C_20
REMARK    8  A    between atoms: C_22  and  C_23
REMARK    9  A    between atoms: N_24  and  C_25
REMARK                            x       y       z     vdW  Elec       q    Type
REMARK                         _______ _______ _______ _____ _____    ______ ____
ROOT
ATOM      1  C   UNL     1      -2.586  11.920  18.061  0.00  0.00    +0.000 C 
ATOM      2  N   UNL     1      -1.324  12.184  18.052  0.00  0.00    +0.000 NA
ATOM      3  N   UNL     1      -0.891  12.490  19.336  0.00  0.00    +0.000 N 
ATOM      4  C   UNL     1      -1.998  12.651  20.338  0.00  0.00    +0.000 C 
ATOM      5  S   UNL     1      -3.535  12.093  19.487  0.00  0.00    +0.000 S 
ATOM      6  S   UNL     1      -2.225  14.501  20.750  0.00  0.00    +0.000 S 
ATOM      7  C   UNL     1      -1.742  14.186  22.386  0.00  0.00    +0.000 C 
ATOM      8  C   UNL     1      -1.947  12.916  22.745  0.00  0.00    +0.000 C 
ATOM      9  C   UNL     1      -3.090  12.836  23.756  0.00  0.00    +0.000 C 
ATOM     10  N   UNL     1      -1.925  11.962  21.681  0.00  0.00    +0.000 N 
ENDROOT
BRANCH   3  11
ATOM     11  C   UNL     1       0.202  13.383  19.418  0.00  0.00    +0.000 A 
ATOM     12  C   UNL     1       1.443  12.978  19.942  0.00  0.00    +0.000 A 
ATOM     13  C   UNL     1       2.579  13.784  19.819  0.00  0.00    +0.000 A 
ATOM     14  C   UNL     1       2.488  15.031  19.208  0.00  0.00    +0.000 A 
ATOM     15  C   UNL     1       1.258  15.478  18.740  0.00  0.00    +0.000 A 
ATOM     16  C   UNL     1       0.131  14.662  18.853  0.00  0.00    +0.000 A 
ENDBRANCH   3  11
BRANCH  10  17
ATOM     17  C   UNL     1      -1.037  10.826  21.725  0.00  0.00    +0.000 A 
ATOM     18  C   UNL     1      -0.448  10.390  22.927  0.00  0.00    +0.000 A 
ATOM     19  C   UNL     1       0.599   9.454  22.937  0.00  0.00    +0.000 A 
ATOM     20  C   UNL     1       1.038   8.872  21.752  0.00  0.00    +0.000 A 
ATOM     21  C   UNL     1       0.386   9.189  20.567  0.00  0.00    +0.000 A 
ATOM     22  C   UNL     1      -0.649  10.141  20.561  0.00  0.00    +0.000 A 
ENDBRANCH  10  17
BRANCH   7  23
ATOM     23  C   UNL     1      -0.511  14.825  22.965  0.00  0.00    +0.000 C 
ATOM     24  C   UNL     1      -0.648  16.018  23.875  0.00  0.00    +0.000 C 
ATOM     25  O   UNL     1       0.615  14.379  22.714  0.00  0.00    +0.000 OA
ENDBRANCH   7  23
BRANCH   1  26
ATOM     26  C   UNL     1      -3.427  11.376  16.929  0.00  0.00    +0.000 C 
ATOM     27  O   UNL     1      -4.627  11.182  16.975  0.00  0.00    +0.000 OA
BRANCH  26  28
ATOM     28  O   UNL     1      -2.593  11.053  15.910  0.00  0.00    +0.000 OA
BRANCH  28  30
ATOM     29  C   UNL     1      -3.359  10.046  13.896  0.00  0.00    +0.000 C 
ATOM     30  C   UNL     1      -2.803   9.782  15.282  0.00  0.00    +0.000 C 
ENDBRANCH  28  30
ENDBRANCH  26  28
ENDBRANCH   1  26
TORSDOF 6
ENDMDL
