MODEL 1
REMARK VINA RESULT:      -8.2      0.000      0.000
REMARK  Name = 
REMARK  5 active torsions:
REMARK  status: ('A' for Active; 'I' for Inactive)
REMARK    1  A    between atoms: C_1  and  S_2
REMARK    2  A    between atoms: S_2  and  C_4
REMARK    3  A    between atoms: C_7  and  C_8
REMARK    4  A    between atoms: C_10  and  C_11
REMARK    5  A    between atoms: C_17  and  C_18
REMARK                            x       y       z     vdW  Elec       q    Type
REMARK                         _______ _______ _______ _____ _____    ______ ____
ROOT
ATOM      1  C   UNL     1       2.220   8.024  18.527  0.00  0.00    +0.000 A 
ATOM      2  C   UNL     1       3.371   8.158  17.776  0.00  0.00    +0.000 A 
ATOM      3  C   UNL     1       3.943   6.860  17.565  0.00  0.00    +0.000 A 
ATOM      4  C   UNL     1       3.125   5.945  18.227  0.00  0.00    +0.000 A 
ATOM      5  N   UNL     1       2.096   6.681  18.783  0.00  0.00    +0.000 N 
ATOM      6  H   UNL     1       1.342   6.275  19.318  0.00  0.00    +0.000 HD
ENDROOT
BRANCH   4   7
ATOM      7  C   UNL     1       3.181   4.483  18.426  0.00  0.00    +0.000 A 
ATOM      8  C   UNL     1       4.047   3.909  19.370  0.00  0.00    +0.000 A 
ATOM      9  C   UNL     1       4.162   2.522  19.489  0.00  0.00    +0.000 A 
ATOM     10  C   UNL     1       3.363   1.700  18.706  0.00  0.00    +0.000 A 
ATOM     11  F   UNL     1       3.470   0.370  18.821  0.00  0.00    +0.000 F 
ATOM     12  C   UNL     1       2.457   2.240  17.804  0.00  0.00    +0.000 A 
ATOM     13  C   UNL     1       2.374   3.627  17.656  0.00  0.00    +0.000 A 
ENDBRANCH   4   7
BRANCH   1  17
ATOM     14  C   UNL     1      -0.651  10.902  19.914  0.00  0.00    +0.000 A 
ATOM     15  C   UNL     1      -0.371  10.776  18.549  0.00  0.00    +0.000 A 
ATOM     16  C   UNL     1       0.565   9.838  18.100  0.00  0.00    +0.000 A 
ATOM     17  C   UNL     1       1.250   9.015  19.005  0.00  0.00    +0.000 A 
ATOM     18  C   UNL     1       0.975   9.159  20.371  0.00  0.00    +0.000 A 
ATOM     19  C   UNL     1       0.036  10.092  20.821  0.00  0.00    +0.000 A 
BRANCH  14  21
ATOM     20  C   UNL     1      -1.294  12.216  22.226  0.00  0.00    +0.000 C 
ATOM     21  S   UNL     1      -1.832  12.143  20.500  0.00  0.00    +0.000 S 
ATOM     22  O   UNL     1      -1.439  13.508  19.830  0.00  0.00    +0.000 OA
ENDBRANCH  14  21
ENDBRANCH   1  17
BRANCH   3  23
ATOM     23  C   UNL     1       5.170   6.548  16.831  0.00  0.00    +0.000 A 
ATOM     24  C   UNL     1       6.407   6.977  17.319  0.00  0.00    +0.000 A 
ATOM     25  C   UNL     1       7.556   6.592  16.648  0.00  0.00    +0.000 A 
ATOM     26  N   UNL     1       7.558   5.812  15.547  0.00  0.00    +0.000 NA
ATOM     27  C   UNL     1       6.354   5.434  15.074  0.00  0.00    +0.000 A 
ATOM     28  C   UNL     1       5.151   5.801  15.651  0.00  0.00    +0.000 A 
ENDBRANCH   3  23
TORSDOF 4
ENDMDL
MODEL 2
REMARK VINA RESULT:      -8.1      1.561      2.047
REMARK  Name = 
REMARK  5 active torsions:
REMARK  status: ('A' for Active; 'I' for Inactive)
REMARK    1  A    between atoms: C_1  and  S_2
REMARK    2  A    between atoms: S_2  and  C_4
REMARK    3  A    between atoms: C_7  and  C_8
REMARK    4  A    between atoms: C_10  and  C_11
REMARK    5  A    between atoms: C_17  and  C_18
REMARK                            x       y       z     vdW  Elec       q    Type
REMARK                         _______ _______ _______ _____ _____    ______ ____
ROOT
ATOM      1  C   UNL     1       2.492   8.492  18.009  0.00  0.00    +0.000 A 
ATOM      2  C   UNL     1       3.737   8.197  17.490  0.00  0.00    +0.000 A 
ATOM      3  C   UNL     1       3.928   6.776  17.518  0.00  0.00    +0.000 A 
ATOM      4  C   UNL     1       2.781   6.225  18.089  0.00  0.00    +0.000 A 
ATOM      5  N   UNL     1       1.939   7.286  18.361  0.00  0.00    +0.000 N 
ATOM      6  H   UNL     1       1.023   7.184  18.773  0.00  0.00    +0.000 HD
ENDROOT
BRANCH   4   7
ATOM      7  C   UNL     1       2.372   4.849  18.432  0.00  0.00    +0.000 A 
ATOM      8  C   UNL     1       2.621   3.776  17.562  0.00  0.00    +0.000 A 
ATOM      9  C   UNL     1       2.151   2.492  17.851  0.00  0.00    +0.000 A 
ATOM     10  C   UNL     1       1.482   2.262  19.045  0.00  0.00    +0.000 A 
ATOM     11  F   UNL     1       1.033   1.032  19.324  0.00  0.00    +0.000 F 
ATOM     12  C   UNL     1       1.271   3.292  19.951  0.00  0.00    +0.000 A 
ATOM     13  C   UNL     1       1.704   4.584  19.641  0.00  0.00    +0.000 A 
ENDBRANCH   4   7
BRANCH   1  17
ATOM     14  C   UNL     1       0.447  12.226  18.584  0.00  0.00    +0.000 A 
ATOM     15  C   UNL     1      -0.243  11.013  18.681  0.00  0.00    +0.000 A 
ATOM     16  C   UNL     1       0.425   9.798  18.493  0.00  0.00    +0.000 A 
ATOM     17  C   UNL     1       1.794   9.769  18.191  0.00  0.00    +0.000 A 
ATOM     18  C   UNL     1       2.474  10.989  18.081  0.00  0.00    +0.000 A 
ATOM     19  C   UNL     1       1.809  12.203  18.274  0.00  0.00    +0.000 A 
BRANCH  14  21
ATOM     20  C   UNL     1      -1.586  13.286  20.076  0.00  0.00    +0.000 C 
ATOM     21  S   UNL     1      -0.424  13.799  18.788  0.00  0.00    +0.000 S 
ATOM     22  O   UNL     1       0.587  14.806  19.445  0.00  0.00    +0.000 OA
ENDBRANCH  14  21
ENDBRANCH   1  17
BRANCH   3  23
ATOM     23  C   UNL     1       5.110   6.037  17.072  0.00  0.00    +0.000 A 
ATOM     24  C   UNL     1       5.326   5.818  15.708  0.00  0.00    +0.000 A 
ATOM     25  C   UNL     1       6.496   5.191  15.314  0.00  0.00    +0.000 A 
ATOM     26  N   UNL     1       7.457   4.785  16.169  0.00  0.00    +0.000 NA
ATOM     27  C   UNL     1       7.217   4.979  17.481  0.00  0.00    +0.000 A 
ATOM     28  C   UNL     1       6.062   5.558  17.975  0.00  0.00    +0.000 A 
ENDBRANCH   3  23
TORSDOF 4
ENDMDL
MODEL 3
REMARK VINA RESULT:      -8.0      1.535      1.895
REMARK  Name = 
REMARK  5 active torsions:
REMARK  status: ('A' for Active; 'I' for Inactive)
REMARK    1  A    between atoms: C_1  and  S_2
REMARK    2  A    between atoms: S_2  and  C_4
REMARK    3  A    between atoms: C_7  and  C_8
REMARK    4  A    between atoms: C_10  and  C_11
REMARK    5  A    between atoms: C_17  and  C_18
REMARK                            x       y       z     vdW  Elec       q    Type
REMARK                         _______ _______ _______ _____ _____    ______ ____
ROOT
ATOM      1  C   UNL     1       2.485   8.475  18.021  0.00  0.00    +0.000 A 
ATOM      2  C   UNL     1       3.729   8.179  17.499  0.00  0.00    +0.000 A 
ATOM      3  C   UNL     1       3.915   6.758  17.520  0.00  0.00    +0.000 A 
ATOM      4  C   UNL     1       2.767   6.206  18.089  0.00  0.00    +0.000 A 
ATOM      5  N   UNL     1       1.929   7.269  18.367  0.00  0.00    +0.000 N 
ATOM      6  H   UNL     1       1.013   7.167  18.780  0.00  0.00    +0.000 HD
ENDROOT
BRANCH   4   7
ATOM      7  C   UNL     1       2.355   4.830  18.425  0.00  0.00    +0.000 A 
ATOM      8  C   UNL     1       1.769   4.527  19.664  0.00  0.00    +0.000 A 
ATOM      9  C   UNL     1       1.464   3.208  20.012  0.00  0.00    +0.000 A 
ATOM     10  C   UNL     1       1.687   2.191  19.094  0.00  0.00    +0.000 A 
ATOM     11  F   UNL     1       1.394   0.927  19.425  0.00  0.00    +0.000 F 
ATOM     12  C   UNL     1       2.212   2.467  17.840  0.00  0.00    +0.000 A 
ATOM     13  C   UNL     1       2.556   3.782  17.510  0.00  0.00    +0.000 A 
ENDBRANCH   4   7
BRANCH   1  17
ATOM     14  C   UNL     1       0.450  12.223  18.535  0.00  0.00    +0.000 A 
ATOM     15  C   UNL     1       1.818  12.189  18.243  0.00  0.00    +0.000 A 
ATOM     16  C   UNL     1       2.479  10.967  18.077  0.00  0.00    +0.000 A 
ATOM     17  C   UNL     1       1.790   9.753  18.210  0.00  0.00    +0.000 A 
ATOM     18  C   UNL     1       0.424   9.796  18.518  0.00  0.00    +0.000 A 
ATOM     19  C   UNL     1      -0.239  11.016  18.678  0.00  0.00    +0.000 A 
BRANCH  14  21
ATOM     20  C   UNL     1      -1.603  13.252  20.022  0.00  0.00    +0.000 C 
ATOM     21  S   UNL     1      -0.398  13.802  18.789  0.00  0.00    +0.000 S 
ATOM     22  O   UNL     1       0.614  14.757  19.520  0.00  0.00    +0.000 OA
ENDBRANCH  14  21
ENDBRANCH   1  17
BRANCH   3  23
ATOM     23  C   UNL     1       5.095   6.018  17.068  0.00  0.00    +0.000 A 
ATOM     24  C   UNL     1       5.283   5.762  15.707  0.00  0.00    +0.000 A 
ATOM     25  C   UNL     1       6.451   5.136  15.305  0.00  0.00    +0.000 A 
ATOM     26  N   UNL     1       7.434   4.763  16.150  0.00  0.00    +0.000 NA
ATOM     27  C   UNL     1       7.221   4.991  17.461  0.00  0.00    +0.000 A 
ATOM     28  C   UNL     1       6.070   5.573  17.964  0.00  0.00    +0.000 A 
ENDBRANCH   3  23
TORSDOF 4
ENDMDL
MODEL 4
REMARK VINA RESULT:      -8.0      1.490      1.703
REMARK  Name = 
REMARK  5 active torsions:
REMARK  status: ('A' for Active; 'I' for Inactive)
REMARK    1  A    between atoms: C_1  and  S_2
REMARK    2  A    between atoms: S_2  and  C_4
REMARK    3  A    between atoms: C_7  and  C_8
REMARK    4  A    between atoms: C_10  and  C_11
REMARK    5  A    between atoms: C_17  and  C_18
REMARK                            x       y       z     vdW  Elec       q    Type
REMARK                         _______ _______ _______ _____ _____    ______ ____
ROOT
ATOM      1  C   UNL     1       2.509   8.462  17.977  0.00  0.00    +0.000 A 
ATOM      2  C   UNL     1       3.759   8.193  17.455  0.00  0.00    +0.000 A 
ATOM      3  C   UNL     1       3.976   6.776  17.475  0.00  0.00    +0.000 A 
ATOM      4  C   UNL     1       2.840   6.200  18.044  0.00  0.00    +0.000 A 
ATOM      5  N   UNL     1       1.979   7.244  18.322  0.00  0.00    +0.000 N 
ATOM      6  H   UNL     1       1.065   7.122  18.735  0.00  0.00    +0.000 HD
ENDROOT
BRANCH   4   7
ATOM      7  C   UNL     1       2.457   4.814  18.379  0.00  0.00    +0.000 A 
ATOM      8  C   UNL     1       1.883   4.497  19.620  0.00  0.00    +0.000 A 
ATOM      9  C   UNL     1       1.607   3.171  19.966  0.00  0.00    +0.000 A 
ATOM     10  C   UNL     1       1.847   2.161  19.045  0.00  0.00    +0.000 A 
ATOM     11  F   UNL     1       1.581   0.890  19.374  0.00  0.00    +0.000 F 
ATOM     12  C   UNL     1       2.361   2.450  17.789  0.00  0.00    +0.000 A 
ATOM     13  C   UNL     1       2.676   3.772  17.460  0.00  0.00    +0.000 A 
ENDBRANCH   4   7
BRANCH   1  17
ATOM     14  C   UNL     1       0.394  12.152  18.576  0.00  0.00    +0.000 A 
ATOM     15  C   UNL     1      -0.284  10.929  18.609  0.00  0.00    +0.000 A 
ATOM     16  C   UNL     1       0.407   9.728  18.414  0.00  0.00    +0.000 A 
ATOM     17  C   UNL     1       1.787   9.725  18.168  0.00  0.00    +0.000 A 
ATOM     18  C   UNL     1       2.456  10.955  18.120  0.00  0.00    +0.000 A 
ATOM     19  C   UNL     1       1.767  12.155  18.321  0.00  0.00    +0.000 A 
BRANCH  14  21
ATOM     20  C   UNL     1      -1.372  13.298  20.323  0.00  0.00    +0.000 C 
ATOM     21  S   UNL     1      -0.505  13.709  18.789  0.00  0.00    +0.000 S 
ATOM     22  O   UNL     1       0.557  14.813  19.134  0.00  0.00    +0.000 OA
ENDBRANCH  14  21
ENDBRANCH   1  17
BRANCH   3  23
ATOM     23  C   UNL     1       5.172   6.062  17.024  0.00  0.00    +0.000 A 
ATOM     24  C   UNL     1       6.141   5.663  17.949  0.00  0.00    +0.000 A 
ATOM     25  C   UNL     1       7.217   4.915  17.502  0.00  0.00    +0.000 A 
ATOM     26  N   UNL     1       7.387   4.532  16.219  0.00  0.00    +0.000 NA
ATOM     27  C   UNL     1       6.458   4.952  15.338  0.00  0.00    +0.000 A 
ATOM     28  C   UNL     1       5.370   5.736  15.680  0.00  0.00    +0.000 A 
ENDBRANCH   3  23
TORSDOF 4
ENDMDL
MODEL 5
REMARK VINA RESULT:      -7.9      1.463      1.824
REMARK  Name = 
REMARK  5 active torsions:
REMARK  status: ('A' for Active; 'I' for Inactive)
REMARK    1  A    between atoms: C_1  and  S_2
REMARK    2  A    between atoms: S_2  and  C_4
REMARK    3  A    between atoms: C_7  and  C_8
REMARK    4  A    between atoms: C_10  and  C_11
REMARK    5  A    between atoms: C_17  and  C_18
REMARK                            x       y       z     vdW  Elec       q    Type
REMARK                         _______ _______ _______ _____ _____    ______ ____
ROOT
ATOM      1  C   UNL     1       2.460   8.608  18.051  0.00  0.00    +0.000 A 
ATOM      2  C   UNL     1       3.676   8.357  17.446  0.00  0.00    +0.000 A 
ATOM      3  C   UNL     1       3.937   6.948  17.494  0.00  0.00    +0.000 A 
ATOM      4  C   UNL     1       2.864   6.359  18.163  0.00  0.00    +0.000 A 
ATOM      5  N   UNL     1       1.994   7.387  18.472  0.00  0.00    +0.000 N 
ATOM      6  H   UNL     1       1.117   7.254  18.954  0.00  0.00    +0.000 HD
ENDROOT
BRANCH   4   7
ATOM      7  C   UNL     1       2.549   4.976  18.569  0.00  0.00    +0.000 A 
ATOM      8  C   UNL     1       2.205   3.999  17.621  0.00  0.00    +0.000 A 
ATOM      9  C   UNL     1       1.819   2.716  18.019  0.00  0.00    +0.000 A 
ATOM     10  C   UNL     1       1.836   2.385  19.367  0.00  0.00    +0.000 A 
ATOM     11  F   UNL     1       1.469   1.155  19.749  0.00  0.00    +0.000 F 
ATOM     12  C   UNL     1       2.226   3.312  20.322  0.00  0.00    +0.000 A 
ATOM     13  C   UNL     1       2.570   4.608  19.926  0.00  0.00    +0.000 A 
ENDBRANCH   4   7
BRANCH   1  17
ATOM     14  C   UNL     1       0.282  12.268  18.607  0.00  0.00    +0.000 A 
ATOM     15  C   UNL     1       1.666  12.287  18.402  0.00  0.00    +0.000 A 
ATOM     16  C   UNL     1       2.374  11.093  18.222  0.00  0.00    +0.000 A 
ATOM     17  C   UNL     1       1.716   9.855  18.255  0.00  0.00    +0.000 A 
ATOM     18  C   UNL     1       0.332   9.845  18.476  0.00  0.00    +0.000 A 
ATOM     19  C   UNL     1      -0.377  11.037  18.651  0.00  0.00    +0.000 A 
BRANCH  14  21
ATOM     20  C   UNL     1      -1.819  13.193  20.094  0.00  0.00    +0.000 C 
ATOM     21  S   UNL     1      -0.628  13.809  18.880  0.00  0.00    +0.000 S 
ATOM     22  O   UNL     1       0.340  14.791  19.633  0.00  0.00    +0.000 OA
ENDBRANCH  14  21
ENDBRANCH   1  17
BRANCH   3  23
ATOM     23  C   UNL     1       5.117   6.253  16.978  0.00  0.00    +0.000 A 
ATOM     24  C   UNL     1       6.143   5.873  17.848  0.00  0.00    +0.000 A 
ATOM     25  C   UNL     1       7.205   5.142  17.343  0.00  0.00    +0.000 A 
ATOM     26  N   UNL     1       7.310   4.759  16.053  0.00  0.00    +0.000 NA
ATOM     27  C   UNL     1       6.326   5.161  15.224  0.00  0.00    +0.000 A 
ATOM     28  C   UNL     1       5.246   5.928  15.626  0.00  0.00    +0.000 A 
ENDBRANCH   3  23
TORSDOF 4
ENDMDL
MODEL 6
REMARK VINA RESULT:      -7.9      0.106      1.316
REMARK  Name = 
REMARK  5 active torsions:
REMARK  status: ('A' for Active; 'I' for Inactive)
REMARK    1  A    between atoms: C_1  and  S_2
REMARK    2  A    between atoms: S_2  and  C_4
REMARK    3  A    between atoms: C_7  and  C_8
REMARK    4  A    between atoms: C_10  and  C_11
REMARK    5  A    between atoms: C_17  and  C_18
REMARK                            x       y       z     vdW  Elec       q    Type
REMARK                         _______ _______ _______ _____ _____    ______ ____
ROOT
ATOM      1  C   UNL     1       2.205   8.054  18.504  0.00  0.00    +0.000 A 
ATOM      2  C   UNL     1       3.371   8.199  17.778  0.00  0.00    +0.000 A 
ATOM      3  C   UNL     1       3.941   6.903  17.550  0.00  0.00    +0.000 A 
ATOM      4  C   UNL     1       3.107   5.977  18.176  0.00  0.00    +0.000 A 
ATOM      5  N   UNL     1       2.071   6.706  18.728  0.00  0.00    +0.000 N 
ATOM      6  H   UNL     1       1.305   6.292  19.241  0.00  0.00    +0.000 HD
ENDROOT
BRANCH   4   7
ATOM      7  C   UNL     1       3.154   4.512  18.345  0.00  0.00    +0.000 A 
ATOM      8  C   UNL     1       2.329   3.664  17.589  0.00  0.00    +0.000 A 
ATOM      9  C   UNL     1       2.313   2.286  17.818  0.00  0.00    +0.000 A 
ATOM     10  C   UNL     1       3.169   1.740  18.764  0.00  0.00    +0.000 A 
ATOM     11  F   UNL     1       3.156   0.419  18.983  0.00  0.00    +0.000 F 
ATOM     12  C   UNL     1       4.036   2.546  19.487  0.00  0.00    +0.000 A 
ATOM     13  C   UNL     1       4.021   3.930  19.287  0.00  0.00    +0.000 A 
ENDBRANCH   4   7
BRANCH   1  17
ATOM     14  C   UNL     1      -0.618  10.964  19.921  0.00  0.00    +0.000 A 
ATOM     15  C   UNL     1       0.064  10.137  20.820  0.00  0.00    +0.000 A 
ATOM     16  C   UNL     1       0.983   9.189  20.356  0.00  0.00    +0.000 A 
ATOM     17  C   UNL     1       1.230   9.039  18.984  0.00  0.00    +0.000 A 
ATOM     18  C   UNL     1       0.531   9.861  18.090  0.00  0.00    +0.000 A 
ATOM     19  C   UNL     1      -0.382  10.812  18.553  0.00  0.00    +0.000 A 
BRANCH  14  21
ATOM     20  C   UNL     1      -1.344  12.188  22.258  0.00  0.00    +0.000 C 
ATOM     21  S   UNL     1      -1.836  12.164  20.517  0.00  0.00    +0.000 S 
ATOM     22  O   UNL     1      -1.450  13.558  19.904  0.00  0.00    +0.000 OA
ENDBRANCH  14  21
ENDBRANCH   1  17
BRANCH   3  23
ATOM     23  C   UNL     1       5.181   6.601  16.833  0.00  0.00    +0.000 A 
ATOM     24  C   UNL     1       6.409   7.031  17.344  0.00  0.00    +0.000 A 
ATOM     25  C   UNL     1       7.569   6.655  16.688  0.00  0.00    +0.000 A 
ATOM     26  N   UNL     1       7.592   5.884  15.581  0.00  0.00    +0.000 NA
ATOM     27  C   UNL     1       6.396   5.505  15.087  0.00  0.00    +0.000 A 
ATOM     28  C   UNL     1       5.183   5.863  15.647  0.00  0.00    +0.000 A 
ENDBRANCH   3  23
TORSDOF 4
ENDMDL
MODEL 7
REMARK VINA RESULT:      -7.9      0.721      1.163
REMARK  Name = 
REMARK  5 active torsions:
REMARK  status: ('A' for Active; 'I' for Inactive)
REMARK    1  A    between atoms: C_1  and  S_2
REMARK    2  A    between atoms: S_2  and  C_4
REMARK    3  A    between atoms: C_7  and  C_8
REMARK    4  A    between atoms: C_10  and  C_11
REMARK    5  A    between atoms: C_17  and  C_18
REMARK                            x       y       z     vdW  Elec       q    Type
REMARK                         _______ _______ _______ _____ _____    ______ ____
ROOT
ATOM      1  C   UNL     1       2.176   8.011  18.499  0.00  0.00    +0.000 A 
ATOM      2  C   UNL     1       3.372   8.118  17.817  0.00  0.00    +0.000 A 
ATOM      3  C   UNL     1       3.933   6.808  17.652  0.00  0.00    +0.000 A 
ATOM      4  C   UNL     1       3.061   5.914  18.273  0.00  0.00    +0.000 A 
ATOM      5  N   UNL     1       2.014   6.673  18.759  0.00  0.00    +0.000 N 
ATOM      6  H   UNL     1       1.223   6.286  19.253  0.00  0.00    +0.000 HD
ENDROOT
BRANCH   4   7
ATOM      7  C   UNL     1       3.080   4.454  18.489  0.00  0.00    +0.000 A 
ATOM      8  C   UNL     1       3.924   3.870  19.447  0.00  0.00    +0.000 A 
ATOM      9  C   UNL     1       4.003   2.481  19.583  0.00  0.00    +0.000 A 
ATOM     10  C   UNL     1       3.191   1.670  18.802  0.00  0.00    +0.000 A 
ATOM     11  F   UNL     1       3.265   0.340  18.933  0.00  0.00    +0.000 F 
ATOM     12  C   UNL     1       2.306   2.221  17.886  0.00  0.00    +0.000 A 
ATOM     13  C   UNL     1       2.258   3.609  17.721  0.00  0.00    +0.000 A 
ENDBRANCH   4   7
BRANCH   1  17
ATOM     14  C   UNL     1      -0.721  10.950  19.690  0.00  0.00    +0.000 A 
ATOM     15  C   UNL     1      -0.509  10.666  18.337  0.00  0.00    +0.000 A 
ATOM     16  C   UNL     1       0.436   9.709  17.951  0.00  0.00    +0.000 A 
ATOM     17  C   UNL     1       1.197   9.024  18.908  0.00  0.00    +0.000 A 
ATOM     18  C   UNL     1       0.989   9.325  20.261  0.00  0.00    +0.000 A 
ATOM     19  C   UNL     1       0.042  10.277  20.648  0.00  0.00    +0.000 A 
BRANCH  14  21
ATOM     20  C   UNL     1      -0.951  13.675  19.727  0.00  0.00    +0.000 C 
ATOM     21  S   UNL     1      -1.915  12.216  20.189  0.00  0.00    +0.000 S 
ATOM     22  O   UNL     1      -3.128  12.124  19.196  0.00  0.00    +0.000 OA
ENDBRANCH  14  21
ENDBRANCH   1  17
BRANCH   3  23
ATOM     23  C   UNL     1       5.196   6.468  16.996  0.00  0.00    +0.000 A 
ATOM     24  C   UNL     1       5.195   5.674  15.845  0.00  0.00    +0.000 A 
ATOM     25  C   UNL     1       6.398   5.441  15.199  0.00  0.00    +0.000 A 
ATOM     26  N   UNL     1       7.581   5.946  15.606  0.00  0.00    +0.000 NA
ATOM     27  C   UNL     1       7.565   6.683  16.734  0.00  0.00    +0.000 A 
ATOM     28  C   UNL     1       6.422   6.937  17.472  0.00  0.00    +0.000 A 
ENDBRANCH   3  23
TORSDOF 4
ENDMDL
MODEL 8
REMARK VINA RESULT:      -7.8      0.812      1.287
REMARK  Name = 
REMARK  5 active torsions:
REMARK  status: ('A' for Active; 'I' for Inactive)
REMARK    1  A    between atoms: C_1  and  S_2
REMARK    2  A    between atoms: S_2  and  C_4
REMARK    3  A    between atoms: C_7  and  C_8
REMARK    4  A    between atoms: C_10  and  C_11
REMARK    5  A    between atoms: C_17  and  C_18
REMARK                            x       y       z     vdW  Elec       q    Type
REMARK                         _______ _______ _______ _____ _____    ______ ____
ROOT
ATOM      1  C   UNL     1       2.112   8.194  18.475  0.00  0.00    +0.000 A 
ATOM      2  C   UNL     1       3.297   8.296  17.773  0.00  0.00    +0.000 A 
ATOM      3  C   UNL     1       3.834   6.982  17.573  0.00  0.00    +0.000 A 
ATOM      4  C   UNL     1       2.960   6.089  18.193  0.00  0.00    +0.000 A 
ATOM      5  N   UNL     1       1.935   6.854  18.714  0.00  0.00    +0.000 N 
ATOM      6  H   UNL     1       1.147   6.469  19.215  0.00  0.00    +0.000 HD
ENDROOT
BRANCH   4   7
ATOM      7  C   UNL     1       2.961   4.625  18.382  0.00  0.00    +0.000 A 
ATOM      8  C   UNL     1       1.935   3.822  17.859  0.00  0.00    +0.000 A 
ATOM      9  C   UNL     1       1.894   2.450  18.118  0.00  0.00    +0.000 A 
ATOM     10  C   UNL     1       2.915   1.862  18.852  0.00  0.00    +0.000 A 
ATOM     11  F   UNL     1       2.877   0.546  19.099  0.00  0.00    +0.000 F 
ATOM     12  C   UNL     1       3.972   2.620  19.333  0.00  0.00    +0.000 A 
ATOM     13  C   UNL     1       3.990   4.000  19.109  0.00  0.00    +0.000 A 
ENDBRANCH   4   7
BRANCH   1  17
ATOM     14  C   UNL     1      -0.717  11.153  19.777  0.00  0.00    +0.000 A 
ATOM     15  C   UNL     1      -0.544  10.882  18.415  0.00  0.00    +0.000 A 
ATOM     16  C   UNL     1       0.379   9.918  17.994  0.00  0.00    +0.000 A 
ATOM     17  C   UNL     1       1.157   9.214  18.922  0.00  0.00    +0.000 A 
ATOM     18  C   UNL     1       0.989   9.502  20.283  0.00  0.00    +0.000 A 
ATOM     19  C   UNL     1       0.063  10.460  20.706  0.00  0.00    +0.000 A 
BRANCH  14  21
ATOM     20  C   UNL     1      -3.260  12.000  19.232  0.00  0.00    +0.000 C 
ATOM     21  S   UNL     1      -1.881  12.427  20.322  0.00  0.00    +0.000 S 
ATOM     22  O   UNL     1      -2.314  12.062  21.787  0.00  0.00    +0.000 OA
ENDBRANCH  14  21
ENDBRANCH   1  17
BRANCH   3  23
ATOM     23  C   UNL     1       5.079   6.634  16.886  0.00  0.00    +0.000 A 
ATOM     24  C   UNL     1       6.307   7.044  17.413  0.00  0.00    +0.000 A 
ATOM     25  C   UNL     1       7.470   6.627  16.787  0.00  0.00    +0.000 A 
ATOM     26  N   UNL     1       7.494   5.833  15.696  0.00  0.00    +0.000 NA
ATOM     27  C   UNL     1       6.299   5.474  15.186  0.00  0.00    +0.000 A 
ATOM     28  C   UNL     1       5.085   5.873  15.716  0.00  0.00    +0.000 A 
ENDBRANCH   3  23
TORSDOF 4
ENDMDL
MODEL 9
REMARK VINA RESULT:      -7.8      2.661      4.722
REMARK  Name = 
REMARK  5 active torsions:
REMARK  status: ('A' for Active; 'I' for Inactive)
REMARK    1  A    between atoms: C_1  and  S_2
REMARK    2  A    between atoms: S_2  and  C_4
REMARK    3  A    between atoms: C_7  and  C_8
REMARK    4  A    between atoms: C_10  and  C_11
REMARK    5  A    between atoms: C_17  and  C_18
REMARK                            x       y       z     vdW  Elec       q    Type
REMARK                         _______ _______ _______ _____ _____    ______ ____
ROOT
ATOM      1  C   UNL     1       1.004   8.155  20.802  0.00  0.00    +0.000 A 
ATOM      2  C   UNL     1       0.715   6.837  21.097  0.00  0.00    +0.000 A 
ATOM      3  C   UNL     1       1.644   5.992  20.405  0.00  0.00    +0.000 A 
ATOM      4  C   UNL     1       2.481   6.828  19.667  0.00  0.00    +0.000 A 
ATOM      5  N   UNL     1       2.072   8.119  19.940  0.00  0.00    +0.000 N 
ATOM      6  H   UNL     1       2.508   8.941  19.547  0.00  0.00    +0.000 HD
ENDROOT
BRANCH   4   7
ATOM      7  C   UNL     1       3.596   6.587  18.731  0.00  0.00    +0.000 A 
ATOM      8  C   UNL     1       3.634   7.201  17.469  0.00  0.00    +0.000 A 
ATOM      9  C   UNL     1       4.645   6.899  16.553  0.00  0.00    +0.000 A 
ATOM     10  C   UNL     1       5.660   6.026  16.918  0.00  0.00    +0.000 A 
ATOM     11  F   UNL     1       6.630   5.737  16.042  0.00  0.00    +0.000 F 
ATOM     12  C   UNL     1       5.680   5.447  18.179  0.00  0.00    +0.000 A 
ATOM     13  C   UNL     1       4.646   5.718  19.080  0.00  0.00    +0.000 A 
ENDBRANCH   4   7
BRANCH   1  17
ATOM     14  C   UNL     1      -0.767  11.831  22.145  0.00  0.00    +0.000 A 
ATOM     15  C   UNL     1      -0.882  10.663  22.908  0.00  0.00    +0.000 A 
ATOM     16  C   UNL     1      -0.305   9.467  22.468  0.00  0.00    +0.000 A 
ATOM     17  C   UNL     1       0.388   9.408  21.252  0.00  0.00    +0.000 A 
ATOM     18  C   UNL     1       0.486  10.578  20.486  0.00  0.00    +0.000 A 
ATOM     19  C   UNL     1      -0.086  11.775  20.927  0.00  0.00    +0.000 A 
BRANCH  14  21
ATOM     20  C   UNL     1      -3.026  12.653  23.450  0.00  0.00    +0.000 C 
ATOM     21  S   UNL     1      -1.548  13.369  22.693  0.00  0.00    +0.000 S 
ATOM     22  O   UNL     1      -0.662  13.948  23.855  0.00  0.00    +0.000 OA
ENDBRANCH  14  21
ENDBRANCH   1  17
BRANCH   3  23
ATOM     23  C   UNL     1       1.690   4.529  20.430  0.00  0.00    +0.000 A 
ATOM     24  C   UNL     1       1.288   3.796  19.309  0.00  0.00    +0.000 A 
ATOM     25  C   UNL     1       1.424   2.418  19.333  0.00  0.00    +0.000 A 
ATOM     26  N   UNL     1       1.936   1.731  20.375  0.00  0.00    +0.000 NA
ATOM     27  C   UNL     1       2.289   2.452  21.458  0.00  0.00    +0.000 A 
ATOM     28  C   UNL     1       2.153   3.826  21.545  0.00  0.00    +0.000 A 
ENDBRANCH   3  23
TORSDOF 4
ENDMDL
