MODEL 1
REMARK VINA RESULT:      -8.3      0.000      0.000
REMARK  Name = 
REMARK  6 active torsions:
REMARK  status: ('A' for Active; 'I' for Inactive)
REMARK    1  A    between atoms: C_2  and  C_3
REMARK    2  A    between atoms: C_3  and  C_4
REMARK    3  A    between atoms: C_11  and  C_12
REMARK    4  A    between atoms: C_12  and  C_13
REMARK    5  A    between atoms: C_13  and  C_14
REMARK    6  A    between atoms: C_17  and  C_18
REMARK                            x       y       z     vdW  Elec       q    Type
REMARK                         _______ _______ _______ _____ _____    ______ ____
ROOT
ATOM      1  C   UNL     1       6.165   5.631  18.267  0.00  0.00    +0.000 C 
ENDROOT
BRANCH   1   8
ATOM      2  O   UNL     1       2.721   6.856  19.682  0.00  0.00    +0.000 OA
ATOM      3  C   UNL     1       2.529   5.722  19.231  0.00  0.00    +0.000 C 
ATOM      4  N   UNL     1       3.139   5.296  18.055  0.00  0.00    +0.000 N 
ATOM      5  C   UNL     1       2.948   3.994  17.418  0.00  0.00    +0.000 C 
ATOM      6  C   UNL     1       4.275   3.380  16.962  0.00  0.00    +0.000 C 
ATOM      7  C   UNL     1       5.172   4.374  16.221  0.00  0.00    +0.000 C 
ATOM      8  C   UNL     1       5.331   5.709  16.967  0.00  0.00    +0.000 C 
ATOM      9  C   UNL     1       3.927   6.259  17.283  0.00  0.00    +0.000 C 
BRANCH   3  10
ATOM     10  C   UNL     1       1.595   4.745  19.944  0.00  0.00    +0.000 C 
BRANCH  10  11
ATOM     11  C   UNL     1       2.248   4.022  21.097  0.00  0.00    +0.000 C 
ATOM     12  C   UNL     1       1.624   2.777  21.676  0.00  0.00    +0.000 C 
ATOM     13  C   UNL     1       2.898   2.676  20.887  0.00  0.00    +0.000 C 
ENDBRANCH  10  11
ENDBRANCH   3  10
ENDBRANCH   1   8
BRANCH   1  14
ATOM     14  C   UNL     1       7.610   6.128  18.185  0.00  0.00    +0.000 C 
BRANCH  14  15
ATOM     15  C   UNL     1       7.796   7.602  18.192  0.00  0.00    +0.000 A 
ATOM     16  N   UNL     1       7.350   8.371  17.188  0.00  0.00    +0.000 NA
ATOM     17  O   UNL     1       7.981   9.599  17.422  0.00  0.00    +0.000 OA
ATOM     18  C   UNL     1       8.740   9.435  18.546  0.00  0.00    +0.000 A 
ATOM     19  N   UNL     1       8.616   8.239  19.082  0.00  0.00    +0.000 NA
BRANCH  18  20
ATOM     20  C   UNL     1       9.656  10.507  18.914  0.00  0.00    +0.000 A 
ATOM     21  C   UNL     1       9.894  10.881  20.246  0.00  0.00    +0.000 A 
ATOM     22  C   UNL     1      10.708  11.982  20.537  0.00  0.00    +0.000 A 
ATOM     23  C   UNL     1      11.289  12.705  19.501  0.00  0.00    +0.000 A 
ATOM     24  F   UNL     1      12.047  13.772  19.781  0.00  0.00    +0.000 F 
ATOM     25  C   UNL     1      11.081  12.343  18.176  0.00  0.00    +0.000 A 
ATOM     26  C   UNL     1      10.269  11.247  17.886  0.00  0.00    +0.000 A 
ENDBRANCH  18  20
ENDBRANCH  14  15
ENDBRANCH   1  14
TORSDOF 6
ENDMDL
MODEL 2
REMARK VINA RESULT:      -8.3      5.960      8.874
REMARK  Name = 
REMARK  6 active torsions:
REMARK  status: ('A' for Active; 'I' for Inactive)
REMARK    1  A    between atoms: C_2  and  C_3
REMARK    2  A    between atoms: C_3  and  C_4
REMARK    3  A    between atoms: C_11  and  C_12
REMARK    4  A    between atoms: C_12  and  C_13
REMARK    5  A    between atoms: C_13  and  C_14
REMARK    6  A    between atoms: C_17  and  C_18
REMARK                            x       y       z     vdW  Elec       q    Type
REMARK                         _______ _______ _______ _____ _____    ______ ____
ROOT
ATOM      1  C   UNL     1       2.209   6.390  18.122  0.00  0.00    +0.000 C 
ENDROOT
BRANCH   1   8
ATOM      2  O   UNL     1       6.100   5.997  17.863  0.00  0.00    +0.000 OA
ATOM      3  C   UNL     1       5.616   4.920  17.500  0.00  0.00    +0.000 C 
ATOM      4  N   UNL     1       4.502   4.376  18.132  0.00  0.00    +0.000 N 
ATOM      5  C   UNL     1       3.878   3.094  17.808  0.00  0.00    +0.000 C 
ATOM      6  C   UNL     1       2.351   3.200  17.749  0.00  0.00    +0.000 C 
ATOM      7  C   UNL     1       1.757   3.965  18.934  0.00  0.00    +0.000 C 
ATOM      8  C   UNL     1       2.461   5.307  19.195  0.00  0.00    +0.000 C 
ATOM      9  C   UNL     1       3.974   5.044  19.323  0.00  0.00    +0.000 C 
BRANCH   3  10
ATOM     10  C   UNL     1       6.237   4.132  16.348  0.00  0.00    +0.000 C 
BRANCH  10  11
ATOM     11  C   UNL     1       5.940   4.718  14.988  0.00  0.00    +0.000 C 
ATOM     12  C   UNL     1       7.045   4.925  13.983  0.00  0.00    +0.000 C 
ATOM     13  C   UNL     1       6.016   3.856  13.751  0.00  0.00    +0.000 C 
ENDBRANCH  10  11
ENDBRANCH   3  10
ENDBRANCH   1   8
BRANCH   1  14
ATOM     14  C   UNL     1       2.685   7.807  18.454  0.00  0.00    +0.000 C 
BRANCH  14  15
ATOM     15  C   UNL     1       1.622   8.799  18.761  0.00  0.00    +0.000 A 
ATOM     16  N   UNL     1       1.242   9.055  20.022  0.00  0.00    +0.000 NA
ATOM     17  O   UNL     1       0.055   9.778  19.856  0.00  0.00    +0.000 OA
ATOM     18  C   UNL     1      -0.151   9.880  18.509  0.00  0.00    +0.000 A 
ATOM     19  N   UNL     1       0.814   9.338  17.798  0.00  0.00    +0.000 NA
BRANCH  18  20
ATOM     20  C   UNL     1      -1.423  10.427  18.053  0.00  0.00    +0.000 A 
ATOM     21  C   UNL     1      -2.157  11.367  18.794  0.00  0.00    +0.000 A 
ATOM     22  C   UNL     1      -3.419  11.784  18.355  0.00  0.00    +0.000 A 
ATOM     23  C   UNL     1      -3.945  11.269  17.176  0.00  0.00    +0.000 A 
ATOM     24  F   UNL     1      -5.163  11.652  16.770  0.00  0.00    +0.000 F 
ATOM     25  C   UNL     1      -3.230  10.352  16.418  0.00  0.00    +0.000 A 
ATOM     26  C   UNL     1      -1.972   9.935  16.855  0.00  0.00    +0.000 A 
ENDBRANCH  18  20
ENDBRANCH  14  15
ENDBRANCH   1  14
TORSDOF 6
ENDMDL
MODEL 3
REMARK VINA RESULT:      -8.1      5.766      8.953
REMARK  Name = 
REMARK  6 active torsions:
REMARK  status: ('A' for Active; 'I' for Inactive)
REMARK    1  A    between atoms: C_2  and  C_3
REMARK    2  A    between atoms: C_3  and  C_4
REMARK    3  A    between atoms: C_11  and  C_12
REMARK    4  A    between atoms: C_12  and  C_13
REMARK    5  A    between atoms: C_13  and  C_14
REMARK    6  A    between atoms: C_17  and  C_18
REMARK                            x       y       z     vdW  Elec       q    Type
REMARK                         _______ _______ _______ _____ _____    ______ ____
ROOT
ATOM      1  C   UNL     1       2.509   6.819  17.827  0.00  0.00    +0.000 C 
ENDROOT
BRANCH   1   8
ATOM      2  O   UNL     1       6.387   6.322  18.095  0.00  0.00    +0.000 OA
ATOM      3  C   UNL     1       5.928   5.257  17.671  0.00  0.00    +0.000 C 
ATOM      4  N   UNL     1       4.724   4.745  18.146  0.00  0.00    +0.000 N 
ATOM      5  C   UNL     1       4.116   3.479  17.740  0.00  0.00    +0.000 C 
ATOM      6  C   UNL     1       2.614   3.625  17.476  0.00  0.00    +0.000 C 
ATOM      7  C   UNL     1       1.886   4.409  18.570  0.00  0.00    +0.000 C 
ATOM      8  C   UNL     1       2.584   5.733  18.924  0.00  0.00    +0.000 C 
ATOM      9  C   UNL     1       4.058   5.430  19.255  0.00  0.00    +0.000 C 
BRANCH   3  10
ATOM     10  C   UNL     1       6.678   4.449  16.613  0.00  0.00    +0.000 C 
BRANCH  10  11
ATOM     11  C   UNL     1       6.468   4.956  15.206  0.00  0.00    +0.000 C 
ATOM     12  C   UNL     1       6.688   4.050  14.021  0.00  0.00    +0.000 C 
ATOM     13  C   UNL     1       5.294   4.476  14.387  0.00  0.00    +0.000 C 
ENDBRANCH  10  11
ENDBRANCH   3  10
ENDBRANCH   1   8
BRANCH   1  14
ATOM     14  C   UNL     1       2.779   8.259  18.269  0.00  0.00    +0.000 C 
BRANCH  14  15
ATOM     15  C   UNL     1       1.585   9.067  18.633  0.00  0.00    +0.000 A 
ATOM     16  N   UNL     1       1.140   9.133  19.896  0.00  0.00    +0.000 NA
ATOM     17  O   UNL     1      -0.127   9.711  19.758  0.00  0.00    +0.000 OA
ATOM     18  C   UNL     1      -0.307   9.932  18.421  0.00  0.00    +0.000 A 
ATOM     19  N   UNL     1       0.741   9.599  17.698  0.00  0.00    +0.000 NA
BRANCH  18  20
ATOM     20  C   UNL     1      -1.627  10.357  17.971  0.00  0.00    +0.000 A 
ATOM     21  C   UNL     1      -2.201   9.911  16.769  0.00  0.00    +0.000 A 
ATOM     22  C   UNL     1      -3.427  10.428  16.337  0.00  0.00    +0.000 A 
ATOM     23  C   UNL     1      -4.085  11.381  17.106  0.00  0.00    +0.000 A 
ATOM     24  F   UNL     1      -5.247  11.891  16.679  0.00  0.00    +0.000 F 
ATOM     25  C   UNL     1      -3.545  11.824  18.306  0.00  0.00    +0.000 A 
ATOM     26  C   UNL     1      -2.321  11.311  18.736  0.00  0.00    +0.000 A 
ENDBRANCH  18  20
ENDBRANCH  14  15
ENDBRANCH   1  14
TORSDOF 6
ENDMDL
MODEL 4
REMARK VINA RESULT:      -8.1      5.703      8.175
REMARK  Name = 
REMARK  6 active torsions:
REMARK  status: ('A' for Active; 'I' for Inactive)
REMARK    1  A    between atoms: C_2  and  C_3
REMARK    2  A    between atoms: C_3  and  C_4
REMARK    3  A    between atoms: C_11  and  C_12
REMARK    4  A    between atoms: C_12  and  C_13
REMARK    5  A    between atoms: C_13  and  C_14
REMARK    6  A    between atoms: C_17  and  C_18
REMARK                            x       y       z     vdW  Elec       q    Type
REMARK                         _______ _______ _______ _____ _____    ______ ____
ROOT
ATOM      1  C   UNL     1       3.246   6.854  18.030  0.00  0.00    +0.000 C 
ENDROOT
BRANCH   1   8
ATOM      2  O   UNL     1       1.650   3.318  17.472  0.00  0.00    +0.000 OA
ATOM      3  C   UNL     1       2.605   3.152  18.237  0.00  0.00    +0.000 C 
ATOM      4  N   UNL     1       3.796   3.852  18.073  0.00  0.00    +0.000 N 
ATOM      5  C   UNL     1       4.996   3.701  18.896  0.00  0.00    +0.000 C 
ATOM      6  C   UNL     1       5.601   5.056  19.277  0.00  0.00    +0.000 C 
ATOM      7  C   UNL     1       5.705   6.021  18.094  0.00  0.00    +0.000 C 
ATOM      8  C   UNL     1       4.397   6.131  17.294  0.00  0.00    +0.000 C 
ATOM      9  C   UNL     1       3.950   4.711  16.897  0.00  0.00    +0.000 C 
BRANCH   3  10
ATOM     10  C   UNL     1       2.519   2.153  19.391  0.00  0.00    +0.000 C 
BRANCH  10  11
ATOM     11  C   UNL     1       2.580   2.800  20.753  0.00  0.00    +0.000 C 
ATOM     12  C   UNL     1       1.779   4.043  21.051  0.00  0.00    +0.000 C 
ATOM     13  C   UNL     1       1.393   2.737  21.684  0.00  0.00    +0.000 C 
ENDBRANCH  10  11
ENDBRANCH   3  10
ENDBRANCH   1   8
BRANCH   1  14
ATOM     14  C   UNL     1       3.006   8.318  17.656  0.00  0.00    +0.000 C 
BRANCH  14  15
ATOM     15  C   UNL     1       1.908   9.008  18.382  0.00  0.00    +0.000 A 
ATOM     16  N   UNL     1       1.593   8.688  19.647  0.00  0.00    +0.000 NA
ATOM     17  O   UNL     1       0.358   9.319  19.836  0.00  0.00    +0.000 OA
ATOM     18  C   UNL     1       0.063   9.953  18.662  0.00  0.00    +0.000 A 
ATOM     19  N   UNL     1       1.013   9.831  17.758  0.00  0.00    +0.000 NA
BRANCH  18  20
ATOM     20  C   UNL     1      -1.264  10.538  18.515  0.00  0.00    +0.000 A 
ATOM     21  C   UNL     1      -1.728  11.584  19.329  0.00  0.00    +0.000 A 
ATOM     22  C   UNL     1      -3.046  12.041  19.210  0.00  0.00    +0.000 A 
ATOM     23  C   UNL     1      -3.897  11.460  18.276  0.00  0.00    +0.000 A 
ATOM     24  F   UNL     1      -5.164  11.882  18.181  0.00  0.00    +0.000 F 
ATOM     25  C   UNL     1      -3.455  10.435  17.450  0.00  0.00    +0.000 A 
ATOM     26  C   UNL     1      -2.142   9.979  17.569  0.00  0.00    +0.000 A 
ENDBRANCH  18  20
ENDBRANCH  14  15
ENDBRANCH   1  14
TORSDOF 6
ENDMDL
MODEL 5
REMARK VINA RESULT:      -8.0      0.365      1.026
REMARK  Name = 
REMARK  6 active torsions:
REMARK  status: ('A' for Active; 'I' for Inactive)
REMARK    1  A    between atoms: C_2  and  C_3
REMARK    2  A    between atoms: C_3  and  C_4
REMARK    3  A    between atoms: C_11  and  C_12
REMARK    4  A    between atoms: C_12  and  C_13
REMARK    5  A    between atoms: C_13  and  C_14
REMARK    6  A    between atoms: C_17  and  C_18
REMARK                            x       y       z     vdW  Elec       q    Type
REMARK                         _______ _______ _______ _____ _____    ______ ____
ROOT
ATOM      1  C   UNL     1       6.339   5.355  18.176  0.00  0.00    +0.000 C 
ENDROOT
BRANCH   1   8
ATOM      2  O   UNL     1       3.030   6.889  19.610  0.00  0.00    +0.000 OA
ATOM      3  C   UNL     1       2.737   5.768  19.181  0.00  0.00    +0.000 C 
ATOM      4  N   UNL     1       3.293   5.273  18.005  0.00  0.00    +0.000 N 
ATOM      5  C   UNL     1       2.985   3.982  17.393  0.00  0.00    +0.000 C 
ATOM      6  C   UNL     1       4.250   3.251  16.932  0.00  0.00    +0.000 C 
ATOM      7  C   UNL     1       5.218   4.154  16.164  0.00  0.00    +0.000 C 
ATOM      8  C   UNL     1       5.498   5.483  16.885  0.00  0.00    +0.000 C 
ATOM      9  C   UNL     1       4.150   6.153  17.208  0.00  0.00    +0.000 C 
BRANCH   3  10
ATOM     10  C   UNL     1       1.735   4.885  19.922  0.00  0.00    +0.000 C 
BRANCH  10  11
ATOM     11  C   UNL     1       2.347   3.629  20.495  0.00  0.00    +0.000 C 
ATOM     12  C   UNL     1       1.970   3.152  21.875  0.00  0.00    +0.000 C 
ATOM     13  C   UNL     1       1.513   2.382  20.668  0.00  0.00    +0.000 C 
ENDBRANCH  10  11
ENDBRANCH   3  10
ENDBRANCH   1   8
BRANCH   1  14
ATOM     14  C   UNL     1       7.746   5.957  18.139  0.00  0.00    +0.000 C 
BRANCH  14  15
ATOM     15  C   UNL     1       7.823   7.441  18.150  0.00  0.00    +0.000 A 
ATOM     16  N   UNL     1       7.303   8.179  17.157  0.00  0.00    +0.000 NA
ATOM     17  O   UNL     1       7.846   9.449  17.386  0.00  0.00    +0.000 OA
ATOM     18  C   UNL     1       8.634   9.337  18.497  0.00  0.00    +0.000 A 
ATOM     19  N   UNL     1       8.609   8.134  19.029  0.00  0.00    +0.000 NA
BRANCH  18  20
ATOM     20  C   UNL     1       9.475  10.473  18.854  0.00  0.00    +0.000 A 
ATOM     21  C   UNL     1      10.226  11.191  17.908  0.00  0.00    +0.000 A 
ATOM     22  C   UNL     1      11.092  12.210  18.320  0.00  0.00    +0.000 A 
ATOM     23  C   UNL     1      11.205  12.518  19.671  0.00  0.00    +0.000 A 
ATOM     24  F   UNL     1      12.052  13.477  20.065  0.00  0.00    +0.000 F 
ATOM     25  C   UNL     1      10.460  11.833  20.622  0.00  0.00    +0.000 A 
ATOM     26  C   UNL     1       9.597  10.816  20.213  0.00  0.00    +0.000 A 
ENDBRANCH  18  20
ENDBRANCH  14  15
ENDBRANCH   1  14
TORSDOF 6
ENDMDL
MODEL 6
REMARK VINA RESULT:      -8.0      5.820      7.534
REMARK  Name = 
REMARK  6 active torsions:
REMARK  status: ('A' for Active; 'I' for Inactive)
REMARK    1  A    between atoms: C_2  and  C_3
REMARK    2  A    between atoms: C_3  and  C_4
REMARK    3  A    between atoms: C_11  and  C_12
REMARK    4  A    between atoms: C_12  and  C_13
REMARK    5  A    between atoms: C_13  and  C_14
REMARK    6  A    between atoms: C_17  and  C_18
REMARK                            x       y       z     vdW  Elec       q    Type
REMARK                         _______ _______ _______ _____ _____    ______ ____
ROOT
ATOM      1  C   UNL     1       4.171   6.471  18.163  0.00  0.00    +0.000 C 
ENDROOT
BRANCH   1   8
ATOM      2  O   UNL     1       1.048   4.279  17.266  0.00  0.00    +0.000 OA
ATOM      3  C   UNL     1       1.761   3.586  17.998  0.00  0.00    +0.000 C 
ATOM      4  N   UNL     1       3.149   3.608  17.891  0.00  0.00    +0.000 N 
ATOM      5  C   UNL     1       4.079   2.800  18.679  0.00  0.00    +0.000 C 
ATOM      6  C   UNL     1       5.263   3.627  19.189  0.00  0.00    +0.000 C 
ATOM      7  C   UNL     1       5.883   4.517  18.110  0.00  0.00    +0.000 C 
ATOM      8  C   UNL     1       4.838   5.343  17.342  0.00  0.00    +0.000 C 
ATOM      9  C   UNL     1       3.758   4.382  16.808  0.00  0.00    +0.000 C 
BRANCH   3  10
ATOM     10  C   UNL     1       1.143   2.660  19.044  0.00  0.00    +0.000 C 
BRANCH  10  11
ATOM     11  C   UNL     1       0.853   3.344  20.358  0.00  0.00    +0.000 C 
ATOM     12  C   UNL     1       1.484   2.852  21.637  0.00  0.00    +0.000 C 
ATOM     13  C   UNL     1       1.918   4.164  21.046  0.00  0.00    +0.000 C 
ENDBRANCH  10  11
ENDBRANCH   3  10
ENDBRANCH   1   8
BRANCH   1  14
ATOM     14  C   UNL     1       3.037   7.238  17.479  0.00  0.00    +0.000 C 
BRANCH  14  15
ATOM     15  C   UNL     1       2.252   8.155  18.345  0.00  0.00    +0.000 A 
ATOM     16  N   UNL     1       2.081   7.912  19.653  0.00  0.00    +0.000 NA
ATOM     17  O   UNL     1       1.065   8.805  20.013  0.00  0.00    +0.000 OA
ATOM     18  C   UNL     1       0.735   9.492  18.879  0.00  0.00    +0.000 A 
ATOM     19  N   UNL     1       1.475   9.162  17.842  0.00  0.00    +0.000 NA
BRANCH  18  20
ATOM     20  C   UNL     1      -0.434  10.362  18.924  0.00  0.00    +0.000 A 
ATOM     21  C   UNL     1      -0.656  11.286  19.958  0.00  0.00    +0.000 A 
ATOM     22  C   UNL     1      -1.843  12.026  20.002  0.00  0.00    +0.000 A 
ATOM     23  C   UNL     1      -2.805  11.849  19.014  0.00  0.00    +0.000 A 
ATOM     24  F   UNL     1      -3.950  12.541  19.072  0.00  0.00    +0.000 F 
ATOM     25  C   UNL     1      -2.600  10.954  17.973  0.00  0.00    +0.000 A 
ATOM     26  C   UNL     1      -1.417  10.215  17.928  0.00  0.00    +0.000 A 
ENDBRANCH  18  20
ENDBRANCH  14  15
ENDBRANCH   1  14
TORSDOF 6
ENDMDL
MODEL 7
REMARK VINA RESULT:      -7.9      2.109      2.836
REMARK  Name = 
REMARK  6 active torsions:
REMARK  status: ('A' for Active; 'I' for Inactive)
REMARK    1  A    between atoms: C_2  and  C_3
REMARK    2  A    between atoms: C_3  and  C_4
REMARK    3  A    between atoms: C_11  and  C_12
REMARK    4  A    between atoms: C_12  and  C_13
REMARK    5  A    between atoms: C_13  and  C_14
REMARK    6  A    between atoms: C_17  and  C_18
REMARK                            x       y       z     vdW  Elec       q    Type
REMARK                         _______ _______ _______ _____ _____    ______ ____
ROOT
ATOM      1  C   UNL     1       5.214   5.315  18.132  0.00  0.00    +0.000 C 
ENDROOT
BRANCH   1   8
ATOM      2  O   UNL     1       2.447   8.024  18.739  0.00  0.00    +0.000 OA
ATOM      3  C   UNL     1       2.205   7.098  19.520  0.00  0.00    +0.000 C 
ATOM      4  N   UNL     1       2.370   5.768  19.141  0.00  0.00    +0.000 N 
ATOM      5  C   UNL     1       2.075   4.602  19.972  0.00  0.00    +0.000 C 
ATOM      6  C   UNL     1       3.187   3.552  19.898  0.00  0.00    +0.000 C 
ATOM      7  C   UNL     1       3.651   3.268  18.468  0.00  0.00    +0.000 C 
ATOM      8  C   UNL     1       3.954   4.547  17.671  0.00  0.00    +0.000 C 
ATOM      9  C   UNL     1       2.724   5.472  17.752  0.00  0.00    +0.000 C 
BRANCH   3  10
ATOM     10  C   UNL     1       1.696   7.378  20.933  0.00  0.00    +0.000 C 
BRANCH  10  11
ATOM     11  C   UNL     1       1.207   8.793  21.127  0.00  0.00    +0.000 C 
ATOM     12  C   UNL     1      -0.259   9.078  21.339  0.00  0.00    +0.000 C 
ATOM     13  C   UNL     1       0.708   9.252  22.476  0.00  0.00    +0.000 C 
ENDBRANCH  10  11
ENDBRANCH   3  10
ENDBRANCH   1   8
BRANCH   1  14
ATOM     14  C   UNL     1       5.820   6.301  17.131  0.00  0.00    +0.000 C 
BRANCH  14  15
ATOM     15  C   UNL     1       7.029   7.036  17.586  0.00  0.00    +0.000 A 
ATOM     16  N   UNL     1       7.857   6.524  18.509  0.00  0.00    +0.000 NA
ATOM     17  O   UNL     1       8.651   7.619  18.867  0.00  0.00    +0.000 OA
ATOM     18  C   UNL     1       8.214   8.675  18.118  0.00  0.00    +0.000 A 
ATOM     19  N   UNL     1       7.253   8.350  17.280  0.00  0.00    +0.000 NA
BRANCH  18  20
ATOM     20  C   UNL     1       8.745   9.997  18.427  0.00  0.00    +0.000 A 
ATOM     21  C   UNL     1       9.502  10.263  19.580  0.00  0.00    +0.000 A 
ATOM     22  C   UNL     1       9.902  11.571  19.877  0.00  0.00    +0.000 A 
ATOM     23  C   UNL     1       9.555  12.611  19.021  0.00  0.00    +0.000 A 
ATOM     24  F   UNL     1       9.919  13.865  19.320  0.00  0.00    +0.000 F 
ATOM     25  C   UNL     1       8.822  12.369  17.867  0.00  0.00    +0.000 A 
ATOM     26  C   UNL     1       8.422  11.066  17.571  0.00  0.00    +0.000 A 
ENDBRANCH  18  20
ENDBRANCH  14  15
ENDBRANCH   1  14
TORSDOF 6
ENDMDL
MODEL 8
REMARK VINA RESULT:      -7.9      5.489      7.826
REMARK  Name = 
REMARK  6 active torsions:
REMARK  status: ('A' for Active; 'I' for Inactive)
REMARK    1  A    between atoms: C_2  and  C_3
REMARK    2  A    between atoms: C_3  and  C_4
REMARK    3  A    between atoms: C_11  and  C_12
REMARK    4  A    between atoms: C_12  and  C_13
REMARK    5  A    between atoms: C_13  and  C_14
REMARK    6  A    between atoms: C_17  and  C_18
REMARK                            x       y       z     vdW  Elec       q    Type
REMARK                         _______ _______ _______ _____ _____    ______ ____
ROOT
ATOM      1  C   UNL     1       2.434   6.270  17.726  0.00  0.00    +0.000 C 
ENDROOT
BRANCH   1   8
ATOM      2  O   UNL     1       6.300   6.226  18.371  0.00  0.00    +0.000 OA
ATOM      3  C   UNL     1       6.007   5.107  17.937  0.00  0.00    +0.000 C 
ATOM      4  N   UNL     1       4.828   4.470  18.313  0.00  0.00    +0.000 N 
ATOM      5  C   UNL     1       4.407   3.135  17.890  0.00  0.00    +0.000 C 
ATOM      6  C   UNL     1       2.931   3.103  17.482  0.00  0.00    +0.000 C 
ATOM      7  C   UNL     1       2.017   3.819  18.480  0.00  0.00    +0.000 C 
ATOM      8  C   UNL     1       2.525   5.221  18.858  0.00  0.00    +0.000 C 
ATOM      9  C   UNL     1       3.985   5.096  19.334  0.00  0.00    +0.000 C 
BRANCH   3  10
ATOM     10  C   UNL     1       6.940   4.370  16.979  0.00  0.00    +0.000 C 
BRANCH  10  11
ATOM     11  C   UNL     1       6.830   4.841  15.549  0.00  0.00    +0.000 C 
ATOM     12  C   UNL     1       6.033   4.053  14.539  0.00  0.00    +0.000 C 
ATOM     13  C   UNL     1       5.523   5.382  15.020  0.00  0.00    +0.000 C 
ENDBRANCH  10  11
ENDBRANCH   3  10
ENDBRANCH   1   8
BRANCH   1  14
ATOM     14  C   UNL     1       3.005   7.657  18.031  0.00  0.00    +0.000 C 
BRANCH  14  15
ATOM     15  C   UNL     1       2.018   8.704  18.404  0.00  0.00    +0.000 A 
ATOM     16  N   UNL     1       2.002   9.902  17.800  0.00  0.00    +0.000 NA
ATOM     17  O   UNL     1       1.169  10.664  18.627  0.00  0.00    +0.000 OA
ATOM     18  C   UNL     1       0.771   9.839  19.641  0.00  0.00    +0.000 A 
ATOM     19  N   UNL     1       1.227   8.611  19.516  0.00  0.00    +0.000 NA
BRANCH  18  20
ATOM     20  C   UNL     1       0.042  10.430  20.757  0.00  0.00    +0.000 A 
ATOM     21  C   UNL     1      -0.001   9.845  22.033  0.00  0.00    +0.000 A 
ATOM     22  C   UNL     1      -0.797  10.403  23.040  0.00  0.00    +0.000 A 
ATOM     23  C   UNL     1      -1.544  11.546  22.776  0.00  0.00    +0.000 A 
ATOM     24  F   UNL     1      -2.323  12.064  23.734  0.00  0.00    +0.000 F 
ATOM     25  C   UNL     1      -1.504  12.150  21.527  0.00  0.00    +0.000 A 
ATOM     26  C   UNL     1      -0.712  11.594  20.523  0.00  0.00    +0.000 A 
ENDBRANCH  18  20
ENDBRANCH  14  15
ENDBRANCH   1  14
TORSDOF 6
ENDMDL
MODEL 9
REMARK VINA RESULT:      -7.9      5.553      7.129
REMARK  Name = 
REMARK  6 active torsions:
REMARK  status: ('A' for Active; 'I' for Inactive)
REMARK    1  A    between atoms: C_2  and  C_3
REMARK    2  A    between atoms: C_3  and  C_4
REMARK    3  A    between atoms: C_11  and  C_12
REMARK    4  A    between atoms: C_12  and  C_13
REMARK    5  A    between atoms: C_13  and  C_14
REMARK    6  A    between atoms: C_17  and  C_18
REMARK                            x       y       z     vdW  Elec       q    Type
REMARK                         _______ _______ _______ _____ _____    ______ ____
ROOT
ATOM      1  C   UNL     1       1.513   5.436  19.835  0.00  0.00    +0.000 C 
ENDROOT
BRANCH   1   8
ATOM      2  O   UNL     1       5.127   5.064  18.364  0.00  0.00    +0.000 OA
ATOM      3  C   UNL     1       4.483   4.092  17.957  0.00  0.00    +0.000 C 
ATOM      4  N   UNL     1       3.561   3.440  18.771  0.00  0.00    +0.000 N 
ATOM      5  C   UNL     1       2.780   2.260  18.401  0.00  0.00    +0.000 C 
ATOM      6  C   UNL     1       1.313   2.393  18.819  0.00  0.00    +0.000 C 
ATOM      7  C   UNL     1       1.141   2.899  20.253  0.00  0.00    +0.000 C 
ATOM      8  C   UNL     1       1.984   4.150  20.552  0.00  0.00    +0.000 C 
ATOM      9  C   UNL     1       3.447   3.850  20.171  0.00  0.00    +0.000 C 
BRANCH   3  10
ATOM     10  C   UNL     1       4.689   3.555  16.542  0.00  0.00    +0.000 C 
BRANCH  10  11
ATOM     11  C   UNL     1       5.895   4.137  15.846  0.00  0.00    +0.000 C 
ATOM     12  C   UNL     1       6.110   3.920  14.369  0.00  0.00    +0.000 C 
ATOM     13  C   UNL     1       5.740   5.285  14.876  0.00  0.00    +0.000 C 
ENDBRANCH  10  11
ENDBRANCH   3  10
ENDBRANCH   1   8
BRANCH   1  14
ATOM     14  C   UNL     1       2.464   6.635  19.884  0.00  0.00    +0.000 C 
BRANCH  14  15
ATOM     15  C   UNL     1       2.085   7.805  19.050  0.00  0.00    +0.000 A 
ATOM     16  N   UNL     1       2.733   8.096  17.912  0.00  0.00    +0.000 NA
ATOM     17  O   UNL     1       2.292   9.392  17.618  0.00  0.00    +0.000 OA
ATOM     18  C   UNL     1       1.423   9.740  18.613  0.00  0.00    +0.000 A 
ATOM     19  N   UNL     1       1.226   8.776  19.486  0.00  0.00    +0.000 NA
BRANCH  18  20
ATOM     20  C   UNL     1       0.954  11.120  18.658  0.00  0.00    +0.000 A 
ATOM     21  C   UNL     1      -0.407  11.459  18.716  0.00  0.00    +0.000 A 
ATOM     22  C   UNL     1      -0.805  12.800  18.658  0.00  0.00    +0.000 A 
ATOM     23  C   UNL     1       0.154  13.801  18.548  0.00  0.00    +0.000 A 
ATOM     24  F   UNL     1      -0.230  15.081  18.468  0.00  0.00    +0.000 F 
ATOM     25  C   UNL     1       1.507  13.490  18.506  0.00  0.00    +0.000 A 
ATOM     26  C   UNL     1       1.904  12.154  18.563  0.00  0.00    +0.000 A 
ENDBRANCH  18  20
ENDBRANCH  14  15
ENDBRANCH   1  14
TORSDOF 6
ENDMDL
