MODEL 1
REMARK VINA RESULT:      -7.7      0.000      0.000
REMARK  Name = 
REMARK  4 active torsions:
REMARK  status: ('A' for Active; 'I' for Inactive)
REMARK    1  A    between atoms: C_1  and  C_2
REMARK    2  A    between atoms: C_6  and  C_7
REMARK    3  A    between atoms: C_10  and  C_11
REMARK    4  A    between atoms: C_16  and  C_17
REMARK                            x       y       z     vdW  Elec       q    Type
REMARK                         _______ _______ _______ _____ _____    ______ ____
ROOT
ATOM      1  C   UNL     1       1.881   2.412  17.851  0.00  0.00    +0.000 C 
ATOM      2  C   UNL     1       3.319   2.870  17.905  0.00  0.00    +0.000 C 
ATOM      3  O   UNL     1       4.256   2.088  17.761  0.00  0.00    +0.000 OA
ATOM      4  N   UNL     1       3.487   4.222  18.087  0.00  0.00    +0.000 N 
ATOM      5  N   UNL     1       2.457   5.069  18.352  0.00  0.00    +0.000 NA
ATOM      6  C   UNL     1       3.031   6.215  18.519  0.00  0.00    +0.000 C 
ATOM      7  O   UNL     1       4.386   6.268  18.407  0.00  0.00    +0.000 OA
ATOM      8  C   UNL     1       4.758   4.914  18.118  0.00  0.00    +0.000 C 
ENDROOT
BRANCH   8   9
ATOM      9  C   UNL     1       5.519   4.875  16.807  0.00  0.00    +0.000 A 
ATOM     10  C   UNL     1       6.841   5.340  16.734  0.00  0.00    +0.000 A 
ATOM     11  C   UNL     1       7.540   5.319  15.522  0.00  0.00    +0.000 A 
ATOM     12  C   UNL     1       6.927   4.836  14.363  0.00  0.00    +0.000 A 
ATOM     13 CL   UNL     1       7.839   4.862  12.896  0.00  0.00    +0.000 Cl
ATOM     14  C   UNL     1       5.613   4.364  14.421  0.00  0.00    +0.000 A 
ATOM     15 CL   UNL     1       4.776   3.771  13.031  0.00  0.00    +0.000 Cl
ATOM     16  C   UNL     1       4.919   4.378  15.637  0.00  0.00    +0.000 A 
ENDBRANCH   8   9
BRANCH   6  17
ATOM     17  C   UNL     1       2.341   7.482  18.800  0.00  0.00    +0.000 A 
ATOM     18  C   UNL     1       1.864   7.715  20.096  0.00  0.00    +0.000 A 
ATOM     19  C   UNL     1       1.163   8.886  20.392  0.00  0.00    +0.000 A 
ATOM     20  C   UNL     1       0.935   9.832  19.388  0.00  0.00    +0.000 A 
ATOM     21  C   UNL     1       1.424   9.608  18.095  0.00  0.00    +0.000 A 
ATOM     22  C   UNL     1       2.130   8.435  17.799  0.00  0.00    +0.000 A 
BRANCH  20  23
ATOM     23  C   UNL     1       0.191  11.025  19.680  0.00  0.00    +0.000 C 
ATOM     24  N   UNL     1      -0.408  11.990  19.909  0.00  0.00    +0.000 NA
ENDBRANCH  20  23
ENDBRANCH   6  17
TORSDOF 3
ENDMDL
MODEL 2
REMARK VINA RESULT:      -7.7      0.154      1.000
REMARK  Name = 
REMARK  4 active torsions:
REMARK  status: ('A' for Active; 'I' for Inactive)
REMARK    1  A    between atoms: C_1  and  C_2
REMARK    2  A    between atoms: C_6  and  C_7
REMARK    3  A    between atoms: C_10  and  C_11
REMARK    4  A    between atoms: C_16  and  C_17
REMARK                            x       y       z     vdW  Elec       q    Type
REMARK                         _______ _______ _______ _____ _____    ______ ____
ROOT
ATOM      1  C   UNL     1       1.837   2.386  17.922  0.00  0.00    +0.000 C 
ATOM      2  C   UNL     1       3.270   2.858  17.996  0.00  0.00    +0.000 C 
ATOM      3  O   UNL     1       4.216   2.086  17.856  0.00  0.00    +0.000 OA
ATOM      4  N   UNL     1       3.422   4.211  18.189  0.00  0.00    +0.000 N 
ATOM      5  N   UNL     1       2.380   5.045  18.448  0.00  0.00    +0.000 NA
ATOM      6  C   UNL     1       2.941   6.196  18.629  0.00  0.00    +0.000 C 
ATOM      7  O   UNL     1       4.296   6.263  18.532  0.00  0.00    +0.000 OA
ATOM      8  C   UNL     1       4.686   4.915  18.239  0.00  0.00    +0.000 C 
ENDROOT
BRANCH   8   9
ATOM      9  C   UNL     1       5.461   4.893  16.936  0.00  0.00    +0.000 A 
ATOM     10  C   UNL     1       6.769   5.400  16.874  0.00  0.00    +0.000 A 
ATOM     11  C   UNL     1       7.481   5.394  15.669  0.00  0.00    +0.000 A 
ATOM     12  C   UNL     1       6.896   4.885  14.507  0.00  0.00    +0.000 A 
ATOM     13 CL   UNL     1       7.822   4.931  13.049  0.00  0.00    +0.000 Cl
ATOM     14  C   UNL     1       5.597   4.370  14.554  0.00  0.00    +0.000 A 
ATOM     15 CL   UNL     1       4.795   3.742  13.159  0.00  0.00    +0.000 Cl
ATOM     16  C   UNL     1       4.891   4.370  15.763  0.00  0.00    +0.000 A 
ENDBRANCH   8   9
BRANCH   6  17
ATOM     17  C   UNL     1       2.235   7.453  18.911  0.00  0.00    +0.000 A 
ATOM     18  C   UNL     1       2.079   8.384  17.877  0.00  0.00    +0.000 A 
ATOM     19  C   UNL     1       1.455   9.610  18.117  0.00  0.00    +0.000 A 
ATOM     20  C   UNL     1       0.984   9.912  19.398  0.00  0.00    +0.000 A 
ATOM     21  C   UNL     1       1.127   8.977  20.431  0.00  0.00    +0.000 A 
ATOM     22  C   UNL     1       1.749   7.746  20.190  0.00  0.00    +0.000 A 
BRANCH  20  23
ATOM     23  C   UNL     1       0.366  11.182  19.656  0.00  0.00    +0.000 C 
ATOM     24  N   UNL     1      -0.133  12.205  19.871  0.00  0.00    +0.000 NA
ENDBRANCH  20  23
ENDBRANCH   6  17
TORSDOF 3
ENDMDL
MODEL 3
REMARK VINA RESULT:      -7.5      4.522      8.845
REMARK  Name = 
REMARK  4 active torsions:
REMARK  status: ('A' for Active; 'I' for Inactive)
REMARK    1  A    between atoms: C_1  and  C_2
REMARK    2  A    between atoms: C_6  and  C_7
REMARK    3  A    between atoms: C_10  and  C_11
REMARK    4  A    between atoms: C_16  and  C_17
REMARK                            x       y       z     vdW  Elec       q    Type
REMARK                         _______ _______ _______ _____ _____    ______ ____
ROOT
ATOM      1  C   UNL     1       2.595  13.040  17.976  0.00  0.00    +0.000 C 
ATOM      2  C   UNL     1       1.348  12.732  18.771  0.00  0.00    +0.000 C 
ATOM      3  O   UNL     1       0.574  13.614  19.133  0.00  0.00    +0.000 OA
ATOM      4  N   UNL     1       1.137  11.396  19.016  0.00  0.00    +0.000 N 
ATOM      5  N   UNL     1       2.045  10.432  18.708  0.00  0.00    +0.000 NA
ATOM      6  C   UNL     1       1.507   9.344  19.151  0.00  0.00    +0.000 C 
ATOM      7  O   UNL     1       0.294   9.439  19.760  0.00  0.00    +0.000 OA
ATOM      8  C   UNL     1      -0.008  10.839  19.705  0.00  0.00    +0.000 C 
ENDROOT
BRANCH   8   9
ATOM      9  C   UNL     1      -1.325  11.037  18.980  0.00  0.00    +0.000 A 
ATOM     10  C   UNL     1      -2.341  11.824  19.546  0.00  0.00    +0.000 A 
ATOM     11  C   UNL     1      -3.562  11.996  18.885  0.00  0.00    +0.000 A 
ATOM     12  C   UNL     1      -3.790  11.380  17.652  0.00  0.00    +0.000 A 
ATOM     13 CL   UNL     1      -5.330  11.614  16.905  0.00  0.00    +0.000 Cl
ATOM     14  C   UNL     1      -2.786  10.598  17.074  0.00  0.00    +0.000 A 
ATOM     15 CL   UNL     1      -2.996   9.786  15.563  0.00  0.00    +0.000 Cl
ATOM     16  C   UNL     1      -1.562  10.435  17.732  0.00  0.00    +0.000 A 
ENDBRANCH   8   9
BRANCH   6  17
ATOM     17  C   UNL     1       2.084   7.998  19.035  0.00  0.00    +0.000 A 
ATOM     18  C   UNL     1       1.869   7.081  20.072  0.00  0.00    +0.000 A 
ATOM     19  C   UNL     1       2.439   5.807  20.020  0.00  0.00    +0.000 A 
ATOM     20  C   UNL     1       3.232   5.444  18.927  0.00  0.00    +0.000 A 
ATOM     21  C   UNL     1       3.437   6.354  17.883  0.00  0.00    +0.000 A 
ATOM     22  C   UNL     1       2.862   7.630  17.933  0.00  0.00    +0.000 A 
BRANCH  20  23
ATOM     23  C   UNL     1       3.843   4.146  18.882  0.00  0.00    +0.000 C 
ATOM     24  N   UNL     1       4.329   3.095  18.847  0.00  0.00    +0.000 NA
ENDBRANCH  20  23
ENDBRANCH   6  17
TORSDOF 3
ENDMDL
MODEL 4
REMARK VINA RESULT:      -7.5      4.529      8.924
REMARK  Name = 
REMARK  4 active torsions:
REMARK  status: ('A' for Active; 'I' for Inactive)
REMARK    1  A    between atoms: C_1  and  C_2
REMARK    2  A    between atoms: C_6  and  C_7
REMARK    3  A    between atoms: C_10  and  C_11
REMARK    4  A    between atoms: C_16  and  C_17
REMARK                            x       y       z     vdW  Elec       q    Type
REMARK                         _______ _______ _______ _____ _____    ______ ____
ROOT
ATOM      1  C   UNL     1       2.577  13.114  17.916  0.00  0.00    +0.000 C 
ATOM      2  C   UNL     1       1.349  12.802  18.737  0.00  0.00    +0.000 C 
ATOM      3  O   UNL     1       0.574  13.682  19.107  0.00  0.00    +0.000 OA
ATOM      4  N   UNL     1       1.152  11.466  18.996  0.00  0.00    +0.000 N 
ATOM      5  N   UNL     1       2.061  10.507  18.678  0.00  0.00    +0.000 NA
ATOM      6  C   UNL     1       1.540   9.418  19.139  0.00  0.00    +0.000 C 
ATOM      7  O   UNL     1       0.338   9.509  19.770  0.00  0.00    +0.000 OA
ATOM      8  C   UNL     1       0.025  10.907  19.710  0.00  0.00    +0.000 C 
ENDROOT
BRANCH   8   9
ATOM      9  C   UNL     1      -1.308  11.089  19.010  0.00  0.00    +0.000 A 
ATOM     10  C   UNL     1      -2.303  11.907  19.568  0.00  0.00    +0.000 A 
ATOM     11  C   UNL     1      -3.538  12.065  18.930  0.00  0.00    +0.000 A 
ATOM     12  C   UNL     1      -3.800  11.405  17.727  0.00  0.00    +0.000 A 
ATOM     13 CL   UNL     1      -5.355  11.625  17.007  0.00  0.00    +0.000 Cl
ATOM     14  C   UNL     1      -2.817  10.591  17.156  0.00  0.00    +0.000 A 
ATOM     15 CL   UNL     1      -3.069   9.725  15.683  0.00  0.00    +0.000 Cl
ATOM     16  C   UNL     1      -1.579  10.443  17.792  0.00  0.00    +0.000 A 
ENDBRANCH   8   9
BRANCH   6  17
ATOM     17  C   UNL     1       2.125   8.076  19.022  0.00  0.00    +0.000 A 
ATOM     18  C   UNL     1       2.876   7.766  17.881  0.00  0.00    +0.000 A 
ATOM     19  C   UNL     1       3.410   6.486  17.712  0.00  0.00    +0.000 A 
ATOM     20  C   UNL     1       3.192   5.507  18.686  0.00  0.00    +0.000 A 
ATOM     21  C   UNL     1       2.454   5.819  19.834  0.00  0.00    +0.000 A 
ATOM     22  C   UNL     1       1.921   7.103  20.006  0.00  0.00    +0.000 A 
BRANCH  20  23
ATOM     23  C   UNL     1       3.715   4.183  18.504  0.00  0.00    +0.000 C 
ATOM     24  N   UNL     1       4.134   3.112  18.362  0.00  0.00    +0.000 NA
ENDBRANCH  20  23
ENDBRANCH   6  17
TORSDOF 3
ENDMDL
MODEL 5
REMARK VINA RESULT:      -7.4      1.868      2.588
REMARK  Name = 
REMARK  4 active torsions:
REMARK  status: ('A' for Active; 'I' for Inactive)
REMARK    1  A    between atoms: C_1  and  C_2
REMARK    2  A    between atoms: C_6  and  C_7
REMARK    3  A    between atoms: C_10  and  C_11
REMARK    4  A    between atoms: C_16  and  C_17
REMARK                            x       y       z     vdW  Elec       q    Type
REMARK                         _______ _______ _______ _____ _____    ______ ____
ROOT
ATOM      1  C   UNL     1       1.070   2.849  20.883  0.00  0.00    +0.000 C 
ATOM      2  C   UNL     1       2.468   3.336  20.584  0.00  0.00    +0.000 C 
ATOM      3  O   UNL     1       3.425   2.567  20.527  0.00  0.00    +0.000 OA
ATOM      4  N   UNL     1       2.569   4.686  20.343  0.00  0.00    +0.000 N 
ATOM      5  N   UNL     1       1.532   5.548  20.510  0.00  0.00    +0.000 NA
ATOM      6  C   UNL     1       2.046   6.706  20.252  0.00  0.00    +0.000 C 
ATOM      7  O   UNL     1       3.366   6.756  19.924  0.00  0.00    +0.000 OA
ATOM      8  C   UNL     1       3.783   5.385  19.981  0.00  0.00    +0.000 C 
ENDROOT
BRANCH   8   9
ATOM      9  C   UNL     1       4.354   4.982  18.635  0.00  0.00    +0.000 A 
ATOM     10  C   UNL     1       3.504   4.673  17.562  0.00  0.00    +0.000 A 
ATOM     11  C   UNL     1       4.029   4.287  16.323  0.00  0.00    +0.000 A 
ATOM     12  C   UNL     1       5.411   4.201  16.139  0.00  0.00    +0.000 A 
ATOM     13 CL   UNL     1       5.990   3.694  14.592  0.00  0.00    +0.000 Cl
ATOM     14  C   UNL     1       6.271   4.512  17.197  0.00  0.00    +0.000 A 
ATOM     15 CL   UNL     1       7.990   4.411  17.057  0.00  0.00    +0.000 Cl
ATOM     16  C   UNL     1       5.743   4.906  18.432  0.00  0.00    +0.000 A 
ENDBRANCH   8   9
BRANCH   6  17
ATOM     17  C   UNL     1       1.320   7.984  20.262  0.00  0.00    +0.000 A 
ATOM     18  C   UNL     1       0.531   8.301  21.375  0.00  0.00    +0.000 A 
ATOM     19  C   UNL     1      -0.211   9.484  21.402  0.00  0.00    +0.000 A 
ATOM     20  C   UNL     1      -0.167  10.357  20.311  0.00  0.00    +0.000 A 
ATOM     21  C   UNL     1       0.632  10.049  19.204  0.00  0.00    +0.000 A 
ATOM     22  C   UNL     1       1.379   8.864  19.178  0.00  0.00    +0.000 A 
BRANCH  20  23
ATOM     23  C   UNL     1      -0.949  11.561  20.323  0.00  0.00    +0.000 C 
ATOM     24  N   UNL     1      -1.585  12.529  20.335  0.00  0.00    +0.000 NA
ENDBRANCH  20  23
ENDBRANCH   6  17
TORSDOF 3
ENDMDL
MODEL 6
REMARK VINA RESULT:      -7.4      1.871      2.772
REMARK  Name = 
REMARK  4 active torsions:
REMARK  status: ('A' for Active; 'I' for Inactive)
REMARK    1  A    between atoms: C_1  and  C_2
REMARK    2  A    between atoms: C_6  and  C_7
REMARK    3  A    between atoms: C_10  and  C_11
REMARK    4  A    between atoms: C_16  and  C_17
REMARK                            x       y       z     vdW  Elec       q    Type
REMARK                         _______ _______ _______ _____ _____    ______ ____
ROOT
ATOM      1  C   UNL     1       1.078   2.884  20.962  0.00  0.00    +0.000 C 
ATOM      2  C   UNL     1       2.471   3.376  20.646  0.00  0.00    +0.000 C 
ATOM      3  O   UNL     1       3.435   2.614  20.603  0.00  0.00    +0.000 OA
ATOM      4  N   UNL     1       2.560   4.721  20.377  0.00  0.00    +0.000 N 
ATOM      5  N   UNL     1       1.516   5.579  20.529  0.00  0.00    +0.000 NA
ATOM      6  C   UNL     1       2.020   6.735  20.244  0.00  0.00    +0.000 C 
ATOM      7  O   UNL     1       3.337   6.788  19.910  0.00  0.00    +0.000 OA
ATOM      8  C   UNL     1       3.767   5.423  19.995  0.00  0.00    +0.000 C 
ENDROOT
BRANCH   8   9
ATOM      9  C   UNL     1       4.336   4.996  18.656  0.00  0.00    +0.000 A 
ATOM     10  C   UNL     1       3.485   4.654  17.593  0.00  0.00    +0.000 A 
ATOM     11  C   UNL     1       4.009   4.246  16.361  0.00  0.00    +0.000 A 
ATOM     12  C   UNL     1       5.391   4.169  16.174  0.00  0.00    +0.000 A 
ATOM     13 CL   UNL     1       5.969   3.634  14.636  0.00  0.00    +0.000 Cl
ATOM     14  C   UNL     1       6.252   4.512  17.220  0.00  0.00    +0.000 A 
ATOM     15 CL   UNL     1       7.971   4.424  17.076  0.00  0.00    +0.000 Cl
ATOM     16  C   UNL     1       5.725   4.928  18.448  0.00  0.00    +0.000 A 
ENDBRANCH   8   9
BRANCH   6  17
ATOM     17  C   UNL     1       1.282   8.006  20.229  0.00  0.00    +0.000 A 
ATOM     18  C   UNL     1       1.423   8.852  19.122  0.00  0.00    +0.000 A 
ATOM     19  C   UNL     1       0.775  10.090  19.091  0.00  0.00    +0.000 A 
ATOM     20  C   UNL     1      -0.018  10.487  20.172  0.00  0.00    +0.000 A 
ATOM     21  C   UNL     1      -0.172   9.636  21.273  0.00  0.00    +0.000 A 
ATOM     22  C   UNL     1       0.475   8.393  21.303  0.00  0.00    +0.000 A 
BRANCH  20  23
ATOM     23  C   UNL     1      -0.664  11.769  20.156  0.00  0.00    +0.000 C 
ATOM     24  N   UNL     1      -1.188  12.801  20.138  0.00  0.00    +0.000 NA
ENDBRANCH  20  23
ENDBRANCH   6  17
TORSDOF 3
ENDMDL
MODEL 7
REMARK VINA RESULT:      -7.3      4.799      8.319
REMARK  Name = 
REMARK  4 active torsions:
REMARK  status: ('A' for Active; 'I' for Inactive)
REMARK    1  A    between atoms: C_1  and  C_2
REMARK    2  A    between atoms: C_6  and  C_7
REMARK    3  A    between atoms: C_10  and  C_11
REMARK    4  A    between atoms: C_16  and  C_17
REMARK                            x       y       z     vdW  Elec       q    Type
REMARK                         _______ _______ _______ _____ _____    ______ ____
ROOT
ATOM      1  C   UNL     1       0.594   9.310  22.577  0.00  0.00    +0.000 C 
ATOM      2  C   UNL     1       0.146  10.033  21.330  0.00  0.00    +0.000 C 
ATOM      3  O   UNL     1      -0.647  10.971  21.372  0.00  0.00    +0.000 OA
ATOM      4  N   UNL     1       0.723   9.585  20.165  0.00  0.00    +0.000 N 
ATOM      5  N   UNL     1       1.516   8.482  20.107  0.00  0.00    +0.000 NA
ATOM      6  C   UNL     1       1.794   8.365  18.850  0.00  0.00    +0.000 C 
ATOM      7  O   UNL     1       1.264   9.281  17.995  0.00  0.00    +0.000 OA
ATOM      8  C   UNL     1       0.504  10.146  18.849  0.00  0.00    +0.000 C 
ENDROOT
BRANCH   8   9
ATOM      9  C   UNL     1       1.003  11.569  18.689  0.00  0.00    +0.000 A 
ATOM     10  C   UNL     1       2.346  11.823  18.368  0.00  0.00    +0.000 A 
ATOM     11  C   UNL     1       2.812  13.136  18.234  0.00  0.00    +0.000 A 
ATOM     12  C   UNL     1       1.945  14.214  18.422  0.00  0.00    +0.000 A 
ATOM     13 CL   UNL     1       2.593  15.809  18.266  0.00  0.00    +0.000 Cl
ATOM     14  C   UNL     1       0.604  13.977  18.737  0.00  0.00    +0.000 A 
ATOM     15 CL   UNL     1      -0.527  15.255  19.005  0.00  0.00    +0.000 Cl
ATOM     16  C   UNL     1       0.138  12.663  18.861  0.00  0.00    +0.000 A 
ENDBRANCH   8   9
BRANCH   6  17
ATOM     17  C   UNL     1       2.657   7.333  18.259  0.00  0.00    +0.000 A 
ATOM     18  C   UNL     1       3.759   7.735  17.494  0.00  0.00    +0.000 A 
ATOM     19  C   UNL     1       4.577   6.784  16.878  0.00  0.00    +0.000 A 
ATOM     20  C   UNL     1       4.294   5.423  17.025  0.00  0.00    +0.000 A 
ATOM     21  C   UNL     1       3.201   5.019  17.802  0.00  0.00    +0.000 A 
ATOM     22  C   UNL     1       2.383   5.972  18.422  0.00  0.00    +0.000 A 
BRANCH  20  23
ATOM     23  C   UNL     1       5.115   4.443  16.372  0.00  0.00    +0.000 C 
ATOM     24  N   UNL     1       5.783   3.657  15.845  0.00  0.00    +0.000 NA
ENDBRANCH  20  23
ENDBRANCH   6  17
TORSDOF 3
ENDMDL
MODEL 8
REMARK VINA RESULT:      -7.3      4.802      8.687
REMARK  Name = 
REMARK  4 active torsions:
REMARK  status: ('A' for Active; 'I' for Inactive)
REMARK    1  A    between atoms: C_1  and  C_2
REMARK    2  A    between atoms: C_6  and  C_7
REMARK    3  A    between atoms: C_10  and  C_11
REMARK    4  A    between atoms: C_16  and  C_17
REMARK                            x       y       z     vdW  Elec       q    Type
REMARK                         _______ _______ _______ _____ _____    ______ ____
ROOT
ATOM      1  C   UNL     1      -0.046   9.623  23.335  0.00  0.00    +0.000 C 
ATOM      2  C   UNL     1      -0.508  10.311  22.072  0.00  0.00    +0.000 C 
ATOM      3  O   UNL     1      -1.358  11.197  22.088  0.00  0.00    +0.000 OA
ATOM      4  N   UNL     1       0.125   9.894  20.924  0.00  0.00    +0.000 N 
ATOM      5  N   UNL     1       0.987   8.843  20.892  0.00  0.00    +0.000 NA
ATOM      6  C   UNL     1       1.302   8.737  19.643  0.00  0.00    +0.000 C 
ATOM      7  O   UNL     1       0.737   9.614  18.770  0.00  0.00    +0.000 OA
ATOM      8  C   UNL     1      -0.097  10.434  19.600  0.00  0.00    +0.000 C 
ENDROOT
BRANCH   8   9
ATOM      9  C   UNL     1       0.316  11.885  19.443  0.00  0.00    +0.000 A 
ATOM     10  C   UNL     1      -0.507  12.791  18.756  0.00  0.00    +0.000 A 
ATOM     11  C   UNL     1      -0.120  14.127  18.598  0.00  0.00    +0.000 A 
ATOM     12  C   UNL     1       1.095  14.576  19.119  0.00  0.00    +0.000 A 
ATOM     13 CL   UNL     1       1.521  16.231  18.866  0.00  0.00    +0.000 Cl
ATOM     14  C   UNL     1       1.923  13.686  19.811  0.00  0.00    +0.000 A 
ATOM     15 CL   UNL     1       3.449  14.157  20.468  0.00  0.00    +0.000 Cl
ATOM     16  C   UNL     1       1.529  12.353  19.976  0.00  0.00    +0.000 A 
ENDBRANCH   8   9
BRANCH   6  17
ATOM     17  C   UNL     1       2.243   7.759  19.081  0.00  0.00    +0.000 A 
ATOM     18  C   UNL     1       2.908   8.073  17.889  0.00  0.00    +0.000 A 
ATOM     19  C   UNL     1       3.776   7.151  17.299  0.00  0.00    +0.000 A 
ATOM     20  C   UNL     1       3.980   5.905  17.900  0.00  0.00    +0.000 A 
ATOM     21  C   UNL     1       3.327   5.595  19.099  0.00  0.00    +0.000 A 
ATOM     22  C   UNL     1       2.460   6.521  19.693  0.00  0.00    +0.000 A 
BRANCH  20  23
ATOM     23  C   UNL     1       4.849   4.943  17.282  0.00  0.00    +0.000 C 
ATOM     24  N   UNL     1       5.551   4.172  16.779  0.00  0.00    +0.000 NA
ENDBRANCH  20  23
ENDBRANCH   6  17
TORSDOF 3
ENDMDL
MODEL 9
REMARK VINA RESULT:      -7.3      5.319     10.019
REMARK  Name = 
REMARK  4 active torsions:
REMARK  status: ('A' for Active; 'I' for Inactive)
REMARK    1  A    between atoms: C_1  and  C_2
REMARK    2  A    between atoms: C_6  and  C_7
REMARK    3  A    between atoms: C_10  and  C_11
REMARK    4  A    between atoms: C_16  and  C_17
REMARK                            x       y       z     vdW  Elec       q    Type
REMARK                         _______ _______ _______ _____ _____    ______ ____
ROOT
ATOM      1  C   UNL     1       0.854  14.740  18.782  0.00  0.00    +0.000 C 
ATOM      2  C   UNL     1      -0.318  14.148  19.528  0.00  0.00    +0.000 C 
ATOM      3  O   UNL     1      -1.218  14.848  19.986  0.00  0.00    +0.000 OA
ATOM      4  N   UNL     1      -0.312  12.775  19.615  0.00  0.00    +0.000 N 
ATOM      5  N   UNL     1       0.733  12.011  19.203  0.00  0.00    +0.000 NA
ATOM      6  C   UNL     1       0.380  10.807  19.514  0.00  0.00    +0.000 C 
ATOM      7  O   UNL     1      -0.825  10.637  20.122  0.00  0.00    +0.000 OA
ATOM      8  C   UNL     1      -1.346  11.969  20.228  0.00  0.00    +0.000 C 
ENDROOT
BRANCH   8   9
ATOM      9  C   UNL     1      -2.687  12.037  19.523  0.00  0.00    +0.000 A 
ATOM     10  C   UNL     1      -3.804  12.593  20.165  0.00  0.00    +0.000 A 
ATOM     11  C   UNL     1      -5.046  12.643  19.522  0.00  0.00    +0.000 A 
ATOM     12  C   UNL     1      -5.191  12.136  18.228  0.00  0.00    +0.000 A 
ATOM     13 CL   UNL     1      -6.758  12.208  17.503  0.00  0.00    +0.000 Cl
ATOM     14  C   UNL     1      -4.086  11.584  17.573  0.00  0.00    +0.000 A 
ATOM     15 CL   UNL     1      -4.186  10.917  15.983  0.00  0.00    +0.000 Cl
ATOM     16  C   UNL     1      -2.843  11.544  18.216  0.00  0.00    +0.000 A 
ENDBRANCH   8   9
BRANCH   6  17
ATOM     17  C   UNL     1       1.162   9.592  19.246  0.00  0.00    +0.000 A 
ATOM     18  C   UNL     1       1.713   9.414  17.971  0.00  0.00    +0.000 A 
ATOM     19  C   UNL     1       2.424   8.251  17.663  0.00  0.00    +0.000 A 
ATOM     20  C   UNL     1       2.585   7.257  18.633  0.00  0.00    +0.000 A 
ATOM     21  C   UNL     1       2.047   7.440  19.913  0.00  0.00    +0.000 A 
ATOM     22  C   UNL     1       1.337   8.607  20.223  0.00  0.00    +0.000 A 
BRANCH  20  23
ATOM     23  C   UNL     1       3.291   6.049  18.314  0.00  0.00    +0.000 C 
ATOM     24  N   UNL     1       3.856   5.070  18.061  0.00  0.00    +0.000 NA
ENDBRANCH  20  23
ENDBRANCH   6  17
TORSDOF 3
ENDMDL
