MODEL 1
REMARK VINA RESULT:      -8.2      0.000      0.000
REMARK  Name = 
REMARK  4 active torsions:
REMARK  status: ('A' for Active; 'I' for Inactive)
REMARK    1  A    between atoms: C_2  and  C_4
REMARK    2  A    between atoms: C_10  and  N_11
REMARK    3  A    between atoms: C_12  and  C_14
REMARK    4  A    between atoms: C_15  and  C_16
REMARK                            x       y       z     vdW  Elec       q    Type
REMARK                         _______ _______ _______ _____ _____    ______ ____
ROOT
ATOM      1  N   UNL     1       6.487   7.768  17.135  0.00  0.00    +0.000 N 
ATOM      2  C   UNL     1       7.644   7.854  17.889  0.00  0.00    +0.000 C 
ATOM      3  O   UNL     1       8.040   7.026  18.699  0.00  0.00    +0.000 OA
ATOM      4  H   UNL     1       6.328   8.472  16.420  0.00  0.00    +0.000 HD
ENDROOT
BRANCH   1  11
ATOM      5  C   UNL     1       5.832   5.443  16.646  0.00  0.00    +0.000 A 
ATOM      6  C   UNL     1       4.861   4.423  16.647  0.00  0.00    +0.000 A 
ATOM      7  C   UNL     1       3.616   4.645  17.225  0.00  0.00    +0.000 A 
ATOM      8 CL   UNL     1       2.444   3.389  17.262  0.00  0.00    +0.000 Cl
ATOM      9  C   UNL     1       3.318   5.880  17.787  0.00  0.00    +0.000 A 
ATOM     10  C   UNL     1       4.268   6.905  17.757  0.00  0.00    +0.000 A 
ATOM     11  C   UNL     1       5.538   6.714  17.190  0.00  0.00    +0.000 A 
BRANCH   5  13
ATOM     12  N   UNL     1       7.958   4.275  16.904  0.00  0.00    +0.000 N 
ATOM     13  C   UNL     1       7.164   5.061  16.107  0.00  0.00    +0.000 C 
ATOM     14  O   UNL     1       7.521   5.365  14.977  0.00  0.00    +0.000 OA
ATOM     15  H   UNL     1       8.746   3.858  16.420  0.00  0.00    +0.000 HD
ATOM     16  H   UNL     1       7.527   3.709  17.625  0.00  0.00    +0.000 HD
ENDBRANCH   5  13
ENDBRANCH   1  11
BRANCH   2  17
ATOM     17  C   UNL     1       8.474   9.038  17.555  0.00  0.00    +0.000 C 
ATOM     18  C   UNL     1       8.708   9.938  18.524  0.00  0.00    +0.000 C 
BRANCH  18  19
ATOM     19  C   UNL     1       9.620  11.065  18.324  0.00  0.00    +0.000 A 
ATOM     20  C   UNL     1      10.954  10.880  18.720  0.00  0.00    +0.000 A 
ATOM     21  C   UNL     1      11.901  11.883  18.516  0.00  0.00    +0.000 A 
ATOM     22  C   UNL     1      11.524  13.083  17.918  0.00  0.00    +0.000 A 
ATOM     23  C   UNL     1      10.195  13.290  17.546  0.00  0.00    +0.000 A 
ATOM     24  C   UNL     1       9.242  12.288  17.754  0.00  0.00    +0.000 A 
ATOM     25 BR   UNL     1       7.446  12.655  17.253  0.00  0.00    +0.000 Br
ENDBRANCH  18  19
ENDBRANCH   2  17
TORSDOF 4
ENDMDL
MODEL 2
REMARK VINA RESULT:      -7.9      1.408      1.482
REMARK  Name = 
REMARK  4 active torsions:
REMARK  status: ('A' for Active; 'I' for Inactive)
REMARK    1  A    between atoms: C_2  and  C_4
REMARK    2  A    between atoms: C_10  and  N_11
REMARK    3  A    between atoms: C_12  and  C_14
REMARK    4  A    between atoms: C_15  and  C_16
REMARK                            x       y       z     vdW  Elec       q    Type
REMARK                         _______ _______ _______ _____ _____    ______ ____
ROOT
ATOM      1  N   UNL     1       6.537   7.565  17.315  0.00  0.00    +0.000 N 
ATOM      2  C   UNL     1       7.672   7.603  18.106  0.00  0.00    +0.000 C 
ATOM      3  O   UNL     1       8.053   6.721  18.864  0.00  0.00    +0.000 OA
ATOM      4  H   UNL     1       6.392   8.319  16.649  0.00  0.00    +0.000 HD
ENDROOT
BRANCH   1  11
ATOM      5  C   UNL     1       5.894   5.300  16.590  0.00  0.00    +0.000 A 
ATOM      6  C   UNL     1       4.931   4.278  16.491  0.00  0.00    +0.000 A 
ATOM      7  C   UNL     1       3.689   4.428  17.098  0.00  0.00    +0.000 A 
ATOM      8 CL   UNL     1       2.526   3.166  17.011  0.00  0.00    +0.000 Cl
ATOM      9  C   UNL     1       3.387   5.594  17.789  0.00  0.00    +0.000 A 
ATOM     10  C   UNL     1       4.329   6.625  17.859  0.00  0.00    +0.000 A 
ATOM     11  C   UNL     1       5.596   6.505  17.266  0.00  0.00    +0.000 A 
BRANCH   5  13
ATOM     12  N   UNL     1       7.488   5.484  14.752  0.00  0.00    +0.000 N 
ATOM     13  C   UNL     1       7.225   4.986  16.004  0.00  0.00    +0.000 C 
ATOM     14  O   UNL     1       8.082   4.374  16.625  0.00  0.00    +0.000 OA
ATOM     15  H   UNL     1       8.467   5.440  14.488  0.00  0.00    +0.000 HD
ATOM     16  H   UNL     1       6.973   6.291  14.423  0.00  0.00    +0.000 HD
ENDBRANCH   5  13
ENDBRANCH   1  11
BRANCH   2  17
ATOM     17  C   UNL     1       8.501   8.814  17.882  0.00  0.00    +0.000 C 
ATOM     18  C   UNL     1       8.681   9.654  18.915  0.00  0.00    +0.000 C 
BRANCH  18  19
ATOM     19  C   UNL     1       9.587  10.800  18.826  0.00  0.00    +0.000 A 
ATOM     20  C   UNL     1      10.256  10.987  17.607  0.00  0.00    +0.000 A 
ATOM     21  C   UNL     1      11.096  12.084  17.418  0.00  0.00    +0.000 A 
ATOM     22  C   UNL     1      11.278  13.004  18.447  0.00  0.00    +0.000 A 
ATOM     23  C   UNL     1      10.640  12.815  19.675  0.00  0.00    +0.000 A 
ATOM     24  C   UNL     1       9.801  11.713  19.868  0.00  0.00    +0.000 A 
ATOM     25 BR   UNL     1       8.994  11.502  21.575  0.00  0.00    +0.000 Br
ENDBRANCH  18  19
ENDBRANCH   2  17
TORSDOF 4
ENDMDL
MODEL 3
REMARK VINA RESULT:      -7.8      5.580      7.558
REMARK  Name = 
REMARK  4 active torsions:
REMARK  status: ('A' for Active; 'I' for Inactive)
REMARK    1  A    between atoms: C_2  and  C_4
REMARK    2  A    between atoms: C_10  and  N_11
REMARK    3  A    between atoms: C_12  and  C_14
REMARK    4  A    between atoms: C_15  and  C_16
REMARK                            x       y       z     vdW  Elec       q    Type
REMARK                         _______ _______ _______ _____ _____    ______ ____
ROOT
ATOM      1  N   UNL     1       2.659   6.501  18.761  0.00  0.00    +0.000 N 
ATOM      2  C   UNL     1       2.379   6.045  20.037  0.00  0.00    +0.000 C 
ATOM      3  O   UNL     1       2.872   5.063  20.577  0.00  0.00    +0.000 OA
ATOM      4  H   UNL     1       2.262   7.391  18.472  0.00  0.00    +0.000 HD
ENDROOT
BRANCH   1  11
ATOM      5  C   UNL     1       3.313   4.578  17.366  0.00  0.00    +0.000 A 
ATOM      6  C   UNL     1       4.232   3.955  16.501  0.00  0.00    +0.000 A 
ATOM      7  C   UNL     1       5.361   4.643  16.068  0.00  0.00    +0.000 A 
ATOM      8 CL   UNL     1       6.464   3.898  14.982  0.00  0.00    +0.000 Cl
ATOM      9  C   UNL     1       5.594   5.942  16.501  0.00  0.00    +0.000 A 
ATOM     10  C   UNL     1       4.700   6.551  17.387  0.00  0.00    +0.000 A 
ATOM     11  C   UNL     1       3.547   5.890  17.839  0.00  0.00    +0.000 A 
BRANCH   5  13
ATOM     12  N   UNL     1       2.233   2.700  18.489  0.00  0.00    +0.000 N 
ATOM     13  C   UNL     1       2.087   3.794  17.672  0.00  0.00    +0.000 C 
ATOM     14  O   UNL     1       0.980   4.135  17.279  0.00  0.00    +0.000 OA
ATOM     15  H   UNL     1       1.358   2.333  18.848  0.00  0.00    +0.000 HD
ATOM     16  H   UNL     1       3.027   2.655  19.116  0.00  0.00    +0.000 HD
ENDBRANCH   5  13
ENDBRANCH   1  11
BRANCH   2  17
ATOM     17  C   UNL     1       1.466   6.940  20.791  0.00  0.00    +0.000 C 
ATOM     18  C   UNL     1       1.567   8.264  20.583  0.00  0.00    +0.000 C 
BRANCH  18  19
ATOM     19  C   UNL     1       0.624   9.211  21.179  0.00  0.00    +0.000 A 
ATOM     20  C   UNL     1       0.418   9.114  22.564  0.00  0.00    +0.000 A 
ATOM     21  C   UNL     1      -0.422  10.011  23.222  0.00  0.00    +0.000 A 
ATOM     22  C   UNL     1      -1.068  11.014  22.503  0.00  0.00    +0.000 A 
ATOM     23  C   UNL     1      -0.894  11.103  21.120  0.00  0.00    +0.000 A 
ATOM     24  C   UNL     1      -0.055  10.201  20.457  0.00  0.00    +0.000 A 
ATOM     25 BR   UNL     1       0.107  10.364  18.571  0.00  0.00    +0.000 Br
ENDBRANCH  18  19
ENDBRANCH   2  17
TORSDOF 4
ENDMDL
MODEL 4
REMARK VINA RESULT:      -7.7      5.521      7.594
REMARK  Name = 
REMARK  4 active torsions:
REMARK  status: ('A' for Active; 'I' for Inactive)
REMARK    1  A    between atoms: C_2  and  C_4
REMARK    2  A    between atoms: C_10  and  N_11
REMARK    3  A    between atoms: C_12  and  C_14
REMARK    4  A    between atoms: C_15  and  C_16
REMARK                            x       y       z     vdW  Elec       q    Type
REMARK                         _______ _______ _______ _____ _____    ______ ____
ROOT
ATOM      1  N   UNL     1       3.146   6.712  18.680  0.00  0.00    +0.000 N 
ATOM      2  C   UNL     1       2.410   7.870  18.499  0.00  0.00    +0.000 C 
ATOM      3  O   UNL     1       2.241   8.459  17.439  0.00  0.00    +0.000 OA
ATOM      4  H   UNL     1       3.118   6.264  19.592  0.00  0.00    +0.000 HD
ENDROOT
BRANCH   1  11
ATOM      5  C   UNL     1       3.533   4.685  17.334  0.00  0.00    +0.000 A 
ATOM      6  C   UNL     1       4.290   3.982  16.377  0.00  0.00    +0.000 A 
ATOM      7  C   UNL     1       5.343   4.610  15.721  0.00  0.00    +0.000 A 
ATOM      8 CL   UNL     1       6.243   3.766  14.525  0.00  0.00    +0.000 Cl
ATOM      9  C   UNL     1       5.664   5.928  16.020  0.00  0.00    +0.000 A 
ATOM     10  C   UNL     1       4.936   6.617  16.994  0.00  0.00    +0.000 A 
ATOM     11  C   UNL     1       3.861   6.018  17.671  0.00  0.00    +0.000 A 
BRANCH   5  13
ATOM     12  N   UNL     1       2.611   3.032  18.873  0.00  0.00    +0.000 N 
ATOM     13  C   UNL     1       2.362   3.955  17.888  0.00  0.00    +0.000 C 
ATOM     14  O   UNL     1       1.216   4.204  17.542  0.00  0.00    +0.000 OA
ATOM     15  H   UNL     1       1.781   2.727  19.372  0.00  0.00    +0.000 HD
ATOM     16  H   UNL     1       3.457   3.113  19.424  0.00  0.00    +0.000 HD
ENDBRANCH   5  13
ENDBRANCH   1  11
BRANCH   2  17
ATOM     17  C   UNL     1       1.712   8.318  19.730  0.00  0.00    +0.000 C 
ATOM     18  C   UNL     1       1.089   9.508  19.703  0.00  0.00    +0.000 C 
BRANCH  18  19
ATOM     19  C   UNL     1       0.267   9.972  20.821  0.00  0.00    +0.000 A 
ATOM     20  C   UNL     1       0.289   9.195  21.990  0.00  0.00    +0.000 A 
ATOM     21  C   UNL     1      -0.422   9.594  23.121  0.00  0.00    +0.000 A 
ATOM     22  C   UNL     1      -1.166  10.771  23.095  0.00  0.00    +0.000 A 
ATOM     23  C   UNL     1      -1.219  11.538  21.929  0.00  0.00    +0.000 A 
ATOM     24  C   UNL     1      -0.510  11.138  20.792  0.00  0.00    +0.000 A 
ATOM     25 BR   UNL     1      -0.657  12.213  19.233  0.00  0.00    +0.000 Br
ENDBRANCH  18  19
ENDBRANCH   2  17
TORSDOF 4
ENDMDL
MODEL 5
REMARK VINA RESULT:      -7.4      6.863      9.448
REMARK  Name = 
REMARK  4 active torsions:
REMARK  status: ('A' for Active; 'I' for Inactive)
REMARK    1  A    between atoms: C_2  and  C_4
REMARK    2  A    between atoms: C_10  and  N_11
REMARK    3  A    between atoms: C_12  and  C_14
REMARK    4  A    between atoms: C_15  and  C_16
REMARK                            x       y       z     vdW  Elec       q    Type
REMARK                         _______ _______ _______ _____ _____    ______ ____
ROOT
ATOM      1  N   UNL     1       0.507   9.456  19.031  0.00  0.00    +0.000 N 
ATOM      2  C   UNL     1       1.614   9.557  18.207  0.00  0.00    +0.000 C 
ATOM      3  O   UNL     1       2.274  10.567  18.006  0.00  0.00    +0.000 OA
ATOM      4  H   UNL     1       0.113   8.534  19.195  0.00  0.00    +0.000 HD
ENDROOT
BRANCH   1  11
ATOM      5  C   UNL     1      -1.108  11.309  19.207  0.00  0.00    +0.000 A 
ATOM      6  C   UNL     1      -1.638  12.402  19.919  0.00  0.00    +0.000 A 
ATOM      7  C   UNL     1      -1.182  12.688  21.201  0.00  0.00    +0.000 A 
ATOM      8 CL   UNL     1      -1.856  13.997  22.086  0.00  0.00    +0.000 Cl
ATOM      9  C   UNL     1      -0.189  11.906  21.778  0.00  0.00    +0.000 A 
ATOM     10  C   UNL     1       0.363  10.841  21.060  0.00  0.00    +0.000 A 
ATOM     11  C   UNL     1      -0.078  10.519  19.767  0.00  0.00    +0.000 A 
BRANCH   5  13
ATOM     12  N   UNL     1      -1.832  12.069  17.004  0.00  0.00    +0.000 N 
ATOM     13  C   UNL     1      -1.748  11.027  17.894  0.00  0.00    +0.000 C 
ATOM     14  O   UNL     1      -2.123   9.906  17.580  0.00  0.00    +0.000 OA
ATOM     15  H   UNL     1      -2.065  11.786  16.058  0.00  0.00    +0.000 HD
ATOM     16  H   UNL     1      -1.190  12.847  17.092  0.00  0.00    +0.000 HD
ENDBRANCH   5  13
ENDBRANCH   1  11
BRANCH   2  17
ATOM     17  C   UNL     1       2.035   8.255  17.631  0.00  0.00    +0.000 C 
ATOM     18  C   UNL     1       2.604   7.357  18.452  0.00  0.00    +0.000 C 
BRANCH  18  19
ATOM     19  C   UNL     1       2.930   6.003  18.004  0.00  0.00    +0.000 A 
ATOM     20  C   UNL     1       1.933   5.027  18.157  0.00  0.00    +0.000 A 
ATOM     21  C   UNL     1       2.140   3.723  17.708  0.00  0.00    +0.000 A 
ATOM     22  C   UNL     1       3.347   3.380  17.104  0.00  0.00    +0.000 A 
ATOM     23  C   UNL     1       4.358   4.334  16.972  0.00  0.00    +0.000 A 
ATOM     24  C   UNL     1       4.155   5.641  17.426  0.00  0.00    +0.000 A 
ATOM     25 BR   UNL     1       5.587   6.876  17.243  0.00  0.00    +0.000 Br
ENDBRANCH  18  19
ENDBRANCH   2  17
TORSDOF 4
ENDMDL
MODEL 6
REMARK VINA RESULT:      -7.4      5.657      7.706
REMARK  Name = 
REMARK  4 active torsions:
REMARK  status: ('A' for Active; 'I' for Inactive)
REMARK    1  A    between atoms: C_2  and  C_4
REMARK    2  A    between atoms: C_10  and  N_11
REMARK    3  A    between atoms: C_12  and  C_14
REMARK    4  A    between atoms: C_15  and  C_16
REMARK                            x       y       z     vdW  Elec       q    Type
REMARK                         _______ _______ _______ _____ _____    ______ ____
ROOT
ATOM      1  N   UNL     1       2.281   7.535  19.397  0.00  0.00    +0.000 N 
ATOM      2  C   UNL     1       2.494   6.197  19.674  0.00  0.00    +0.000 C 
ATOM      3  O   UNL     1       2.048   5.578  20.631  0.00  0.00    +0.000 OA
ATOM      4  H   UNL     1       2.619   7.902  18.512  0.00  0.00    +0.000 HD
ENDROOT
BRANCH   1  11
ATOM      5  C   UNL     1       0.886   9.555  19.616  0.00  0.00    +0.000 A 
ATOM      6  C   UNL     1       0.196  10.480  20.423  0.00  0.00    +0.000 A 
ATOM      7  C   UNL     1       0.105  10.278  21.795  0.00  0.00    +0.000 A 
ATOM      8 CL   UNL     1      -0.769  11.384  22.777  0.00  0.00    +0.000 Cl
ATOM      9  C   UNL     1       0.709   9.171  22.379  0.00  0.00    +0.000 A 
ATOM     10  C   UNL     1       1.423   8.269  21.584  0.00  0.00    +0.000 A 
ATOM     11  C   UNL     1       1.529   8.437  20.194  0.00  0.00    +0.000 A 
BRANCH   5  13
ATOM     12  N   UNL     1      -0.381  10.230  17.643  0.00  0.00    +0.000 N 
ATOM     13  C   UNL     1       0.822   9.808  18.152  0.00  0.00    +0.000 C 
ATOM     14  O   UNL     1       1.806   9.716  17.431  0.00  0.00    +0.000 OA
ATOM     15  H   UNL     1      -0.324  10.601  16.700  0.00  0.00    +0.000 HD
ATOM     16  H   UNL     1      -1.047  10.680  18.259  0.00  0.00    +0.000 HD
ENDBRANCH   5  13
ENDBRANCH   1  11
BRANCH   2  17
ATOM     17  C   UNL     1       3.260   5.495  18.613  0.00  0.00    +0.000 C 
ATOM     18  C   UNL     1       4.270   6.155  18.022  0.00  0.00    +0.000 C 
BRANCH  18  19
ATOM     19  C   UNL     1       5.160   5.502  17.063  0.00  0.00    +0.000 A 
ATOM     20  C   UNL     1       4.662   4.366  16.407  0.00  0.00    +0.000 A 
ATOM     21  C   UNL     1       5.424   3.713  15.438  0.00  0.00    +0.000 A 
ATOM     22  C   UNL     1       6.693   4.188  15.117  0.00  0.00    +0.000 A 
ATOM     23  C   UNL     1       7.212   5.300  15.783  0.00  0.00    +0.000 A 
ATOM     24  C   UNL     1       6.452   5.953  16.759  0.00  0.00    +0.000 A 
ATOM     25 BR   UNL     1       7.236   7.439  17.646  0.00  0.00    +0.000 Br
ENDBRANCH  18  19
ENDBRANCH   2  17
TORSDOF 4
ENDMDL
MODEL 7
REMARK VINA RESULT:      -7.4      6.495      8.577
REMARK  Name = 
REMARK  4 active torsions:
REMARK  status: ('A' for Active; 'I' for Inactive)
REMARK    1  A    between atoms: C_2  and  C_4
REMARK    2  A    between atoms: C_10  and  N_11
REMARK    3  A    between atoms: C_12  and  C_14
REMARK    4  A    between atoms: C_15  and  C_16
REMARK                            x       y       z     vdW  Elec       q    Type
REMARK                         _______ _______ _______ _____ _____    ______ ____
ROOT
ATOM      1  N   UNL     1       1.993   8.167  20.393  0.00  0.00    +0.000 N 
ATOM      2  C   UNL     1       1.949   6.785  20.330  0.00  0.00    +0.000 C 
ATOM      3  O   UNL     1       1.069   6.069  20.791  0.00  0.00    +0.000 OA
ATOM      4  H   UNL     1       2.724   8.647  19.876  0.00  0.00    +0.000 HD
ENDROOT
BRANCH   1  11
ATOM      5  C   UNL     1       0.335   9.987  20.308  0.00  0.00    +0.000 A 
ATOM      6  C   UNL     1      -0.564  10.851  20.963  0.00  0.00    +0.000 A 
ATOM      7  C   UNL     1      -0.801  10.709  22.326  0.00  0.00    +0.000 A 
ATOM      8 CL   UNL     1      -1.926  11.737  23.119  0.00  0.00    +0.000 Cl
ATOM      9  C   UNL     1      -0.138   9.726  23.050  0.00  0.00    +0.000 A 
ATOM     10  C   UNL     1       0.780   8.889  22.408  0.00  0.00    +0.000 A 
ATOM     11  C   UNL     1       1.038   8.998  21.032  0.00  0.00    +0.000 A 
BRANCH   5  13
ATOM     12  N   UNL     1       0.156  11.402  18.328  0.00  0.00    +0.000 N 
ATOM     13  C   UNL     1       0.425  10.154  18.833  0.00  0.00    +0.000 C 
ATOM     14  O   UNL     1       0.788   9.248  18.096  0.00  0.00    +0.000 OA
ATOM     15  H   UNL     1       0.442  11.527  17.362  0.00  0.00    +0.000 HD
ATOM     16  H   UNL     1       0.254  12.210  18.930  0.00  0.00    +0.000 HD
ENDBRANCH   5  13
ENDBRANCH   1  11
BRANCH   2  17
ATOM     17  C   UNL     1       3.051   6.200  19.527  0.00  0.00    +0.000 C 
ATOM     18  C   UNL     1       2.796   5.872  18.249  0.00  0.00    +0.000 C 
BRANCH  18  19
ATOM     19  C   UNL     1       3.852   5.414  17.346  0.00  0.00    +0.000 A 
ATOM     20  C   UNL     1       4.662   6.402  16.764  0.00  0.00    +0.000 A 
ATOM     21  C   UNL     1       5.725   6.050  15.933  0.00  0.00    +0.000 A 
ATOM     22  C   UNL     1       5.989   4.707  15.673  0.00  0.00    +0.000 A 
ATOM     23  C   UNL     1       5.173   3.716  16.223  0.00  0.00    +0.000 A 
ATOM     24  C   UNL     1       4.103   4.067  17.053  0.00  0.00    +0.000 A 
ATOM     25 BR   UNL     1       3.017   2.666  17.738  0.00  0.00    +0.000 Br
ENDBRANCH  18  19
ENDBRANCH   2  17
TORSDOF 4
ENDMDL
MODEL 8
REMARK VINA RESULT:      -7.3      6.886      9.286
REMARK  Name = 
REMARK  4 active torsions:
REMARK  status: ('A' for Active; 'I' for Inactive)
REMARK    1  A    between atoms: C_2  and  C_4
REMARK    2  A    between atoms: C_10  and  N_11
REMARK    3  A    between atoms: C_12  and  C_14
REMARK    4  A    between atoms: C_15  and  C_16
REMARK                            x       y       z     vdW  Elec       q    Type
REMARK                         _______ _______ _______ _____ _____    ______ ____
ROOT
ATOM      1  N   UNL     1       0.609   9.502  19.140  0.00  0.00    +0.000 N 
ATOM      2  C   UNL     1       1.677   9.851  18.331  0.00  0.00    +0.000 C 
ATOM      3  O   UNL     1       2.082  10.986  18.122  0.00  0.00    +0.000 OA
ATOM      4  H   UNL     1       0.443   8.515  19.314  0.00  0.00    +0.000 HD
ENDROOT
BRANCH   1  11
ATOM      5  C   UNL     1      -1.249  11.119  19.183  0.00  0.00    +0.000 A 
ATOM      6  C   UNL     1      -2.031  12.061  19.879  0.00  0.00    +0.000 A 
ATOM      7  C   UNL     1      -1.830  12.267  21.240  0.00  0.00    +0.000 A 
ATOM      8 CL   UNL     1      -2.808  13.388  22.098  0.00  0.00    +0.000 Cl
ATOM      9  C   UNL     1      -0.846  11.556  21.914  0.00  0.00    +0.000 A 
ATOM     10  C   UNL     1      -0.046  10.644  21.219  0.00  0.00    +0.000 A 
ATOM     11  C   UNL     1      -0.225  10.405  19.847  0.00  0.00    +0.000 A 
BRANCH   5  13
ATOM     12  N   UNL     1      -1.892  12.012  17.006  0.00  0.00    +0.000 N 
ATOM     13  C   UNL     1      -1.625  10.897  17.762  0.00  0.00    +0.000 C 
ATOM     14  O   UNL     1      -1.633   9.784  17.256  0.00  0.00    +0.000 OA
ATOM     15  H   UNL     1      -1.923  11.836  16.007  0.00  0.00    +0.000 HD
ATOM     16  H   UNL     1      -1.507  12.905  17.289  0.00  0.00    +0.000 HD
ENDBRANCH   5  13
ENDBRANCH   1  11
BRANCH   2  17
ATOM     17  C   UNL     1       2.405   8.678  17.786  0.00  0.00    +0.000 C 
ATOM     18  C   UNL     1       2.638   7.642  18.608  0.00  0.00    +0.000 C 
BRANCH  18  19
ATOM     19  C   UNL     1       3.230   6.394  18.126  0.00  0.00    +0.000 A 
ATOM     20  C   UNL     1       4.133   6.492  17.056  0.00  0.00    +0.000 A 
ATOM     21  C   UNL     1       4.784   5.359  16.569  0.00  0.00    +0.000 A 
ATOM     22  C   UNL     1       4.537   4.115  17.145  0.00  0.00    +0.000 A 
ATOM     23  C   UNL     1       3.620   4.000  18.191  0.00  0.00    +0.000 A 
ATOM     24  C   UNL     1       2.962   5.134  18.678  0.00  0.00    +0.000 A 
ATOM     25 BR   UNL     1       1.703   4.895  20.080  0.00  0.00    +0.000 Br
ENDBRANCH  18  19
ENDBRANCH   2  17
TORSDOF 4
ENDMDL
MODEL 9
REMARK VINA RESULT:      -7.3      1.815      1.923
REMARK  Name = 
REMARK  4 active torsions:
REMARK  status: ('A' for Active; 'I' for Inactive)
REMARK    1  A    between atoms: C_2  and  C_4
REMARK    2  A    between atoms: C_10  and  N_11
REMARK    3  A    between atoms: C_12  and  C_14
REMARK    4  A    between atoms: C_15  and  C_16
REMARK                            x       y       z     vdW  Elec       q    Type
REMARK                         _______ _______ _______ _____ _____    ______ ____
ROOT
ATOM      1  N   UNL     1       6.544   7.231  17.830  0.00  0.00    +0.000 N 
ATOM      2  C   UNL     1       7.811   7.460  18.336  0.00  0.00    +0.000 C 
ATOM      3  O   UNL     1       8.539   6.629  18.862  0.00  0.00    +0.000 OA
ATOM      4  H   UNL     1       6.088   7.983  17.321  0.00  0.00    +0.000 HD
ENDROOT
BRANCH   1  11
ATOM      5  C   UNL     1       5.375   5.399  16.669  0.00  0.00    +0.000 A 
ATOM      6  C   UNL     1       4.632   4.204  16.714  0.00  0.00    +0.000 A 
ATOM      7  C   UNL     1       4.396   3.573  17.931  0.00  0.00    +0.000 A 
ATOM      8 CL   UNL     1       3.523   2.094  17.984  0.00  0.00    +0.000 Cl
ATOM      9  C   UNL     1       4.878   4.129  19.109  0.00  0.00    +0.000 A 
ATOM     10  C   UNL     1       5.587   5.334  19.071  0.00  0.00    +0.000 A 
ATOM     11  C   UNL     1       5.851   5.994  17.860  0.00  0.00    +0.000 A 
BRANCH   5  13
ATOM     12  N   UNL     1       6.479   5.164  14.506  0.00  0.00    +0.000 N 
ATOM     13  C   UNL     1       5.664   5.924  15.309  0.00  0.00    +0.000 C 
ATOM     14  O   UNL     1       5.151   6.949  14.883  0.00  0.00    +0.000 OA
ATOM     15  H   UNL     1       6.468   5.438  13.529  0.00  0.00    +0.000 HD
ATOM     16  H   UNL     1       6.566   4.172  14.690  0.00  0.00    +0.000 HD
ENDBRANCH   5  13
ENDBRANCH   1  11
BRANCH   2  17
ATOM     17  C   UNL     1       8.299   8.840  18.089  0.00  0.00    +0.000 C 
ATOM     18  C   UNL     1       8.879   9.496  19.108  0.00  0.00    +0.000 C 
BRANCH  18  19
ATOM     19  C   UNL     1       9.506  10.805  18.924  0.00  0.00    +0.000 A 
ATOM     20  C   UNL     1      10.090  11.059  17.674  0.00  0.00    +0.000 A 
ATOM     21  C   UNL     1      10.662  12.300  17.395  0.00  0.00    +0.000 A 
ATOM     22  C   UNL     1      10.659  13.299  18.365  0.00  0.00    +0.000 A 
ATOM     23  C   UNL     1      10.106  13.050  19.623  0.00  0.00    +0.000 A 
ATOM     24  C   UNL     1       9.536  11.805  19.906  0.00  0.00    +0.000 A 
ATOM     25 BR   UNL     1       8.834  11.527  21.650  0.00  0.00    +0.000 Br
ENDBRANCH  18  19
ENDBRANCH   2  17
TORSDOF 4
ENDMDL
