MODEL 1
REMARK VINA RESULT:      -8.2      0.000      0.000
REMARK  Name = 
REMARK  7 active torsions:
REMARK  status: ('A' for Active; 'I' for Inactive)
REMARK    1  A    between atoms: C_1  and  C_2
REMARK    2  A    between atoms: C_2  and  C_12
REMARK    3  A    between atoms: C_3  and  C_4
REMARK    4  A    between atoms: C_4  and  N_5
REMARK    5  A    between atoms: C_16  and  O_17
REMARK    6  A    between atoms: O_17  and  C_18
REMARK    7  A    between atoms: C_18  and  C_19
REMARK                            x       y       z     vdW  Elec       q    Type
REMARK                         _______ _______ _______ _____ _____    ______ ____
ROOT
ATOM      1  C   UNL     1       4.884   5.613  17.895  0.00  0.00    +0.000 A 
ATOM      2  C   UNL     1       5.947   5.060  18.614  0.00  0.00    +0.000 A 
ATOM      3  C   UNL     1       7.136   4.723  17.967  0.00  0.00    +0.000 A 
ATOM      4  C   UNL     1       7.265   4.929  16.599  0.00  0.00    +0.000 A 
ATOM      5  C   UNL     1       6.195   5.436  15.856  0.00  0.00    +0.000 A 
ATOM      6  C   UNL     1       5.015   5.807  16.510  0.00  0.00    +0.000 A 
ENDROOT
BRANCH   1   8
ATOM      7  C   UNL     1       2.838   7.093  17.970  0.00  0.00    +0.000 C 
ATOM      8  C   UNL     1       3.662   6.014  18.616  0.00  0.00    +0.000 C 
ATOM      9  C   UNL     1       3.390   5.411  19.789  0.00  0.00    +0.000 C 
BRANCH   9  10
ATOM     10  C   UNL     1       2.234   5.706  20.699  0.00  0.00    +0.000 C 
BRANCH  10  11
ATOM     11  N   UNL     1       1.346   4.561  20.671  0.00  0.00    +0.000 N 
ATOM     12  O   UNL     1       0.923   4.167  19.360  0.00  0.00    +0.000 OA
ATOM     13  C   UNL     1       0.722   2.817  19.397  0.00  0.00    +0.000 A 
ATOM     14  O   UNL     1       0.358   2.134  18.449  0.00  0.00    +0.000 OA
ATOM     15  N   UNL     1       1.046   2.361  20.617  0.00  0.00    +0.000 N 
ATOM     16  C   UNL     1       1.625   3.359  21.317  0.00  0.00    +0.000 A 
ATOM     17  O   UNL     1       2.317   3.209  22.312  0.00  0.00    +0.000 OA
ATOM     18  H   UNL     1       1.135   1.386  20.837  0.00  0.00    +0.000 HD
ENDBRANCH  10  11
ENDBRANCH   9  10
ENDBRANCH   1   8
BRANCH   5  19
ATOM     19  O   UNL     1       6.219   5.597  14.494  0.00  0.00    +0.000 OA
BRANCH  19  20
ATOM     20  C   UNL     1       7.147   4.741  13.815  0.00  0.00    +0.000 C 
BRANCH  20  21
ATOM     21  C   UNL     1       6.411   3.868  12.835  0.00  0.00    +0.000 A 
ATOM     22  C   UNL     1       5.027   3.992  12.671  0.00  0.00    +0.000 A 
ATOM     23  C   UNL     1       4.351   3.167  11.773  0.00  0.00    +0.000 A 
ATOM     24  C   UNL     1       5.054   2.217  11.031  0.00  0.00    +0.000 A 
ATOM     25  C   UNL     1       6.434   2.097  11.176  0.00  0.00    +0.000 A 
ATOM     26  C   UNL     1       7.111   2.921  12.073  0.00  0.00    +0.000 A 
ENDBRANCH  20  21
ENDBRANCH  19  20
ENDBRANCH   5  19
TORSDOF 6
ENDMDL
MODEL 2
REMARK VINA RESULT:      -8.2      3.728      8.636
REMARK  Name = 
REMARK  7 active torsions:
REMARK  status: ('A' for Active; 'I' for Inactive)
REMARK    1  A    between atoms: C_1  and  C_2
REMARK    2  A    between atoms: C_2  and  C_12
REMARK    3  A    between atoms: C_3  and  C_4
REMARK    4  A    between atoms: C_4  and  N_5
REMARK    5  A    between atoms: C_16  and  O_17
REMARK    6  A    between atoms: O_17  and  C_18
REMARK    7  A    between atoms: C_18  and  C_19
REMARK                            x       y       z     vdW  Elec       q    Type
REMARK                         _______ _______ _______ _____ _____    ______ ____
ROOT
ATOM      1  C   UNL     1       2.793   4.648  18.512  0.00  0.00    +0.000 A 
ATOM      2  C   UNL     1       2.158   3.407  18.612  0.00  0.00    +0.000 A 
ATOM      3  C   UNL     1       1.134   3.213  19.539  0.00  0.00    +0.000 A 
ATOM      4  C   UNL     1       0.747   4.253  20.375  0.00  0.00    +0.000 A 
ATOM      5  C   UNL     1       1.405   5.486  20.321  0.00  0.00    +0.000 A 
ATOM      6  C   UNL     1       2.407   5.692  19.368  0.00  0.00    +0.000 A 
ENDROOT
BRANCH   1   8
ATOM      7  C   UNL     1       4.150   3.643  16.634  0.00  0.00    +0.000 C 
ATOM      8  C   UNL     1       3.831   4.841  17.482  0.00  0.00    +0.000 C 
ATOM      9  C   UNL     1       4.424   6.048  17.395  0.00  0.00    +0.000 C 
BRANCH   9  10
ATOM     10  C   UNL     1       5.530   6.436  16.460  0.00  0.00    +0.000 C 
BRANCH  10  11
ATOM     11  N   UNL     1       6.788   6.143  17.118  0.00  0.00    +0.000 N 
ATOM     12  O   UNL     1       6.772   6.322  18.540  0.00  0.00    +0.000 OA
ATOM     13  C   UNL     1       7.660   5.427  19.063  0.00  0.00    +0.000 A 
ATOM     14  O   UNL     1       7.906   5.292  20.253  0.00  0.00    +0.000 OA
ATOM     15  N   UNL     1       8.169   4.685  18.066  0.00  0.00    +0.000 N 
ATOM     16  C   UNL     1       7.494   4.959  16.930  0.00  0.00    +0.000 A 
ATOM     17  O   UNL     1       7.475   4.248  15.937  0.00  0.00    +0.000 OA
ATOM     18  H   UNL     1       8.718   3.858  18.217  0.00  0.00    +0.000 HD
ENDBRANCH  10  11
ENDBRANCH   9  10
ENDBRANCH   1   8
BRANCH   5  19
ATOM     19  O   UNL     1       1.131   6.534  21.163  0.00  0.00    +0.000 OA
BRANCH  19  20
ATOM     20  C   UNL     1       1.681   7.789  20.741  0.00  0.00    +0.000 C 
BRANCH  20  21
ATOM     21  C   UNL     1       0.777   8.911  21.176  0.00  0.00    +0.000 A 
ATOM     22  C   UNL     1       0.252   9.807  20.238  0.00  0.00    +0.000 A 
ATOM     23  C   UNL     1      -0.570  10.853  20.653  0.00  0.00    +0.000 A 
ATOM     24  C   UNL     1      -0.876  11.009  22.005  0.00  0.00    +0.000 A 
ATOM     25  C   UNL     1      -0.370  10.114  22.944  0.00  0.00    +0.000 A 
ATOM     26  C   UNL     1       0.452   9.066  22.532  0.00  0.00    +0.000 A 
ENDBRANCH  20  21
ENDBRANCH  19  20
ENDBRANCH   5  19
TORSDOF 6
ENDMDL
MODEL 3
REMARK VINA RESULT:      -8.1      4.307      8.410
REMARK  Name = 
REMARK  7 active torsions:
REMARK  status: ('A' for Active; 'I' for Inactive)
REMARK    1  A    between atoms: C_1  and  C_2
REMARK    2  A    between atoms: C_2  and  C_12
REMARK    3  A    between atoms: C_3  and  C_4
REMARK    4  A    between atoms: C_4  and  N_5
REMARK    5  A    between atoms: C_16  and  O_17
REMARK    6  A    between atoms: O_17  and  C_18
REMARK    7  A    between atoms: C_18  and  C_19
REMARK                            x       y       z     vdW  Elec       q    Type
REMARK                         _______ _______ _______ _____ _____    ______ ____
ROOT
ATOM      1  C   UNL     1       2.597   6.814  18.936  0.00  0.00    +0.000 A 
ATOM      2  C   UNL     1       2.258   6.047  20.054  0.00  0.00    +0.000 A 
ATOM      3  C   UNL     1       1.457   6.587  21.060  0.00  0.00    +0.000 A 
ATOM      4  C   UNL     1       0.999   7.895  20.960  0.00  0.00    +0.000 A 
ATOM      5  C   UNL     1       1.370   8.691  19.872  0.00  0.00    +0.000 A 
ATOM      6  C   UNL     1       2.144   8.140  18.845  0.00  0.00    +0.000 A 
ENDROOT
BRANCH   1   8
ATOM      7  C   UNL     1       3.099   4.757  17.560  0.00  0.00    +0.000 C 
ATOM      8  C   UNL     1       3.396   6.199  17.860  0.00  0.00    +0.000 C 
ATOM      9  C   UNL     1       4.333   6.953  17.253  0.00  0.00    +0.000 C 
BRANCH   9  10
ATOM     10  C   UNL     1       5.281   6.508  16.179  0.00  0.00    +0.000 C 
BRANCH  10  11
ATOM     11  N   UNL     1       6.471   5.992  16.826  0.00  0.00    +0.000 N 
ATOM     12  O   UNL     1       6.642   6.416  18.184  0.00  0.00    +0.000 OA
ATOM     13  C   UNL     1       7.302   5.413  18.833  0.00  0.00    +0.000 A 
ATOM     14  O   UNL     1       7.616   5.427  20.015  0.00  0.00    +0.000 OA
ATOM     15  N   UNL     1       7.492   4.394  17.981  0.00  0.00    +0.000 N 
ATOM     16  C   UNL     1       6.809   4.642  16.844  0.00  0.00    +0.000 A 
ATOM     17  O   UNL     1       6.502   3.802  16.012  0.00  0.00    +0.000 OA
ATOM     18  H   UNL     1       7.810   3.485  18.267  0.00  0.00    +0.000 HD
ENDBRANCH  10  11
ENDBRANCH   9  10
ENDBRANCH   1   8
BRANCH   5  19
ATOM     19  O   UNL     1       1.022  10.012  19.738  0.00  0.00    +0.000 OA
BRANCH  19  20
ATOM     20  C   UNL     1       0.707  10.407  18.397  0.00  0.00    +0.000 C 
BRANCH  20  21
ATOM     21  C   UNL     1      -0.779  10.606  18.262  0.00  0.00    +0.000 A 
ATOM     22  C   UNL     1      -1.523   9.831  17.366  0.00  0.00    +0.000 A 
ATOM     23  C   UNL     1      -2.895  10.034  17.235  0.00  0.00    +0.000 A 
ATOM     24  C   UNL     1      -3.533  11.010  18.000  0.00  0.00    +0.000 A 
ATOM     25  C   UNL     1      -2.804  11.777  18.906  0.00  0.00    +0.000 A 
ATOM     26  C   UNL     1      -1.431  11.575  19.039  0.00  0.00    +0.000 A 
ENDBRANCH  20  21
ENDBRANCH  19  20
ENDBRANCH   5  19
TORSDOF 6
ENDMDL
MODEL 4
REMARK VINA RESULT:      -8.0      3.175      7.476
REMARK  Name = 
REMARK  7 active torsions:
REMARK  status: ('A' for Active; 'I' for Inactive)
REMARK    1  A    between atoms: C_1  and  C_2
REMARK    2  A    between atoms: C_2  and  C_12
REMARK    3  A    between atoms: C_3  and  C_4
REMARK    4  A    between atoms: C_4  and  N_5
REMARK    5  A    between atoms: C_16  and  O_17
REMARK    6  A    between atoms: O_17  and  C_18
REMARK    7  A    between atoms: C_18  and  C_19
REMARK                            x       y       z     vdW  Elec       q    Type
REMARK                         _______ _______ _______ _____ _____    ______ ____
ROOT
ATOM      1  C   UNL     1       4.260   6.157  17.894  0.00  0.00    +0.000 A 
ATOM      2  C   UNL     1       3.778   7.354  17.359  0.00  0.00    +0.000 A 
ATOM      3  C   UNL     1       2.741   8.041  17.991  0.00  0.00    +0.000 A 
ATOM      4  C   UNL     1       2.176   7.531  19.153  0.00  0.00    +0.000 A 
ATOM      5  C   UNL     1       2.614   6.309  19.675  0.00  0.00    +0.000 A 
ATOM      6  C   UNL     1       3.677   5.639  19.062  0.00  0.00    +0.000 A 
ENDROOT
BRANCH   1   8
ATOM      7  C   UNL     1       6.765   5.939  17.657  0.00  0.00    +0.000 C 
ATOM      8  C   UNL     1       5.396   5.484  17.237  0.00  0.00    +0.000 C 
ATOM      9  C   UNL     1       5.128   4.545  16.309  0.00  0.00    +0.000 C 
BRANCH   9  10
ATOM     10  C   UNL     1       6.130   3.784  15.493  0.00  0.00    +0.000 C 
BRANCH  10  11
ATOM     11  N   UNL     1       6.435   4.575  14.317  0.00  0.00    +0.000 N 
ATOM     12  O   UNL     1       7.607   5.390  14.435  0.00  0.00    +0.000 OA
ATOM     13  C   UNL     1       8.140   5.503  13.183  0.00  0.00    +0.000 A 
ATOM     14  O   UNL     1       9.154   6.128  12.904  0.00  0.00    +0.000 OA
ATOM     15  N   UNL     1       7.407   4.771  12.330  0.00  0.00    +0.000 N 
ATOM     16  C   UNL     1       6.516   4.041  13.034  0.00  0.00    +0.000 A 
ATOM     17  O   UNL     1       5.934   3.052  12.617  0.00  0.00    +0.000 OA
ATOM     18  H   UNL     1       7.692   4.568  11.389  0.00  0.00    +0.000 HD
ENDBRANCH  10  11
ENDBRANCH   9  10
ENDBRANCH   1   8
BRANCH   5  19
ATOM     19  O   UNL     1       2.057   5.705  20.774  0.00  0.00    +0.000 OA
BRANCH  19  20
ATOM     20  C   UNL     1       1.191   4.605  20.466  0.00  0.00    +0.000 C 
BRANCH  20  21
ATOM     21  C   UNL     1       1.962   3.543  19.729  0.00  0.00    +0.000 A 
ATOM     22  C   UNL     1       3.026   2.876  20.346  0.00  0.00    +0.000 A 
ATOM     23  C   UNL     1       3.744   1.906  19.650  0.00  0.00    +0.000 A 
ATOM     24  C   UNL     1       3.402   1.593  18.334  0.00  0.00    +0.000 A 
ATOM     25  C   UNL     1       2.334   2.240  17.716  0.00  0.00    +0.000 A 
ATOM     26  C   UNL     1       1.614   3.210  18.411  0.00  0.00    +0.000 A 
ENDBRANCH  20  21
ENDBRANCH  19  20
ENDBRANCH   5  19
TORSDOF 6
ENDMDL
MODEL 5
REMARK VINA RESULT:      -8.0      3.629      8.630
REMARK  Name = 
REMARK  7 active torsions:
REMARK  status: ('A' for Active; 'I' for Inactive)
REMARK    1  A    between atoms: C_1  and  C_2
REMARK    2  A    between atoms: C_2  and  C_12
REMARK    3  A    between atoms: C_3  and  C_4
REMARK    4  A    between atoms: C_4  and  N_5
REMARK    5  A    between atoms: C_16  and  O_17
REMARK    6  A    between atoms: O_17  and  C_18
REMARK    7  A    between atoms: C_18  and  C_19
REMARK                            x       y       z     vdW  Elec       q    Type
REMARK                         _______ _______ _______ _____ _____    ______ ____
ROOT
ATOM      1  C   UNL     1       2.845   4.520  18.649  0.00  0.00    +0.000 A 
ATOM      2  C   UNL     1       2.612   3.212  19.084  0.00  0.00    +0.000 A 
ATOM      3  C   UNL     1       1.772   2.972  20.172  0.00  0.00    +0.000 A 
ATOM      4  C   UNL     1       1.171   4.035  20.835  0.00  0.00    +0.000 A 
ATOM      5  C   UNL     1       1.433   5.352  20.443  0.00  0.00    +0.000 A 
ATOM      6  C   UNL     1       2.246   5.592  19.330  0.00  0.00    +0.000 A 
ENDROOT
BRANCH   1   8
ATOM      7  C   UNL     1       3.938   3.536  16.596  0.00  0.00    +0.000 C 
ATOM      8  C   UNL     1       3.690   4.740  17.460  0.00  0.00    +0.000 C 
ATOM      9  C   UNL     1       4.186   5.975  17.252  0.00  0.00    +0.000 C 
BRANCH   9  10
ATOM     10  C   UNL     1       5.101   6.395  16.141  0.00  0.00    +0.000 C 
BRANCH  10  11
ATOM     11  N   UNL     1       6.455   6.053  16.530  0.00  0.00    +0.000 N 
ATOM     12  O   UNL     1       6.702   6.110  17.940  0.00  0.00    +0.000 OA
ATOM     13  C   UNL     1       7.661   5.177  18.213  0.00  0.00    +0.000 A 
ATOM     14  O   UNL     1       8.119   4.943  19.323  0.00  0.00    +0.000 OA
ATOM     15  N   UNL     1       7.969   4.525  17.082  0.00  0.00    +0.000 N 
ATOM     16  C   UNL     1       7.101   4.892  16.116  0.00  0.00    +0.000 A 
ATOM     17  O   UNL     1       6.892   4.268  15.087  0.00  0.00    +0.000 OA
ATOM     18  H   UNL     1       8.527   3.691  17.058  0.00  0.00    +0.000 HD
ENDBRANCH  10  11
ENDBRANCH   9  10
ENDBRANCH   1   8
BRANCH   5  19
ATOM     19  O   UNL     1       0.938   6.454  21.092  0.00  0.00    +0.000 OA
BRANCH  19  20
ATOM     20  C   UNL     1       1.653   7.667  20.825  0.00  0.00    +0.000 C 
BRANCH  20  21
ATOM     21  C   UNL     1       0.808   8.851  21.212  0.00  0.00    +0.000 A 
ATOM     22  C   UNL     1       0.467   9.076  22.550  0.00  0.00    +0.000 A 
ATOM     23  C   UNL     1      -0.330  10.166  22.897  0.00  0.00    +0.000 A 
ATOM     24  C   UNL     1      -0.789  11.038  21.910  0.00  0.00    +0.000 A 
ATOM     25  C   UNL     1      -0.443  10.831  20.577  0.00  0.00    +0.000 A 
ATOM     26  C   UNL     1       0.355   9.742  20.228  0.00  0.00    +0.000 A 
ENDBRANCH  20  21
ENDBRANCH  19  20
ENDBRANCH   5  19
TORSDOF 6
ENDMDL
MODEL 6
REMARK VINA RESULT:      -8.0      4.590      8.582
REMARK  Name = 
REMARK  7 active torsions:
REMARK  status: ('A' for Active; 'I' for Inactive)
REMARK    1  A    between atoms: C_1  and  C_2
REMARK    2  A    between atoms: C_2  and  C_12
REMARK    3  A    between atoms: C_3  and  C_4
REMARK    4  A    between atoms: C_4  and  N_5
REMARK    5  A    between atoms: C_16  and  O_17
REMARK    6  A    between atoms: O_17  and  C_18
REMARK    7  A    between atoms: C_18  and  C_19
REMARK                            x       y       z     vdW  Elec       q    Type
REMARK                         _______ _______ _______ _____ _____    ______ ____
ROOT
ATOM      1  C   UNL     1       2.276   7.205  19.246  0.00  0.00    +0.000 A 
ATOM      2  C   UNL     1       1.929   7.134  20.598  0.00  0.00    +0.000 A 
ATOM      3  C   UNL     1       1.212   8.170  21.196  0.00  0.00    +0.000 A 
ATOM      4  C   UNL     1       0.846   9.284  20.450  0.00  0.00    +0.000 A 
ATOM      5  C   UNL     1       1.228   9.393  19.109  0.00  0.00    +0.000 A 
ATOM      6  C   UNL     1       1.916   8.339  18.500  0.00  0.00    +0.000 A 
ENDROOT
BRANCH   1   8
ATOM      7  C   UNL     1       2.701   4.716  19.217  0.00  0.00    +0.000 C 
ATOM      8  C   UNL     1       2.983   6.069  18.626  0.00  0.00    +0.000 C 
ATOM      9  C   UNL     1       3.831   6.324  17.611  0.00  0.00    +0.000 C 
BRANCH   9  10
ATOM     10  C   UNL     1       4.681   5.326  16.883  0.00  0.00    +0.000 C 
BRANCH  10  11
ATOM     11  N   UNL     1       6.069   5.678  17.109  0.00  0.00    +0.000 N 
ATOM     12  O   UNL     1       6.431   6.989  16.660  0.00  0.00    +0.000 OA
ATOM     13  C   UNL     1       7.427   7.430  17.484  0.00  0.00    +0.000 A 
ATOM     14  O   UNL     1       7.980   8.518  17.399  0.00  0.00    +0.000 OA
ATOM     15  N   UNL     1       7.652   6.504  18.429  0.00  0.00    +0.000 N 
ATOM     16  C   UNL     1       6.699   5.552  18.344  0.00  0.00    +0.000 A 
ATOM     17  O   UNL     1       6.417   4.761  19.230  0.00  0.00    +0.000 OA
ATOM     18  H   UNL     1       8.222   6.668  19.239  0.00  0.00    +0.000 HD
ENDBRANCH  10  11
ENDBRANCH   9  10
ENDBRANCH   1   8
BRANCH   5  19
ATOM     19  O   UNL     1       0.970  10.492  18.329  0.00  0.00    +0.000 OA
BRANCH  19  20
ATOM     20  C   UNL     1       0.017  11.403  18.890  0.00  0.00    +0.000 C 
BRANCH  20  21
ATOM     21  C   UNL     1      -1.354  11.104  18.345  0.00  0.00    +0.000 A 
ATOM     22  C   UNL     1      -2.471  11.815  18.796  0.00  0.00    +0.000 A 
ATOM     23  C   UNL     1      -3.738  11.519  18.298  0.00  0.00    +0.000 A 
ATOM     24  C   UNL     1      -3.897  10.513  17.344  0.00  0.00    +0.000 A 
ATOM     25  C   UNL     1      -2.789   9.810  16.878  0.00  0.00    +0.000 A 
ATOM     26  C   UNL     1      -1.521  10.105  17.374  0.00  0.00    +0.000 A 
ENDBRANCH  20  21
ENDBRANCH  19  20
ENDBRANCH   5  19
TORSDOF 6
ENDMDL
MODEL 7
REMARK VINA RESULT:      -8.0      4.816      9.569
REMARK  Name = 
REMARK  7 active torsions:
REMARK  status: ('A' for Active; 'I' for Inactive)
REMARK    1  A    between atoms: C_1  and  C_2
REMARK    2  A    between atoms: C_2  and  C_12
REMARK    3  A    between atoms: C_3  and  C_4
REMARK    4  A    between atoms: C_4  and  N_5
REMARK    5  A    between atoms: C_16  and  O_17
REMARK    6  A    between atoms: O_17  and  C_18
REMARK    7  A    between atoms: C_18  and  C_19
REMARK                            x       y       z     vdW  Elec       q    Type
REMARK                         _______ _______ _______ _____ _____    ______ ____
ROOT
ATOM      1  C   UNL     1       2.444   7.103  19.312  0.00  0.00    +0.000 A 
ATOM      2  C   UNL     1       2.572   7.732  18.070  0.00  0.00    +0.000 A 
ATOM      3  C   UNL     1       1.973   8.971  17.845  0.00  0.00    +0.000 A 
ATOM      4  C   UNL     1       1.237   9.582  18.852  0.00  0.00    +0.000 A 
ATOM      5  C   UNL     1       1.059   8.944  20.084  0.00  0.00    +0.000 A 
ATOM      6  C   UNL     1       1.689   7.719  20.323  0.00  0.00    +0.000 A 
ENDROOT
BRANCH   1   8
ATOM      7  C   UNL     1       2.479   4.879  20.510  0.00  0.00    +0.000 C 
ATOM      8  C   UNL     1       3.137   5.821  19.541  0.00  0.00    +0.000 C 
ATOM      9  C   UNL     1       4.299   5.603  18.896  0.00  0.00    +0.000 C 
BRANCH   9  10
ATOM     10  C   UNL     1       5.182   4.398  19.028  0.00  0.00    +0.000 C 
BRANCH  10  11
ATOM     11  N   UNL     1       5.926   4.258  17.792  0.00  0.00    +0.000 N 
ATOM     12  O   UNL     1       5.303   4.859  16.650  0.00  0.00    +0.000 OA
ATOM     13  C   UNL     1       6.307   5.258  15.815  0.00  0.00    +0.000 A 
ATOM     14  O   UNL     1       6.146   5.818  14.739  0.00  0.00    +0.000 OA
ATOM     15  N   UNL     1       7.488   4.992  16.394  0.00  0.00    +0.000 N 
ATOM     16  C   UNL     1       7.271   4.594  17.665  0.00  0.00    +0.000 A 
ATOM     17  O   UNL     1       8.111   4.589  18.552  0.00  0.00    +0.000 OA
ATOM     18  H   UNL     1       8.364   5.338  16.048  0.00  0.00    +0.000 HD
ENDBRANCH  10  11
ENDBRANCH   9  10
ENDBRANCH   1   8
BRANCH   5  19
ATOM     19  O   UNL     1       0.287   9.448  21.100  0.00  0.00    +0.000 OA
BRANCH  19  20
ATOM     20  C   UNL     1       0.484  10.845  21.354  0.00  0.00    +0.000 C 
BRANCH  20  21
ATOM     21  C   UNL     1      -0.841  11.501  21.640  0.00  0.00    +0.000 A 
ATOM     22  C   UNL     1      -1.358  11.527  22.940  0.00  0.00    +0.000 A 
ATOM     23  C   UNL     1      -2.592  12.122  23.191  0.00  0.00    +0.000 A 
ATOM     24  C   UNL     1      -3.317  12.698  22.148  0.00  0.00    +0.000 A 
ATOM     25  C   UNL     1      -2.804  12.690  20.853  0.00  0.00    +0.000 A 
ATOM     26  C   UNL     1      -1.568  12.096  20.599  0.00  0.00    +0.000 A 
ENDBRANCH  20  21
ENDBRANCH  19  20
ENDBRANCH   5  19
TORSDOF 6
ENDMDL
MODEL 8
REMARK VINA RESULT:      -7.9      4.534      8.073
REMARK  Name = 
REMARK  7 active torsions:
REMARK  status: ('A' for Active; 'I' for Inactive)
REMARK    1  A    between atoms: C_1  and  C_2
REMARK    2  A    between atoms: C_2  and  C_12
REMARK    3  A    between atoms: C_3  and  C_4
REMARK    4  A    between atoms: C_4  and  N_5
REMARK    5  A    between atoms: C_16  and  O_17
REMARK    6  A    between atoms: O_17  and  C_18
REMARK    7  A    between atoms: C_18  and  C_19
REMARK                            x       y       z     vdW  Elec       q    Type
REMARK                         _______ _______ _______ _____ _____    ______ ____
ROOT
ATOM      1  C   UNL     1       1.666   8.155  19.690  0.00  0.00    +0.000 A 
ATOM      2  C   UNL     1       1.420   7.930  21.048  0.00  0.00    +0.000 A 
ATOM      3  C   UNL     1       0.538   8.753  21.749  0.00  0.00    +0.000 A 
ATOM      4  C   UNL     1      -0.094   9.808  21.101  0.00  0.00    +0.000 A 
ATOM      5  C   UNL     1       0.179  10.075  19.755  0.00  0.00    +0.000 A 
ATOM      6  C   UNL     1       1.036   9.230  19.043  0.00  0.00    +0.000 A 
ENDROOT
BRANCH   1   8
ATOM      7  C   UNL     1       3.163   7.766  17.693  0.00  0.00    +0.000 C 
ATOM      8  C   UNL     1       2.558   7.233  18.962  0.00  0.00    +0.000 C 
ATOM      9  C   UNL     1       2.742   5.997  19.465  0.00  0.00    +0.000 C 
BRANCH   9  10
ATOM     10  C   UNL     1       3.561   4.898  18.856  0.00  0.00    +0.000 C 
BRANCH  10  11
ATOM     11  N   UNL     1       3.114   3.644  19.430  0.00  0.00    +0.000 N 
ATOM     12  O   UNL     1       2.844   3.695  20.836  0.00  0.00    +0.000 OA
ATOM     13  C   UNL     1       1.855   2.787  21.083  0.00  0.00    +0.000 A 
ATOM     14  O   UNL     1       1.366   2.561  22.181  0.00  0.00    +0.000 OA
ATOM     15  N   UNL     1       1.472   2.232  19.922  0.00  0.00    +0.000 N 
ATOM     16  C   UNL     1       2.065   2.893  18.906  0.00  0.00    +0.000 A 
ATOM     17  O   UNL     1       1.696   2.867  17.742  0.00  0.00    +0.000 OA
ATOM     18  H   UNL     1       0.655   1.658  19.827  0.00  0.00    +0.000 HD
ENDBRANCH  10  11
ENDBRANCH   9  10
ENDBRANCH   1   8
BRANCH   5  19
ATOM     19  O   UNL     1      -0.346  11.140  19.068  0.00  0.00    +0.000 OA
BRANCH  19  20
ATOM     20  C   UNL     1      -1.751  11.338  19.268  0.00  0.00    +0.000 C 
BRANCH  20  21
ATOM     21  C   UNL     1      -2.492  11.054  17.989  0.00  0.00    +0.000 A 
ATOM     22  C   UNL     1      -3.753  11.613  17.757  0.00  0.00    +0.000 A 
ATOM     23  C   UNL     1      -4.439  11.331  16.577  0.00  0.00    +0.000 A 
ATOM     24  C   UNL     1      -3.868  10.491  15.620  0.00  0.00    +0.000 A 
ATOM     25  C   UNL     1      -2.606   9.942  15.835  0.00  0.00    +0.000 A 
ATOM     26  C   UNL     1      -1.919  10.223  17.015  0.00  0.00    +0.000 A 
ENDBRANCH  20  21
ENDBRANCH  19  20
ENDBRANCH   5  19
TORSDOF 6
ENDMDL
MODEL 9
REMARK VINA RESULT:      -7.9      4.911      9.736
REMARK  Name = 
REMARK  7 active torsions:
REMARK  status: ('A' for Active; 'I' for Inactive)
REMARK    1  A    between atoms: C_1  and  C_2
REMARK    2  A    between atoms: C_2  and  C_12
REMARK    3  A    between atoms: C_3  and  C_4
REMARK    4  A    between atoms: C_4  and  N_5
REMARK    5  A    between atoms: C_16  and  O_17
REMARK    6  A    between atoms: O_17  and  C_18
REMARK    7  A    between atoms: C_18  and  C_19
REMARK                            x       y       z     vdW  Elec       q    Type
REMARK                         _______ _______ _______ _____ _____    ______ ____
ROOT
ATOM      1  C   UNL     1       2.497   7.510  18.804  0.00  0.00    +0.000 A 
ATOM      2  C   UNL     1       2.471   8.398  17.725  0.00  0.00    +0.000 A 
ATOM      3  C   UNL     1       1.737   9.582  17.806  0.00  0.00    +0.000 A 
ATOM      4  C   UNL     1       1.019   9.878  18.957  0.00  0.00    +0.000 A 
ATOM      5  C   UNL     1       0.995   8.977  20.027  0.00  0.00    +0.000 A 
ATOM      6  C   UNL     1       1.759   7.808  19.961  0.00  0.00    +0.000 A 
ENDROOT
BRANCH   1   8
ATOM      7  C   UNL     1       3.260   5.359  19.886  0.00  0.00    +0.000 C 
ATOM      8  C   UNL     1       3.329   6.296  18.713  0.00  0.00    +0.000 C 
ATOM      9  C   UNL     1       4.094   6.130  17.616  0.00  0.00    +0.000 C 
BRANCH   9  10
ATOM     10  C   UNL     1       5.044   5.000  17.352  0.00  0.00    +0.000 C 
BRANCH  10  11
ATOM     11  N   UNL     1       6.392   5.513  17.501  0.00  0.00    +0.000 N 
ATOM     12  O   UNL     1       6.643   6.741  16.808  0.00  0.00    +0.000 OA
ATOM     13  C   UNL     1       7.584   7.419  17.529  0.00  0.00    +0.000 A 
ATOM     14  O   UNL     1       8.039   8.516  17.236  0.00  0.00    +0.000 OA
ATOM     15  N   UNL     1       7.878   6.714  18.633  0.00  0.00    +0.000 N 
ATOM     16  C   UNL     1       7.015   5.681  18.735  0.00  0.00    +0.000 A 
ATOM     17  O   UNL     1       6.792   5.052  19.757  0.00  0.00    +0.000 OA
ATOM     18  H   UNL     1       8.420   7.080  19.395  0.00  0.00    +0.000 HD
ENDBRANCH  10  11
ENDBRANCH   9  10
ENDBRANCH   1   8
BRANCH   5  19
ATOM     19  O   UNL     1       0.251   9.163  21.165  0.00  0.00    +0.000 OA
BRANCH  19  20
ATOM     20  C   UNL     1       0.494  10.408  21.832  0.00  0.00    +0.000 C 
BRANCH  20  21
ATOM     21  C   UNL     1      -0.789  11.188  21.936  0.00  0.00    +0.000 A 
ATOM     22  C   UNL     1      -1.322  11.835  20.815  0.00  0.00    +0.000 A 
ATOM     23  C   UNL     1      -2.502  12.569  20.925  0.00  0.00    +0.000 A 
ATOM     24  C   UNL     1      -3.158  12.658  22.152  0.00  0.00    +0.000 A 
ATOM     25  C   UNL     1      -2.644  12.005  23.270  0.00  0.00    +0.000 A 
ATOM     26  C   UNL     1      -1.464  11.270  23.162  0.00  0.00    +0.000 A 
ENDBRANCH  20  21
ENDBRANCH  19  20
ENDBRANCH   5  19
TORSDOF 6
ENDMDL
