MODEL 1
REMARK VINA RESULT:      -8.4      0.000      0.000
REMARK  Name = 
REMARK  5 active torsions:
REMARK  status: ('A' for Active; 'I' for Inactive)
REMARK    1  A    between atoms: C_4  and  C_5
REMARK    2  A    between atoms: C_10  and  C_11
REMARK    3  A    between atoms: N_17  and  C_18
REMARK    4  A    between atoms: C_18  and  N_19
REMARK    5  A    between atoms: N_22  and  C_23
REMARK                            x       y       z     vdW  Elec       q    Type
REMARK                         _______ _______ _______ _____ _____    ______ ____
ROOT
ATOM      1  O   UNL     1       0.955   3.555  18.027  0.00  0.00    +0.000 OA
ATOM      2  C   UNL     1       2.041   4.050  17.764  0.00  0.00    +0.000 C 
ATOM      3  C   UNL     1       3.153   3.340  17.052  0.00  0.00    +0.000 C 
ATOM      4  C   UNL     1       4.396   4.110  17.486  0.00  0.00    +0.000 C 
ATOM      5  C   UNL     1       3.799   5.379  18.101  0.00  0.00    +0.000 C 
ATOM      6  O   UNL     1       4.459   6.266  18.624  0.00  0.00    +0.000 OA
ATOM      7  N   UNL     1       2.441   5.322  18.006  0.00  0.00    +0.000 N 
ENDROOT
BRANCH   4   8
ATOM      8  C   UNL     1       5.356   4.349  16.321  0.00  0.00    +0.000 A 
ATOM      9  C   UNL     1       4.859   4.221  15.004  0.00  0.00    +0.000 A 
ATOM     10  C   UNL     1       5.671   4.388  13.885  0.00  0.00    +0.000 A 
ATOM     11  C   UNL     1       7.018   4.672  14.044  0.00  0.00    +0.000 A 
ATOM     12  C   UNL     1       7.543   4.796  15.327  0.00  0.00    +0.000 A 
ATOM     13  C   UNL     1       6.735   4.644  16.481  0.00  0.00    +0.000 A 
BRANCH  13  14
ATOM     14  C   UNL     1       7.462   4.822  17.801  0.00  0.00    +0.000 C 
ATOM     15  F   UNL     1       6.742   4.495  18.907  0.00  0.00    +0.000 F 
ATOM     16  F   UNL     1       8.593   4.060  17.866  0.00  0.00    +0.000 F 
ATOM     17  F   UNL     1       7.875   6.105  17.993  0.00  0.00    +0.000 F 
ENDBRANCH  13  14
ENDBRANCH   4   8
BRANCH   7  18
ATOM     18  C   UNL     1       1.534   6.395  18.388  0.00  0.00    +0.000 C 
BRANCH  18  19
ATOM     19  N   UNL     1       2.325   7.539  18.874  0.00  0.00    +0.000 NA
ATOM     20  C   UNL     1       2.268   8.741  18.017  0.00  0.00    +0.000 C 
ATOM     21  C   UNL     1       0.920   9.489  17.992  0.00  0.00    +0.000 C 
ATOM     22  N   UNL     1       0.473   9.866  19.346  0.00  0.00    +0.000 N 
ATOM     23  C   UNL     1       0.680   8.867  20.418  0.00  0.00    +0.000 C 
ATOM     24  C   UNL     1       1.941   7.971  20.235  0.00  0.00    +0.000 C 
BRANCH  22  25
ATOM     25  C   UNL     1      -0.626  10.739  19.468  0.00  0.00    +0.000 A 
ATOM     26  C   UNL     1      -1.572  10.861  18.441  0.00  0.00    +0.000 A 
ATOM     27  C   UNL     1      -2.723  11.662  18.560  0.00  0.00    +0.000 A 
ATOM     28  C   UNL     1      -2.956  12.367  19.730  0.00  0.00    +0.000 A 
ATOM     29  C   UNL     1      -2.035  12.278  20.763  0.00  0.00    +0.000 A 
ATOM     30 CL   UNL     1      -2.310  13.148  22.224  0.00  0.00    +0.000 Cl
ATOM     31  C   UNL     1      -0.890  11.473  20.638  0.00  0.00    +0.000 A 
ENDBRANCH  22  25
ENDBRANCH  18  19
ENDBRANCH   7  18
TORSDOF 5
ENDMDL
MODEL 2
REMARK VINA RESULT:      -8.3      2.316      4.026
REMARK  Name = 
REMARK  5 active torsions:
REMARK  status: ('A' for Active; 'I' for Inactive)
REMARK    1  A    between atoms: C_4  and  C_5
REMARK    2  A    between atoms: C_10  and  C_11
REMARK    3  A    between atoms: N_17  and  C_18
REMARK    4  A    between atoms: C_18  and  N_19
REMARK    5  A    between atoms: N_22  and  C_23
REMARK                            x       y       z     vdW  Elec       q    Type
REMARK                         _______ _______ _______ _____ _____    ______ ____
ROOT
ATOM      1  O   UNL     1       1.047   8.616  21.748  0.00  0.00    +0.000 OA
ATOM      2  C   UNL     1       1.428   8.163  20.679  0.00  0.00    +0.000 C 
ATOM      3  C   UNL     1       2.261   6.927  20.523  0.00  0.00    +0.000 C 
ATOM      4  C   UNL     1       2.931   7.122  19.168  0.00  0.00    +0.000 C 
ATOM      5  C   UNL     1       2.119   8.270  18.562  0.00  0.00    +0.000 C 
ATOM      6  O   UNL     1       2.356   8.784  17.477  0.00  0.00    +0.000 OA
ATOM      7  N   UNL     1       1.145   8.638  19.442  0.00  0.00    +0.000 N 
ENDROOT
BRANCH   4   8
ATOM      8  C   UNL     1       2.940   5.835  18.343  0.00  0.00    +0.000 A 
ATOM      9  C   UNL     1       1.759   5.060  18.296  0.00  0.00    +0.000 A 
ATOM     10  C   UNL     1       1.688   3.857  17.598  0.00  0.00    +0.000 A 
ATOM     11  C   UNL     1       2.806   3.375  16.935  0.00  0.00    +0.000 A 
ATOM     12  C   UNL     1       3.988   4.109  16.967  0.00  0.00    +0.000 A 
ATOM     13  C   UNL     1       4.081   5.342  17.659  0.00  0.00    +0.000 A 
BRANCH  13  14
ATOM     14  C   UNL     1       5.438   6.018  17.586  0.00  0.00    +0.000 C 
ATOM     15  F   UNL     1       6.308   5.474  16.692  0.00  0.00    +0.000 F 
ATOM     16  F   UNL     1       5.334   7.333  17.236  0.00  0.00    +0.000 F 
ATOM     17  F   UNL     1       6.084   6.008  18.784  0.00  0.00    +0.000 F 
ENDBRANCH  13  14
ENDBRANCH   4   8
BRANCH   7  18
ATOM     18  C   UNL     1       0.109   9.626  19.172  0.00  0.00    +0.000 C 
BRANCH  18  19
ATOM     19  N   UNL     1       0.697  10.973  19.268  0.00  0.00    +0.000 NA
ATOM     20  C   UNL     1      -0.120  12.049  18.669  0.00  0.00    +0.000 C 
ATOM     21  C   UNL     1      -1.425  12.399  19.415  0.00  0.00    +0.000 C 
ATOM     22  N   UNL     1      -1.178  12.738  20.828  0.00  0.00    +0.000 N 
ATOM     23  C   UNL     1      -0.181  11.914  21.547  0.00  0.00    +0.000 C 
ATOM     24  C   UNL     1       0.983  11.383  20.659  0.00  0.00    +0.000 C 
BRANCH  22  25
ATOM     25  C   UNL     1      -2.237  13.287  21.578  0.00  0.00    +0.000 A 
ATOM     26  C   UNL     1      -2.888  14.457  21.164  0.00  0.00    +0.000 A 
ATOM     27  C   UNL     1      -4.000  14.989  21.843  0.00  0.00    +0.000 A 
ATOM     28  C   UNL     1      -4.493  14.349  22.969  0.00  0.00    +0.000 A 
ATOM     29  C   UNL     1      -3.867  13.193  23.413  0.00  0.00    +0.000 A 
ATOM     30 CL   UNL     1      -4.468  12.385  24.810  0.00  0.00    +0.000 Cl
ATOM     31  C   UNL     1      -2.760  12.667  22.727  0.00  0.00    +0.000 A 
ENDBRANCH  22  25
ENDBRANCH  18  19
ENDBRANCH   7  18
TORSDOF 5
ENDMDL
MODEL 3
REMARK VINA RESULT:      -8.2      0.996      1.474
REMARK  Name = 
REMARK  5 active torsions:
REMARK  status: ('A' for Active; 'I' for Inactive)
REMARK    1  A    between atoms: C_4  and  C_5
REMARK    2  A    between atoms: C_10  and  C_11
REMARK    3  A    between atoms: N_17  and  C_18
REMARK    4  A    between atoms: C_18  and  N_19
REMARK    5  A    between atoms: N_22  and  C_23
REMARK                            x       y       z     vdW  Elec       q    Type
REMARK                         _______ _______ _______ _____ _____    ______ ____
ROOT
ATOM      1  O   UNL     1       1.104   3.421  18.400  0.00  0.00    +0.000 OA
ATOM      2  C   UNL     1       2.152   3.957  18.069  0.00  0.00    +0.000 C 
ATOM      3  C   UNL     1       3.271   3.270  17.347  0.00  0.00    +0.000 C 
ATOM      4  C   UNL     1       4.488   4.123  17.692  0.00  0.00    +0.000 C 
ATOM      5  C   UNL     1       3.848   5.390  18.267  0.00  0.00    +0.000 C 
ATOM      6  O   UNL     1       4.479   6.335  18.719  0.00  0.00    +0.000 OA
ATOM      7  N   UNL     1       2.492   5.258  18.232  0.00  0.00    +0.000 N 
ENDROOT
BRANCH   4   8
ATOM      8  C   UNL     1       5.388   4.352  16.478  0.00  0.00    +0.000 A 
ATOM      9  C   UNL     1       4.826   4.209  15.189  0.00  0.00    +0.000 A 
ATOM     10  C   UNL     1       5.581   4.366  14.028  0.00  0.00    +0.000 A 
ATOM     11  C   UNL     1       6.934   4.653  14.117  0.00  0.00    +0.000 A 
ATOM     12  C   UNL     1       7.522   4.792  15.371  0.00  0.00    +0.000 A 
ATOM     13  C   UNL     1       6.772   4.651  16.566  0.00  0.00    +0.000 A 
BRANCH  13  14
ATOM     14  C   UNL     1       7.564   4.844  17.845  0.00  0.00    +0.000 C 
ATOM     15  F   UNL     1       8.690   4.088  17.949  0.00  0.00    +0.000 F 
ATOM     16  F   UNL     1       7.978   6.135  17.999  0.00  0.00    +0.000 F 
ATOM     17  F   UNL     1       6.826   4.563  18.955  0.00  0.00    +0.000 F 
ENDBRANCH  13  14
ENDBRANCH   4   8
BRANCH   7  18
ATOM     18  C   UNL     1       1.544   6.302  18.597  0.00  0.00    +0.000 C 
BRANCH  18  19
ATOM     19  N   UNL     1       2.291   7.509  18.993  0.00  0.00    +0.000 NA
ATOM     20  C   UNL     1       2.157   8.652  18.067  0.00  0.00    +0.000 C 
ATOM     21  C   UNL     1       0.774   9.334  18.034  0.00  0.00    +0.000 C 
ATOM     22  N   UNL     1       0.343   9.772  19.374  0.00  0.00    +0.000 N 
ATOM     23  C   UNL     1       0.623   8.851  20.499  0.00  0.00    +0.000 C 
ATOM     24  C   UNL     1       1.921   8.005  20.335  0.00  0.00    +0.000 C 
BRANCH  22  25
ATOM     25  C   UNL     1      -0.794  10.600  19.474  0.00  0.00    +0.000 A 
ATOM     26  C   UNL     1      -0.970  11.460  20.566  0.00  0.00    +0.000 A 
ATOM     27  C   UNL     1      -2.050  12.357  20.660  0.00  0.00    +0.000 A 
ATOM     28  C   UNL     1      -2.990  12.415  19.643  0.00  0.00    +0.000 A 
ATOM     29  C   UNL     1      -2.852  11.570  18.550  0.00  0.00    +0.000 A 
ATOM     30 CL   UNL     1      -4.012  11.630  17.279  0.00  0.00    +0.000 Cl
ATOM     31  C   UNL     1      -1.769  10.680  18.464  0.00  0.00    +0.000 A 
ENDBRANCH  22  25
ENDBRANCH  18  19
ENDBRANCH   7  18
TORSDOF 5
ENDMDL
MODEL 4
REMARK VINA RESULT:      -8.1      5.709     10.342
REMARK  Name = 
REMARK  5 active torsions:
REMARK  status: ('A' for Active; 'I' for Inactive)
REMARK    1  A    between atoms: C_4  and  C_5
REMARK    2  A    between atoms: C_10  and  C_11
REMARK    3  A    between atoms: N_17  and  C_18
REMARK    4  A    between atoms: C_18  and  N_19
REMARK    5  A    between atoms: N_22  and  C_23
REMARK                            x       y       z     vdW  Elec       q    Type
REMARK                         _______ _______ _______ _____ _____    ______ ____
ROOT
ATOM      1  O   UNL     1       1.292  12.442  18.355  0.00  0.00    +0.000 OA
ATOM      2  C   UNL     1       0.321  12.099  19.015  0.00  0.00    +0.000 C 
ATOM      3  C   UNL     1      -0.653  13.041  19.654  0.00  0.00    +0.000 C 
ATOM      4  C   UNL     1      -1.262  12.209  20.778  0.00  0.00    +0.000 C 
ATOM      5  C   UNL     1      -0.822  10.789  20.411  0.00  0.00    +0.000 C 
ATOM      6  O   UNL     1      -1.062   9.798  21.086  0.00  0.00    +0.000 OA
ATOM      7  N   UNL     1      -0.097  10.833  19.257  0.00  0.00    +0.000 N 
ENDROOT
BRANCH   4   8
ATOM      8  C   UNL     1      -2.774  12.408  20.882  0.00  0.00    +0.000 A 
ATOM      9  C   UNL     1      -3.516  12.549  19.687  0.00  0.00    +0.000 A 
ATOM     10  C   UNL     1      -4.892  12.767  19.690  0.00  0.00    +0.000 A 
ATOM     11  C   UNL     1      -5.573  12.872  20.893  0.00  0.00    +0.000 A 
ATOM     12  C   UNL     1      -4.872  12.747  22.089  0.00  0.00    +0.000 A 
ATOM     13  C   UNL     1      -3.475  12.511  22.112  0.00  0.00    +0.000 A 
BRANCH  13  14
ATOM     14  C   UNL     1      -2.868  12.390  23.497  0.00  0.00    +0.000 C 
ATOM     15  F   UNL     1      -1.943  13.337  23.809  0.00  0.00    +0.000 F 
ATOM     16  F   UNL     1      -3.815  12.472  24.477  0.00  0.00    +0.000 F 
ATOM     17  F   UNL     1      -2.249  11.192  23.686  0.00  0.00    +0.000 F 
ENDBRANCH  13  14
ENDBRANCH   4   8
BRANCH   7  18
ATOM     18  C   UNL     1       0.400   9.666  18.541  0.00  0.00    +0.000 C 
BRANCH  18  19
ATOM     19  N   UNL     1       1.817   9.461  18.887  0.00  0.00    +0.000 NA
ATOM     20  C   UNL     1       2.051   8.897  20.234  0.00  0.00    +0.000 C 
ATOM     21  C   UNL     1       1.631   7.426  20.431  0.00  0.00    +0.000 C 
ATOM     22  N   UNL     1       2.264   6.535  19.440  0.00  0.00    +0.000 N 
ATOM     23  C   UNL     1       2.354   7.039  18.052  0.00  0.00    +0.000 C 
ATOM     24  C   UNL     1       2.525   8.582  17.932  0.00  0.00    +0.000 C 
BRANCH  22  25
ATOM     25  C   UNL     1       2.150   5.143  19.626  0.00  0.00    +0.000 A 
ATOM     26  C   UNL     1       1.277   4.609  20.584  0.00  0.00    +0.000 A 
ATOM     27  C   UNL     1       1.078   3.224  20.742  0.00  0.00    +0.000 A 
ATOM     28  C   UNL     1       1.759   2.331  19.929  0.00  0.00    +0.000 A 
ATOM     29  C   UNL     1       2.638   2.825  18.976  0.00  0.00    +0.000 A 
ATOM     30 CL   UNL     1       3.491   1.729  17.958  0.00  0.00    +0.000 Cl
ATOM     31  C   UNL     1       2.828   4.209  18.823  0.00  0.00    +0.000 A 
ENDBRANCH  22  25
ENDBRANCH  18  19
ENDBRANCH   7  18
TORSDOF 5
ENDMDL
MODEL 5
REMARK VINA RESULT:      -8.1      2.773      4.413
REMARK  Name = 
REMARK  5 active torsions:
REMARK  status: ('A' for Active; 'I' for Inactive)
REMARK    1  A    between atoms: C_4  and  C_5
REMARK    2  A    between atoms: C_10  and  C_11
REMARK    3  A    between atoms: N_17  and  C_18
REMARK    4  A    between atoms: C_18  and  N_19
REMARK    5  A    between atoms: N_22  and  C_23
REMARK                            x       y       z     vdW  Elec       q    Type
REMARK                         _______ _______ _______ _____ _____    ______ ____
ROOT
ATOM      1  O   UNL     1       1.418  10.017  18.073  0.00  0.00    +0.000 OA
ATOM      2  C   UNL     1       1.897   8.937  18.386  0.00  0.00    +0.000 C 
ATOM      3  C   UNL     1       2.697   8.060  17.472  0.00  0.00    +0.000 C 
ATOM      4  C   UNL     1       2.543   6.674  18.089  0.00  0.00    +0.000 C 
ATOM      5  C   UNL     1       1.975   6.993  19.475  0.00  0.00    +0.000 C 
ATOM      6  O   UNL     1       1.654   6.147  20.298  0.00  0.00    +0.000 OA
ATOM      7  N   UNL     1       1.850   8.344  19.604  0.00  0.00    +0.000 N 
ENDROOT
BRANCH   4   8
ATOM      8  C   UNL     1       3.862   5.901  18.096  0.00  0.00    +0.000 A 
ATOM      9  C   UNL     1       5.070   6.635  18.075  0.00  0.00    +0.000 A 
ATOM     10  C   UNL     1       6.316   6.012  18.046  0.00  0.00    +0.000 A 
ATOM     11  C   UNL     1       6.397   4.629  18.017  0.00  0.00    +0.000 A 
ATOM     12  C   UNL     1       5.227   3.876  18.029  0.00  0.00    +0.000 A 
ATOM     13  C   UNL     1       3.948   4.485  18.072  0.00  0.00    +0.000 A 
BRANCH  13  14
ATOM     14  C   UNL     1       2.778   3.520  18.089  0.00  0.00    +0.000 C 
ATOM     15  F   UNL     1       1.713   3.887  17.326  0.00  0.00    +0.000 F 
ATOM     16  F   UNL     1       3.134   2.280  17.642  0.00  0.00    +0.000 F 
ATOM     17  F   UNL     1       2.286   3.329  19.344  0.00  0.00    +0.000 F 
ENDBRANCH  13  14
ENDBRANCH   4   8
BRANCH   7  18
ATOM     18  C   UNL     1       1.443   9.030  20.822  0.00  0.00    +0.000 C 
BRANCH  18  19
ATOM     19  N   UNL     1      -0.009   8.863  21.002  0.00  0.00    +0.000 NA
ATOM     20  C   UNL     1      -0.479   8.991  22.398  0.00  0.00    +0.000 C 
ATOM     21  C   UNL     1      -0.412  10.408  23.004  0.00  0.00    +0.000 C 
ATOM     22  N   UNL     1      -1.134  11.395  22.181  0.00  0.00    +0.000 N 
ATOM     23  C   UNL     1      -0.988  11.273  20.714  0.00  0.00    +0.000 C 
ATOM     24  C   UNL     1      -0.805   9.815  20.199  0.00  0.00    +0.000 C 
BRANCH  22  25
ATOM     25  C   UNL     1      -1.346  12.682  22.714  0.00  0.00    +0.000 A 
ATOM     26  C   UNL     1      -2.448  12.953  23.537  0.00  0.00    +0.000 A 
ATOM     27  C   UNL     1      -2.648  14.204  24.151  0.00  0.00    +0.000 A 
ATOM     28  C   UNL     1      -1.732  15.225  23.953  0.00  0.00    +0.000 A 
ATOM     29  C   UNL     1      -0.634  14.995  23.136  0.00  0.00    +0.000 A 
ATOM     30 CL   UNL     1       0.513  16.253  22.880  0.00  0.00    +0.000 Cl
ATOM     31  C   UNL     1      -0.441  13.742  22.530  0.00  0.00    +0.000 A 
ENDBRANCH  22  25
ENDBRANCH  18  19
ENDBRANCH   7  18
TORSDOF 5
ENDMDL
MODEL 6
REMARK VINA RESULT:      -7.9      2.657      4.217
REMARK  Name = 
REMARK  5 active torsions:
REMARK  status: ('A' for Active; 'I' for Inactive)
REMARK    1  A    between atoms: C_4  and  C_5
REMARK    2  A    between atoms: C_10  and  C_11
REMARK    3  A    between atoms: N_17  and  C_18
REMARK    4  A    between atoms: C_18  and  N_19
REMARK    5  A    between atoms: N_22  and  C_23
REMARK                            x       y       z     vdW  Elec       q    Type
REMARK                         _______ _______ _______ _____ _____    ______ ____
ROOT
ATOM      1  O   UNL     1       1.293   9.775  17.798  0.00  0.00    +0.000 OA
ATOM      2  C   UNL     1       1.861   8.764  18.186  0.00  0.00    +0.000 C 
ATOM      3  C   UNL     1       2.686   7.863  17.319  0.00  0.00    +0.000 C 
ATOM      4  C   UNL     1       2.658   6.533  18.066  0.00  0.00    +0.000 C 
ATOM      5  C   UNL     1       2.125   6.942  19.443  0.00  0.00    +0.000 C 
ATOM      6  O   UNL     1       1.900   6.158  20.354  0.00  0.00    +0.000 OA
ATOM      7  N   UNL     1       1.907   8.287  19.453  0.00  0.00    +0.000 N 
ENDROOT
BRANCH   4   8
ATOM      8  C   UNL     1       4.030   5.858  18.082  0.00  0.00    +0.000 A 
ATOM      9  C   UNL     1       5.178   6.665  17.917  0.00  0.00    +0.000 A 
ATOM     10  C   UNL     1       6.463   6.129  17.885  0.00  0.00    +0.000 A 
ATOM     11  C   UNL     1       6.645   4.760  17.998  0.00  0.00    +0.000 A 
ATOM     12  C   UNL     1       5.535   3.934  18.153  0.00  0.00    +0.000 A 
ATOM     13  C   UNL     1       4.218   4.457  18.202  0.00  0.00    +0.000 A 
BRANCH  13  14
ATOM     14  C   UNL     1       3.125   3.421  18.386  0.00  0.00    +0.000 C 
ATOM     15  F   UNL     1       1.986   3.650  17.677  0.00  0.00    +0.000 F 
ATOM     16  F   UNL     1       3.537   2.173  18.016  0.00  0.00    +0.000 F 
ATOM     17  F   UNL     1       2.735   3.308  19.686  0.00  0.00    +0.000 F 
ENDBRANCH  13  14
ENDBRANCH   4   8
BRANCH   7  18
ATOM     18  C   UNL     1       1.501   9.055  20.622  0.00  0.00    +0.000 C 
BRANCH  18  19
ATOM     19  N   UNL     1       0.050   8.891  20.821  0.00  0.00    +0.000 NA
ATOM     20  C   UNL     1      -0.400   9.010  22.224  0.00  0.00    +0.000 C 
ATOM     21  C   UNL     1      -0.321  10.422  22.840  0.00  0.00    +0.000 C 
ATOM     22  N   UNL     1      -1.051  11.417  22.034  0.00  0.00    +0.000 N 
ATOM     23  C   UNL     1      -0.926  11.306  20.564  0.00  0.00    +0.000 C 
ATOM     24  C   UNL     1      -0.754   9.851  20.036  0.00  0.00    +0.000 C 
BRANCH  22  25
ATOM     25  C   UNL     1      -1.252  12.701  22.579  0.00  0.00    +0.000 A 
ATOM     26  C   UNL     1      -0.292  13.710  22.428  0.00  0.00    +0.000 A 
ATOM     27  C   UNL     1      -0.493  15.025  22.889  0.00  0.00    +0.000 A 
ATOM     28  C   UNL     1      -1.680  15.362  23.520  0.00  0.00    +0.000 A 
ATOM     29  C   UNL     1      -2.649  14.385  23.695  0.00  0.00    +0.000 A 
ATOM     30 CL   UNL     1      -4.130  14.788  24.477  0.00  0.00    +0.000 Cl
ATOM     31  C   UNL     1      -2.442  13.076  23.229  0.00  0.00    +0.000 A 
ENDBRANCH  22  25
ENDBRANCH  18  19
ENDBRANCH   7  18
TORSDOF 5
ENDMDL
MODEL 7
REMARK VINA RESULT:      -7.9      2.360      4.014
REMARK  Name = 
REMARK  5 active torsions:
REMARK  status: ('A' for Active; 'I' for Inactive)
REMARK    1  A    between atoms: C_4  and  C_5
REMARK    2  A    between atoms: C_10  and  C_11
REMARK    3  A    between atoms: N_17  and  C_18
REMARK    4  A    between atoms: C_18  and  N_19
REMARK    5  A    between atoms: N_22  and  C_23
REMARK                            x       y       z     vdW  Elec       q    Type
REMARK                         _______ _______ _______ _____ _____    ______ ____
ROOT
ATOM      1  O   UNL     1       1.070   8.531  21.827  0.00  0.00    +0.000 OA
ATOM      2  C   UNL     1       1.455   8.075  20.760  0.00  0.00    +0.000 C 
ATOM      3  C   UNL     1       2.219   6.796  20.603  0.00  0.00    +0.000 C 
ATOM      4  C   UNL     1       2.937   6.975  19.270  0.00  0.00    +0.000 C 
ATOM      5  C   UNL     1       2.208   8.178  18.664  0.00  0.00    +0.000 C 
ATOM      6  O   UNL     1       2.504   8.696  17.596  0.00  0.00    +0.000 OA
ATOM      7  N   UNL     1       1.233   8.587  19.525  0.00  0.00    +0.000 N 
ENDROOT
BRANCH   4   8
ATOM      8  C   UNL     1       2.895   5.704  18.422  0.00  0.00    +0.000 A 
ATOM      9  C   UNL     1       1.708   4.936  18.423  0.00  0.00    +0.000 A 
ATOM     10  C   UNL     1       1.594   3.746  17.706  0.00  0.00    +0.000 A 
ATOM     11  C   UNL     1       2.673   3.272  16.976  0.00  0.00    +0.000 A 
ATOM     12  C   UNL     1       3.859   4.000  16.960  0.00  0.00    +0.000 A 
ATOM     13  C   UNL     1       3.996   5.219  17.670  0.00  0.00    +0.000 A 
BRANCH  13  14
ATOM     14  C   UNL     1       5.351   5.889  17.538  0.00  0.00    +0.000 C 
ATOM     15  F   UNL     1       6.065   5.982  18.692  0.00  0.00    +0.000 F 
ATOM     16  F   UNL     1       6.163   5.228  16.662  0.00  0.00    +0.000 F 
ATOM     17  F   UNL     1       5.253   7.159  17.059  0.00  0.00    +0.000 F 
ENDBRANCH  13  14
ENDBRANCH   4   8
BRANCH   7  18
ATOM     18  C   UNL     1       0.264   9.637  19.246  0.00  0.00    +0.000 C 
BRANCH  18  19
ATOM     19  N   UNL     1       0.913  10.947  19.426  0.00  0.00    +0.000 NA
ATOM     20  C   UNL     1       0.355  12.034  18.595  0.00  0.00    +0.000 C 
ATOM     21  C   UNL     1      -1.062  12.513  18.975  0.00  0.00    +0.000 C 
ATOM     22  N   UNL     1      -1.145  12.922  20.389  0.00  0.00    +0.000 N 
ATOM     23  C   UNL     1      -0.424  12.082  21.370  0.00  0.00    +0.000 C 
ATOM     24  C   UNL     1       0.878  11.423  20.826  0.00  0.00    +0.000 C 
BRANCH  22  25
ATOM     25  C   UNL     1      -2.311  13.584  20.825  0.00  0.00    +0.000 A 
ATOM     26  C   UNL     1      -2.235  14.775  21.560  0.00  0.00    +0.000 A 
ATOM     27  C   UNL     1      -3.377  15.505  21.943  0.00  0.00    +0.000 A 
ATOM     28  C   UNL     1      -4.637  15.051  21.589  0.00  0.00    +0.000 A 
ATOM     29  C   UNL     1      -4.750  13.870  20.869  0.00  0.00    +0.000 A 
ATOM     30 CL   UNL     1      -6.310  13.293  20.422  0.00  0.00    +0.000 Cl
ATOM     31  C   UNL     1      -3.605  13.150  20.489  0.00  0.00    +0.000 A 
ENDBRANCH  22  25
ENDBRANCH  18  19
ENDBRANCH   7  18
TORSDOF 5
ENDMDL
MODEL 8
REMARK VINA RESULT:      -7.9      2.399      4.100
REMARK  Name = 
REMARK  5 active torsions:
REMARK  status: ('A' for Active; 'I' for Inactive)
REMARK    1  A    between atoms: C_4  and  C_5
REMARK    2  A    between atoms: C_10  and  C_11
REMARK    3  A    between atoms: N_17  and  C_18
REMARK    4  A    between atoms: C_18  and  N_19
REMARK    5  A    between atoms: N_22  and  C_23
REMARK                            x       y       z     vdW  Elec       q    Type
REMARK                         _______ _______ _______ _____ _____    ______ ____
ROOT
ATOM      1  O   UNL     1       1.100   8.648  21.757  0.00  0.00    +0.000 OA
ATOM      2  C   UNL     1       1.437   8.152  20.692  0.00  0.00    +0.000 C 
ATOM      3  C   UNL     1       2.225   6.886  20.550  0.00  0.00    +0.000 C 
ATOM      4  C   UNL     1       2.864   7.021  19.172  0.00  0.00    +0.000 C 
ATOM      5  C   UNL     1       2.072   8.177  18.554  0.00  0.00    +0.000 C 
ATOM      6  O   UNL     1       2.294   8.652  17.450  0.00  0.00    +0.000 OA
ATOM      7  N   UNL     1       1.135   8.601  19.450  0.00  0.00    +0.000 N 
ENDROOT
BRANCH   4   8
ATOM      8  C   UNL     1       2.809   5.712  18.385  0.00  0.00    +0.000 A 
ATOM      9  C   UNL     1       1.707   4.851  18.591  0.00  0.00    +0.000 A 
ATOM     10  C   UNL     1       1.593   3.623  17.942  0.00  0.00    +0.000 A 
ATOM     11  C   UNL     1       2.591   3.203  17.077  0.00  0.00    +0.000 A 
ATOM     12  C   UNL     1       3.695   4.022  16.858  0.00  0.00    +0.000 A 
ATOM     13  C   UNL     1       3.827   5.281  17.496  0.00  0.00    +0.000 A 
BRANCH  13  14
ATOM     14  C   UNL     1       5.085   6.051  17.139  0.00  0.00    +0.000 C 
ATOM     15  F   UNL     1       5.897   6.350  18.188  0.00  0.00    +0.000 F 
ATOM     16  F   UNL     1       5.870   5.365  16.258  0.00  0.00    +0.000 F 
ATOM     17  F   UNL     1       4.808   7.239  16.535  0.00  0.00    +0.000 F 
ENDBRANCH  13  14
ENDBRANCH   4   8
BRANCH   7  18
ATOM     18  C   UNL     1       0.124   9.614  19.179  0.00  0.00    +0.000 C 
BRANCH  18  19
ATOM     19  N   UNL     1       0.755  10.944  19.221  0.00  0.00    +0.000 NA
ATOM     20  C   UNL     1      -0.040  12.027  18.605  0.00  0.00    +0.000 C 
ATOM     21  C   UNL     1      -1.316  12.441  19.366  0.00  0.00    +0.000 C 
ATOM     22  N   UNL     1      -1.030  12.815  20.763  0.00  0.00    +0.000 N 
ATOM     23  C   UNL     1      -0.045  11.981  21.487  0.00  0.00    +0.000 C 
ATOM     24  C   UNL     1       1.083  11.386  20.593  0.00  0.00    +0.000 C 
BRANCH  22  25
ATOM     25  C   UNL     1      -2.055  13.420  21.516  0.00  0.00    +0.000 A 
ATOM     26  C   UNL     1      -3.069  12.654  22.107  0.00  0.00    +0.000 A 
ATOM     27  C   UNL     1      -4.063  13.215  22.931  0.00  0.00    +0.000 A 
ATOM     28  C   UNL     1      -4.060  14.577  23.187  0.00  0.00    +0.000 A 
ATOM     29  C   UNL     1      -3.076  15.367  22.611  0.00  0.00    +0.000 A 
ATOM     30 CL   UNL     1      -3.058  17.062  22.920  0.00  0.00    +0.000 Cl
ATOM     31  C   UNL     1      -2.086  14.799  21.792  0.00  0.00    +0.000 A 
ENDBRANCH  22  25
ENDBRANCH  18  19
ENDBRANCH   7  18
TORSDOF 5
ENDMDL
MODEL 9
REMARK VINA RESULT:      -7.9      2.351      3.980
REMARK  Name = 
REMARK  5 active torsions:
REMARK  status: ('A' for Active; 'I' for Inactive)
REMARK    1  A    between atoms: C_4  and  C_5
REMARK    2  A    between atoms: C_10  and  C_11
REMARK    3  A    between atoms: N_17  and  C_18
REMARK    4  A    between atoms: C_18  and  N_19
REMARK    5  A    between atoms: N_22  and  C_23
REMARK                            x       y       z     vdW  Elec       q    Type
REMARK                         _______ _______ _______ _____ _____    ______ ____
ROOT
ATOM      1  O   UNL     1       1.085   8.535  21.856  0.00  0.00    +0.000 OA
ATOM      2  C   UNL     1       1.459   8.055  20.796  0.00  0.00    +0.000 C 
ATOM      3  C   UNL     1       2.201   6.760  20.659  0.00  0.00    +0.000 C 
ATOM      4  C   UNL     1       2.918   6.905  19.321  0.00  0.00    +0.000 C 
ATOM      5  C   UNL     1       2.209   8.110  18.697  0.00  0.00    +0.000 C 
ATOM      6  O   UNL     1       2.510   8.605  17.620  0.00  0.00    +0.000 OA
ATOM      7  N   UNL     1       1.243   8.550  19.553  0.00  0.00    +0.000 N 
ENDROOT
BRANCH   4   8
ATOM      8  C   UNL     1       2.852   5.621  18.495  0.00  0.00    +0.000 A 
ATOM      9  C   UNL     1       1.656   4.867  18.520  0.00  0.00    +0.000 A 
ATOM     10  C   UNL     1       1.521   3.668  17.825  0.00  0.00    +0.000 A 
ATOM     11  C   UNL     1       2.586   3.169  17.092  0.00  0.00    +0.000 A 
ATOM     12  C   UNL     1       3.781   3.881  17.053  0.00  0.00    +0.000 A 
ATOM     13  C   UNL     1       3.939   5.110  17.741  0.00  0.00    +0.000 A 
BRANCH  13  14
ATOM     14  C   UNL     1       5.301   5.761  17.584  0.00  0.00    +0.000 C 
ATOM     15  F   UNL     1       6.161   5.113  16.753  0.00  0.00    +0.000 F 
ATOM     16  F   UNL     1       5.206   7.030  17.090  0.00  0.00    +0.000 F 
ATOM     17  F   UNL     1       5.954   5.881  18.773  0.00  0.00    +0.000 F 
ENDBRANCH  13  14
ENDBRANCH   4   8
BRANCH   7  18
ATOM     18  C   UNL     1       0.291   9.612  19.259  0.00  0.00    +0.000 C 
BRANCH  18  19
ATOM     19  N   UNL     1       0.950  10.914  19.457  0.00  0.00    +0.000 NA
ATOM     20  C   UNL     1       0.463  11.995  18.575  0.00  0.00    +0.000 C 
ATOM     21  C   UNL     1      -0.965  12.504  18.858  0.00  0.00    +0.000 C 
ATOM     22  N   UNL     1      -1.128  12.940  20.257  0.00  0.00    +0.000 N 
ATOM     23  C   UNL     1      -0.483  12.105  21.295  0.00  0.00    +0.000 C 
ATOM     24  C   UNL     1       0.838  11.415  20.843  0.00  0.00    +0.000 C 
BRANCH  22  25
ATOM     25  C   UNL     1      -2.307  13.628  20.609  0.00  0.00    +0.000 A 
ATOM     26  C   UNL     1      -3.567  13.034  20.453  0.00  0.00    +0.000 A 
ATOM     27  C   UNL     1      -4.758  13.660  20.868  0.00  0.00    +0.000 A 
ATOM     28  C   UNL     1      -4.710  14.913  21.458  0.00  0.00    +0.000 A 
ATOM     29  C   UNL     1      -3.480  15.534  21.619  0.00  0.00    +0.000 A 
ATOM     30 CL   UNL     1      -3.405  17.091  22.352  0.00  0.00    +0.000 Cl
ATOM     31  C   UNL     1      -2.296  14.901  21.206  0.00  0.00    +0.000 A 
ENDBRANCH  22  25
ENDBRANCH  18  19
ENDBRANCH   7  18
TORSDOF 5
ENDMDL
