MODEL 1
REMARK VINA RESULT:      -7.9      0.000      0.000
REMARK  Name = 
REMARK  7 active torsions:
REMARK  status: ('A' for Active; 'I' for Inactive)
REMARK    1  A    between atoms: C_1  and  C_2
REMARK    2  A    between atoms: C_2  and  C_3
REMARK    3  A    between atoms: C_2  and  N_14
REMARK    4  A    between atoms: N_14  and  C_15
REMARK    5  A    between atoms: N_14  and  C_16
REMARK    6  A    between atoms: C_16  and  C_17
REMARK    7  A    between atoms: N_19  and  C_20
REMARK                            x       y       z     vdW  Elec       q    Type
REMARK                         _______ _______ _______ _____ _____    ______ ____
ROOT
ATOM      1  N   UNL     1       2.640   3.486  20.229  0.00  0.00    +0.000 NA
ATOM      2  C   UNL     1       2.141   2.421  21.103  0.00  0.00    +0.000 C 
ENDROOT
BRANCH   1   4
ATOM      3  C   UNL     1       4.601   1.860  20.196  0.00  0.00    +0.000 C 
ATOM      4  C   UNL     1       4.016   3.201  19.703  0.00  0.00    +0.000 C 
BRANCH   4   5
ATOM      5  C   UNL     1       4.060   3.241  18.148  0.00  0.00    +0.000 C 
ATOM      6  O   UNL     1       3.242   2.581  17.497  0.00  0.00    +0.000 OA
ATOM      7  N   UNL     1       4.981   4.027  17.471  0.00  0.00    +0.000 N 
ATOM      8  C   UNL     1       4.745   4.283  16.042  0.00  0.00    +0.000 C 
ATOM      9  C   UNL     1       5.795   5.284  15.566  0.00  0.00    +0.000 C 
ATOM     10  C   UNL     1       6.431   5.689  16.857  0.00  0.00    +0.000 A 
ATOM     11  C   UNL     1       7.348   6.713  17.045  0.00  0.00    +0.000 A 
ATOM     12  C   UNL     1       7.902   6.880  18.312  0.00  0.00    +0.000 A 
ATOM     13  C   UNL     1       7.585   5.986  19.341  0.00  0.00    +0.000 A 
ATOM     14  C   UNL     1       6.659   4.957  19.131  0.00  0.00    +0.000 A 
ATOM     15  C   UNL     1       6.029   4.860  17.905  0.00  0.00    +0.000 A 
ENDBRANCH   4   5
ENDBRANCH   1   4
BRANCH   1  16
ATOM     16  C   UNL     1       2.599   4.816  20.880  0.00  0.00    +0.000 C 
BRANCH  16  17
ATOM     17  C   UNL     1       2.082   5.921  19.955  0.00  0.00    +0.000 C 
ATOM     18  O   UNL     1       1.763   5.639  18.802  0.00  0.00    +0.000 OA
ATOM     19  N   UNL     1       2.009   7.167  20.546  0.00  0.00    +0.000 N 
ATOM     20  H   UNL     1       2.481   7.250  21.442  0.00  0.00    +0.000 HD
BRANCH  19  21
ATOM     21  C   UNL     1       1.571   8.358  19.925  0.00  0.00    +0.000 A 
ATOM     22  C   UNL     1       2.006   8.762  18.657  0.00  0.00    +0.000 A 
ATOM     23  C   UNL     1       1.607   9.986  18.119  0.00  0.00    +0.000 A 
ATOM     24  C   UNL     1       0.751  10.803  18.842  0.00  0.00    +0.000 A 
ATOM     25  F   UNL     1       0.386  11.987  18.338  0.00  0.00    +0.000 F 
ATOM     26  C   UNL     1       0.272  10.406  20.084  0.00  0.00    +0.000 A 
ATOM     27  C   UNL     1       0.678   9.180  20.625  0.00  0.00    +0.000 A 
ENDBRANCH  19  21
ENDBRANCH  16  17
ENDBRANCH   1  16
TORSDOF 5
ENDMDL
MODEL 2
REMARK VINA RESULT:      -7.8      3.963      6.899
REMARK  Name = 
REMARK  7 active torsions:
REMARK  status: ('A' for Active; 'I' for Inactive)
REMARK    1  A    between atoms: C_1  and  C_2
REMARK    2  A    between atoms: C_2  and  C_3
REMARK    3  A    between atoms: C_2  and  N_14
REMARK    4  A    between atoms: N_14  and  C_15
REMARK    5  A    between atoms: N_14  and  C_16
REMARK    6  A    between atoms: C_16  and  C_17
REMARK    7  A    between atoms: N_19  and  C_20
REMARK                            x       y       z     vdW  Elec       q    Type
REMARK                         _______ _______ _______ _____ _____    ______ ____
ROOT
ATOM      1  N   UNL     1       6.556   6.040  17.739  0.00  0.00    +0.000 NA
ATOM      2  C   UNL     1       7.513   4.979  17.413  0.00  0.00    +0.000 C 
ENDROOT
BRANCH   1   4
ATOM      3  C   UNL     1       5.126   4.866  15.987  0.00  0.00    +0.000 C 
ATOM      4  C   UNL     1       5.166   5.724  17.271  0.00  0.00    +0.000 C 
BRANCH   4   5
ATOM      5  C   UNL     1       4.325   5.028  18.379  0.00  0.00    +0.000 C 
ATOM      6  O   UNL     1       4.621   3.884  18.742  0.00  0.00    +0.000 OA
ATOM      7  N   UNL     1       3.265   5.676  18.996  0.00  0.00    +0.000 N 
ATOM      8  C   UNL     1       2.748   5.106  20.251  0.00  0.00    +0.000 C 
ATOM      9  C   UNL     1       1.702   6.069  20.807  0.00  0.00    +0.000 C 
ATOM     10  C   UNL     1       1.870   7.249  19.904  0.00  0.00    +0.000 A 
ATOM     11  C   UNL     1       1.284   8.498  20.053  0.00  0.00    +0.000 A 
ATOM     12  C   UNL     1       1.486   9.446  19.053  0.00  0.00    +0.000 A 
ATOM     13  C   UNL     1       2.206   9.110  17.900  0.00  0.00    +0.000 A 
ATOM     14  C   UNL     1       2.788   7.843  17.767  0.00  0.00    +0.000 A 
ATOM     15  C   UNL     1       2.677   6.941  18.808  0.00  0.00    +0.000 A 
ENDBRANCH   4   5
ENDBRANCH   1   4
BRANCH   1  16
ATOM     16  C   UNL     1       6.985   7.363  17.233  0.00  0.00    +0.000 C 
BRANCH  16  17
ATOM     17  C   UNL     1       8.024   8.041  18.131  0.00  0.00    +0.000 C 
ATOM     18  O   UNL     1       8.627   7.368  18.964  0.00  0.00    +0.000 OA
ATOM     19  N   UNL     1       8.192   9.389  17.884  0.00  0.00    +0.000 N 
ATOM     20  H   UNL     1       7.487   9.813  17.289  0.00  0.00    +0.000 HD
BRANCH  19  21
ATOM     21  C   UNL     1       9.080  10.254  18.563  0.00  0.00    +0.000 A 
ATOM     22  C   UNL     1       9.091  10.397  19.956  0.00  0.00    +0.000 A 
ATOM     23  C   UNL     1       9.931  11.323  20.574  0.00  0.00    +0.000 A 
ATOM     24  C   UNL     1      10.783  12.096  19.800  0.00  0.00    +0.000 A 
ATOM     25  F   UNL     1      11.573  13.001  20.390  0.00  0.00    +0.000 F 
ATOM     26  C   UNL     1      10.821  11.943  18.419  0.00  0.00    +0.000 A 
ATOM     27  C   UNL     1       9.972  11.018  17.800  0.00  0.00    +0.000 A 
ENDBRANCH  19  21
ENDBRANCH  16  17
ENDBRANCH   1  16
TORSDOF 5
ENDMDL
MODEL 3
REMARK VINA RESULT:      -7.7      1.468      1.781
REMARK  Name = 
REMARK  7 active torsions:
REMARK  status: ('A' for Active; 'I' for Inactive)
REMARK    1  A    between atoms: C_1  and  C_2
REMARK    2  A    between atoms: C_2  and  C_3
REMARK    3  A    between atoms: C_2  and  N_14
REMARK    4  A    between atoms: N_14  and  C_15
REMARK    5  A    between atoms: N_14  and  C_16
REMARK    6  A    between atoms: C_16  and  C_17
REMARK    7  A    between atoms: N_19  and  C_20
REMARK                            x       y       z     vdW  Elec       q    Type
REMARK                         _______ _______ _______ _____ _____    ______ ____
ROOT
ATOM      1  N   UNL     1       2.102   4.686  19.494  0.00  0.00    +0.000 NA
ATOM      2  C   UNL     1       1.012   4.191  20.340  0.00  0.00    +0.000 C 
ENDROOT
BRANCH   1   4
ATOM      3  C   UNL     1       2.580   2.183  19.481  0.00  0.00    +0.000 C 
ATOM      4  C   UNL     1       3.057   3.600  19.093  0.00  0.00    +0.000 C 
BRANCH   4   5
ATOM      5  C   UNL     1       3.369   3.638  17.569  0.00  0.00    +0.000 C 
ATOM      6  O   UNL     1       2.560   3.155  16.769  0.00  0.00    +0.000 OA
ATOM      7  N   UNL     1       4.524   4.231  17.083  0.00  0.00    +0.000 N 
ATOM      8  C   UNL     1       4.586   4.537  15.644  0.00  0.00    +0.000 C 
ATOM      9  C   UNL     1       5.874   5.314  15.385  0.00  0.00    +0.000 C 
ATOM     10  C   UNL     1       6.349   5.580  16.778  0.00  0.00    +0.000 A 
ATOM     11  C   UNL     1       7.402   6.403  17.152  0.00  0.00    +0.000 A 
ATOM     12  C   UNL     1       7.756   6.452  18.498  0.00  0.00    +0.000 A 
ATOM     13  C   UNL     1       7.104   5.633  19.427  0.00  0.00    +0.000 A 
ATOM     14  C   UNL     1       6.046   4.806  19.029  0.00  0.00    +0.000 A 
ATOM     15  C   UNL     1       5.625   4.840  17.713  0.00  0.00    +0.000 A 
ENDBRANCH   4   5
ENDBRANCH   1   4
BRANCH   1  16
ATOM     16  C   UNL     1       2.832   5.814  20.116  0.00  0.00    +0.000 C 
BRANCH  16  17
ATOM     17  C   UNL     1       2.097   7.151  19.982  0.00  0.00    +0.000 C 
ATOM     18  O   UNL     1       2.132   7.750  18.909  0.00  0.00    +0.000 OA
ATOM     19  N   UNL     1       1.428   7.547  21.123  0.00  0.00    +0.000 N 
ATOM     20  H   UNL     1       1.656   7.023  21.964  0.00  0.00    +0.000 HD
BRANCH  19  21
ATOM     21  C   UNL     1       0.674   8.732  21.276  0.00  0.00    +0.000 A 
ATOM     22  C   UNL     1       0.308   9.549  20.199  0.00  0.00    +0.000 A 
ATOM     23  C   UNL     1      -0.368  10.751  20.408  0.00  0.00    +0.000 A 
ATOM     24  C   UNL     1      -0.700  11.131  21.699  0.00  0.00    +0.000 A 
ATOM     25  F   UNL     1      -1.328  12.295  21.904  0.00  0.00    +0.000 F 
ATOM     26  C   UNL     1      -0.386  10.318  22.782  0.00  0.00    +0.000 A 
ATOM     27  C   UNL     1       0.299   9.115  22.570  0.00  0.00    +0.000 A 
ENDBRANCH  19  21
ENDBRANCH  16  17
ENDBRANCH   1  16
TORSDOF 5
ENDMDL
MODEL 4
REMARK VINA RESULT:      -7.6      4.035      6.851
REMARK  Name = 
REMARK  7 active torsions:
REMARK  status: ('A' for Active; 'I' for Inactive)
REMARK    1  A    between atoms: C_1  and  C_2
REMARK    2  A    between atoms: C_2  and  C_3
REMARK    3  A    between atoms: C_2  and  N_14
REMARK    4  A    between atoms: N_14  and  C_15
REMARK    5  A    between atoms: N_14  and  C_16
REMARK    6  A    between atoms: C_16  and  C_17
REMARK    7  A    between atoms: N_19  and  C_20
REMARK                            x       y       z     vdW  Elec       q    Type
REMARK                         _______ _______ _______ _____ _____    ______ ____
ROOT
ATOM      1  N   UNL     1       6.439   6.132  17.952  0.00  0.00    +0.000 NA
ATOM      2  C   UNL     1       7.069   4.913  17.435  0.00  0.00    +0.000 C 
ENDROOT
BRANCH   1   4
ATOM      3  C   UNL     1       4.361   7.333  17.096  0.00  0.00    +0.000 C 
ATOM      4  C   UNL     1       4.944   6.103  17.827  0.00  0.00    +0.000 C 
BRANCH   4   5
ATOM      5  C   UNL     1       4.446   4.806  17.128  0.00  0.00    +0.000 C 
ATOM      6  O   UNL     1       4.868   4.518  16.003  0.00  0.00    +0.000 OA
ATOM      7  N   UNL     1       3.558   3.943  17.754  0.00  0.00    +0.000 N 
ATOM      8  C   UNL     1       3.405   2.591  17.194  0.00  0.00    +0.000 C 
ATOM      9  C   UNL     1       2.504   1.794  18.134  0.00  0.00    +0.000 C 
ATOM     10  C   UNL     1       2.388   2.724  19.299  0.00  0.00    +0.000 A 
ATOM     11  C   UNL     1       1.814   2.443  20.531  0.00  0.00    +0.000 A 
ATOM     12  C   UNL     1       1.715   3.473  21.464  0.00  0.00    +0.000 A 
ATOM     13  C   UNL     1       2.124   4.768  21.127  0.00  0.00    +0.000 A 
ATOM     14  C   UNL     1       2.698   5.032  19.878  0.00  0.00    +0.000 A 
ATOM     15  C   UNL     1       2.895   3.988  18.994  0.00  0.00    +0.000 A 
ENDBRANCH   4   5
ENDBRANCH   1   4
BRANCH   1  16
ATOM     16  C   UNL     1       6.988   7.359  17.331  0.00  0.00    +0.000 C 
BRANCH  16  17
ATOM     17  C   UNL     1       8.051   8.043  18.193  0.00  0.00    +0.000 C 
ATOM     18  O   UNL     1       8.677   7.378  19.017  0.00  0.00    +0.000 OA
ATOM     19  N   UNL     1       8.215   9.389  17.930  0.00  0.00    +0.000 N 
ATOM     20  H   UNL     1       7.493   9.808  17.349  0.00  0.00    +0.000 HD
BRANCH  19  21
ATOM     21  C   UNL     1       9.122  10.259  18.575  0.00  0.00    +0.000 A 
ATOM     22  C   UNL     1       9.132  10.459  19.961  0.00  0.00    +0.000 A 
ATOM     23  C   UNL     1       9.993  11.390  20.544  0.00  0.00    +0.000 A 
ATOM     24  C   UNL     1      10.865  12.109  19.742  0.00  0.00    +0.000 A 
ATOM     25  F   UNL     1      11.676  13.017  20.296  0.00  0.00    +0.000 F 
ATOM     26  C   UNL     1      10.904  11.898  18.368  0.00  0.00    +0.000 A 
ATOM     27  C   UNL     1      10.034  10.969  17.784  0.00  0.00    +0.000 A 
ENDBRANCH  19  21
ENDBRANCH  16  17
ENDBRANCH   1  16
TORSDOF 5
ENDMDL
MODEL 5
REMARK VINA RESULT:      -7.5      0.972      1.338
REMARK  Name = 
REMARK  7 active torsions:
REMARK  status: ('A' for Active; 'I' for Inactive)
REMARK    1  A    between atoms: C_1  and  C_2
REMARK    2  A    between atoms: C_2  and  C_3
REMARK    3  A    between atoms: C_2  and  N_14
REMARK    4  A    between atoms: N_14  and  C_15
REMARK    5  A    between atoms: N_14  and  C_16
REMARK    6  A    between atoms: C_16  and  C_17
REMARK    7  A    between atoms: N_19  and  C_20
REMARK                            x       y       z     vdW  Elec       q    Type
REMARK                         _______ _______ _______ _____ _____    ______ ____
ROOT
ATOM      1  N   UNL     1       2.008   4.164  19.472  0.00  0.00    +0.000 NA
ATOM      2  C   UNL     1       0.908   3.299  19.909  0.00  0.00    +0.000 C 
ENDROOT
BRANCH   1   4
ATOM      3  C   UNL     1       3.149   1.887  19.411  0.00  0.00    +0.000 C 
ATOM      4  C   UNL     1       3.217   3.385  19.043  0.00  0.00    +0.000 C 
BRANCH   4   5
ATOM      5  C   UNL     1       3.487   3.528  17.518  0.00  0.00    +0.000 C 
ATOM      6  O   UNL     1       2.682   3.052  16.709  0.00  0.00    +0.000 OA
ATOM      7  N   UNL     1       4.597   4.208  17.041  0.00  0.00    +0.000 N 
ATOM      8  C   UNL     1       4.606   4.600  15.622  0.00  0.00    +0.000 C 
ATOM      9  C   UNL     1       5.846   5.456  15.380  0.00  0.00    +0.000 C 
ATOM     10  C   UNL     1       6.344   5.664  16.774  0.00  0.00    +0.000 A 
ATOM     11  C   UNL     1       7.364   6.517  17.173  0.00  0.00    +0.000 A 
ATOM     12  C   UNL     1       7.751   6.505  18.511  0.00  0.00    +0.000 A 
ATOM     13  C   UNL     1       7.165   5.600  19.404  0.00  0.00    +0.000 A 
ATOM     14  C   UNL     1       6.139   4.745  18.982  0.00  0.00    +0.000 A 
ATOM     15  C   UNL     1       5.683   4.834  17.681  0.00  0.00    +0.000 A 
ENDBRANCH   4   5
ENDBRANCH   1   4
BRANCH   1  16
ATOM     16  C   UNL     1       2.375   5.171  20.494  0.00  0.00    +0.000 C 
BRANCH  16  17
ATOM     17  C   UNL     1       2.316   6.608  19.969  0.00  0.00    +0.000 C 
ATOM     18  O   UNL     1       2.965   6.910  18.970  0.00  0.00    +0.000 OA
ATOM     19  N   UNL     1       1.488   7.442  20.694  0.00  0.00    +0.000 N 
ATOM     20  H   UNL     1       1.175   7.073  21.588  0.00  0.00    +0.000 HD
BRANCH  19  21
ATOM     21  C   UNL     1       1.250   8.810  20.432  0.00  0.00    +0.000 A 
ATOM     22  C   UNL     1       0.995   9.747  21.441  0.00  0.00    +0.000 A 
ATOM     23  C   UNL     1       0.686  11.071  21.127  0.00  0.00    +0.000 A 
ATOM     24  C   UNL     1       0.653  11.468  19.799  0.00  0.00    +0.000 A 
ATOM     25  F   UNL     1       0.335  12.732  19.495  0.00  0.00    +0.000 F 
ATOM     26  C   UNL     1       0.944  10.567  18.781  0.00  0.00    +0.000 A 
ATOM     27  C   UNL     1       1.247   9.237  19.098  0.00  0.00    +0.000 A 
ENDBRANCH  19  21
ENDBRANCH  16  17
ENDBRANCH   1  16
TORSDOF 5
ENDMDL
MODEL 6
REMARK VINA RESULT:      -7.5      3.921      6.799
REMARK  Name = 
REMARK  7 active torsions:
REMARK  status: ('A' for Active; 'I' for Inactive)
REMARK    1  A    between atoms: C_1  and  C_2
REMARK    2  A    between atoms: C_2  and  C_3
REMARK    3  A    between atoms: C_2  and  N_14
REMARK    4  A    between atoms: N_14  and  C_15
REMARK    5  A    between atoms: N_14  and  C_16
REMARK    6  A    between atoms: C_16  and  C_17
REMARK    7  A    between atoms: N_19  and  C_20
REMARK                            x       y       z     vdW  Elec       q    Type
REMARK                         _______ _______ _______ _____ _____    ______ ____
ROOT
ATOM      1  N   UNL     1       6.333   6.182  17.507  0.00  0.00    +0.000 NA
ATOM      2  C   UNL     1       7.394   5.171  17.547  0.00  0.00    +0.000 C 
ENDROOT
BRANCH   1   4
ATOM      3  C   UNL     1       5.515   5.444  15.210  0.00  0.00    +0.000 C 
ATOM      4  C   UNL     1       5.158   5.750  16.682  0.00  0.00    +0.000 C 
BRANCH   4   5
ATOM      5  C   UNL     1       4.435   4.520  17.302  0.00  0.00    +0.000 C 
ATOM      6  O   UNL     1       4.784   3.379  16.976  0.00  0.00    +0.000 OA
ATOM      7  N   UNL     1       3.425   4.672  18.240  0.00  0.00    +0.000 N 
ATOM      8  C   UNL     1       3.036   3.491  19.027  0.00  0.00    +0.000 C 
ATOM      9  C   UNL     1       2.029   3.942  20.082  0.00  0.00    +0.000 C 
ATOM     10  C   UNL     1       2.092   5.429  19.940  0.00  0.00    +0.000 A 
ATOM     11  C   UNL     1       1.500   6.368  20.773  0.00  0.00    +0.000 A 
ATOM     12  C   UNL     1       1.592   7.713  20.424  0.00  0.00    +0.000 A 
ATOM     13  C   UNL     1       2.209   8.088  19.224  0.00  0.00    +0.000 A 
ATOM     14  C   UNL     1       2.798   7.125  18.395  0.00  0.00    +0.000 A 
ATOM     15  C   UNL     1       2.800   5.803  18.797  0.00  0.00    +0.000 A 
ENDBRANCH   4   5
ENDBRANCH   1   4
BRANCH   1  16
ATOM     16  C   UNL     1       6.828   7.503  17.055  0.00  0.00    +0.000 C 
BRANCH  16  17
ATOM     17  C   UNL     1       7.899   8.090  17.976  0.00  0.00    +0.000 C 
ATOM     18  O   UNL     1       8.477   7.352  18.773  0.00  0.00    +0.000 OA
ATOM     19  N   UNL     1       8.126   9.440  17.794  0.00  0.00    +0.000 N 
ATOM     20  H   UNL     1       7.437   9.923  17.224  0.00  0.00    +0.000 HD
BRANCH  19  21
ATOM     21  C   UNL     1       9.054  10.231  18.507  0.00  0.00    +0.000 A 
ATOM     22  C   UNL     1       9.051  10.341  19.903  0.00  0.00    +0.000 A 
ATOM     23  C   UNL     1       9.937  11.198  20.557  0.00  0.00    +0.000 A 
ATOM     24  C   UNL     1      10.847  11.935  19.814  0.00  0.00    +0.000 A 
ATOM     25  F   UNL     1      11.681  12.774  20.438  0.00  0.00    +0.000 F 
ATOM     26  C   UNL     1      10.899  11.813  18.431  0.00  0.00    +0.000 A 
ATOM     27  C   UNL     1      10.004  10.957  17.776  0.00  0.00    +0.000 A 
ENDBRANCH  19  21
ENDBRANCH  16  17
ENDBRANCH   1  16
TORSDOF 5
ENDMDL
MODEL 7
REMARK VINA RESULT:      -7.4      0.720      1.187
REMARK  Name = 
REMARK  7 active torsions:
REMARK  status: ('A' for Active; 'I' for Inactive)
REMARK    1  A    between atoms: C_1  and  C_2
REMARK    2  A    between atoms: C_2  and  C_3
REMARK    3  A    between atoms: C_2  and  N_14
REMARK    4  A    between atoms: N_14  and  C_15
REMARK    5  A    between atoms: N_14  and  C_16
REMARK    6  A    between atoms: C_16  and  C_17
REMARK    7  A    between atoms: N_19  and  C_20
REMARK                            x       y       z     vdW  Elec       q    Type
REMARK                         _______ _______ _______ _____ _____    ______ ____
ROOT
ATOM      1  N   UNL     1       2.583   3.157  20.618  0.00  0.00    +0.000 NA
ATOM      2  C   UNL     1       2.414   1.937  21.412  0.00  0.00    +0.000 C 
ENDROOT
BRANCH   1   4
ATOM      3  C   UNL     1       4.674   1.857  19.961  0.00  0.00    +0.000 C 
ATOM      4  C   UNL     1       3.888   3.184  19.877  0.00  0.00    +0.000 C 
BRANCH   4   5
ATOM      5  C   UNL     1       3.698   3.575  18.384  0.00  0.00    +0.000 C 
ATOM      6  O   UNL     1       2.719   3.148  17.761  0.00  0.00    +0.000 OA
ATOM      7  N   UNL     1       4.588   4.421  17.739  0.00  0.00    +0.000 N 
ATOM      8  C   UNL     1       4.167   5.016  16.461  0.00  0.00    +0.000 C 
ATOM      9  C   UNL     1       5.240   6.014  16.032  0.00  0.00    +0.000 C 
ATOM     10  C   UNL     1       6.108   6.061  17.248  0.00  0.00    +0.000 A 
ATOM     11  C   UNL     1       7.156   6.941  17.487  0.00  0.00    +0.000 A 
ATOM     12  C   UNL     1       7.913   6.769  18.643  0.00  0.00    +0.000 A 
ATOM     13  C   UNL     1       7.656   5.690  19.498  0.00  0.00    +0.000 A 
ATOM     14  C   UNL     1       6.597   4.812  19.239  0.00  0.00    +0.000 A 
ATOM     15  C   UNL     1       5.779   5.048  18.149  0.00  0.00    +0.000 A 
ENDBRANCH   4   5
ENDBRANCH   1   4
BRANCH   1  16
ATOM     16  C   UNL     1       2.421   4.386  21.428  0.00  0.00    +0.000 C 
BRANCH  16  17
ATOM     17  C   UNL     1       1.647   5.487  20.699  0.00  0.00    +0.000 C 
ATOM     18  O   UNL     1       0.553   5.225  20.203  0.00  0.00    +0.000 OA
ATOM     19  N   UNL     1       2.279   6.715  20.692  0.00  0.00    +0.000 N 
ATOM     20  H   UNL     1       3.251   6.704  20.989  0.00  0.00    +0.000 HD
BRANCH  19  21
ATOM     21  C   UNL     1       1.792   7.898  20.093  0.00  0.00    +0.000 A 
ATOM     22  C   UNL     1       0.953   8.801  20.757  0.00  0.00    +0.000 A 
ATOM     23  C   UNL     1       0.432   9.914  20.097  0.00  0.00    +0.000 A 
ATOM     24  C   UNL     1       0.769  10.141  18.772  0.00  0.00    +0.000 A 
ATOM     25  F   UNL     1       0.252  11.196  18.131  0.00  0.00    +0.000 F 
ATOM     26  C   UNL     1       1.633   9.284  18.102  0.00  0.00    +0.000 A 
ATOM     27  C   UNL     1       2.150   8.163  18.764  0.00  0.00    +0.000 A 
ENDBRANCH  19  21
ENDBRANCH  16  17
ENDBRANCH   1  16
TORSDOF 5
ENDMDL
MODEL 8
REMARK VINA RESULT:      -7.3      3.793      6.474
REMARK  Name = 
REMARK  7 active torsions:
REMARK  status: ('A' for Active; 'I' for Inactive)
REMARK    1  A    between atoms: C_1  and  C_2
REMARK    2  A    between atoms: C_2  and  C_3
REMARK    3  A    between atoms: C_2  and  N_14
REMARK    4  A    between atoms: N_14  and  C_15
REMARK    5  A    between atoms: N_14  and  C_16
REMARK    6  A    between atoms: C_16  and  C_17
REMARK    7  A    between atoms: N_19  and  C_20
REMARK                            x       y       z     vdW  Elec       q    Type
REMARK                         _______ _______ _______ _____ _____    ______ ____
ROOT
ATOM      1  N   UNL     1       6.074   6.197  17.910  0.00  0.00    +0.000 NA
ATOM      2  C   UNL     1       6.480   4.941  18.548  0.00  0.00    +0.000 C 
ENDROOT
BRANCH   1   4
ATOM      3  C   UNL     1       5.023   6.771  15.661  0.00  0.00    +0.000 C 
ATOM      4  C   UNL     1       4.888   6.026  17.008  0.00  0.00    +0.000 C 
BRANCH   4   5
ATOM      5  C   UNL     1       4.577   4.527  16.736  0.00  0.00    +0.000 C 
ATOM      6  O   UNL     1       5.132   3.950  15.794  0.00  0.00    +0.000 OA
ATOM      7  N   UNL     1       3.713   3.809  17.549  0.00  0.00    +0.000 N 
ATOM      8  C   UNL     1       3.736   2.341  17.449  0.00  0.00    +0.000 C 
ATOM      9  C   UNL     1       2.821   1.782  18.536  0.00  0.00    +0.000 C 
ATOM     10  C   UNL     1       2.510   3.012  19.327  0.00  0.00    +0.000 A 
ATOM     11  C   UNL     1       1.845   3.070  20.544  0.00  0.00    +0.000 A 
ATOM     12  C   UNL     1       1.564   4.323  21.084  0.00  0.00    +0.000 A 
ATOM     13  C   UNL     1       1.887   5.484  20.374  0.00  0.00    +0.000 A 
ATOM     14  C   UNL     1       2.556   5.405  19.145  0.00  0.00    +0.000 A 
ATOM     15  C   UNL     1       2.930   4.165  18.662  0.00  0.00    +0.000 A 
ENDBRANCH   4   5
ENDBRANCH   1   4
BRANCH   1  16
ATOM     16  C   UNL     1       7.189   6.847  17.184  0.00  0.00    +0.000 C 
BRANCH  16  17
ATOM     17  C   UNL     1       7.993   7.812  18.060  0.00  0.00    +0.000 C 
ATOM     18  O   UNL     1       8.620   7.370  19.021  0.00  0.00    +0.000 OA
ATOM     19  N   UNL     1       7.943   9.128  17.647  0.00  0.00    +0.000 N 
ATOM     20  H   UNL     1       7.237   9.337  16.946  0.00  0.00    +0.000 HD
BRANCH  19  21
ATOM     21  C   UNL     1       8.589  10.220  18.269  0.00  0.00    +0.000 A 
ATOM     22  C   UNL     1       8.645  11.499  17.701  0.00  0.00    +0.000 A 
ATOM     23  C   UNL     1       9.363  12.525  18.315  0.00  0.00    +0.000 A 
ATOM     24  C   UNL     1      10.012  12.280  19.515  0.00  0.00    +0.000 A 
ATOM     25  F   UNL     1      10.720  13.257  20.094  0.00  0.00    +0.000 F 
ATOM     26  C   UNL     1       9.938  11.032  20.121  0.00  0.00    +0.000 A 
ATOM     27  C   UNL     1       9.222  10.001  19.500  0.00  0.00    +0.000 A 
ENDBRANCH  19  21
ENDBRANCH  16  17
ENDBRANCH   1  16
TORSDOF 5
ENDMDL
MODEL 9
REMARK VINA RESULT:      -7.3      1.095      1.236
REMARK  Name = 
REMARK  7 active torsions:
REMARK  status: ('A' for Active; 'I' for Inactive)
REMARK    1  A    between atoms: C_1  and  C_2
REMARK    2  A    between atoms: C_2  and  C_3
REMARK    3  A    between atoms: C_2  and  N_14
REMARK    4  A    between atoms: N_14  and  C_15
REMARK    5  A    between atoms: N_14  and  C_16
REMARK    6  A    between atoms: C_16  and  C_17
REMARK    7  A    between atoms: N_19  and  C_20
REMARK                            x       y       z     vdW  Elec       q    Type
REMARK                         _______ _______ _______ _____ _____    ______ ____
ROOT
ATOM      1  N   UNL     1       1.955   4.683  19.675  0.00  0.00    +0.000 NA
ATOM      2  C   UNL     1       0.863   3.876  20.227  0.00  0.00    +0.000 C 
ENDROOT
BRANCH   1   4
ATOM      3  C   UNL     1       3.095   2.412  19.866  0.00  0.00    +0.000 C 
ATOM      4  C   UNL     1       3.163   3.861  19.335  0.00  0.00    +0.000 C 
BRANCH   4   5
ATOM      5  C   UNL     1       3.433   3.834  17.804  0.00  0.00    +0.000 C 
ATOM      6  O   UNL     1       2.594   3.337  17.045  0.00  0.00    +0.000 OA
ATOM      7  N   UNL     1       4.584   4.387  17.263  0.00  0.00    +0.000 N 
ATOM      8  C   UNL     1       4.611   4.636  15.813  0.00  0.00    +0.000 C 
ATOM      9  C   UNL     1       5.905   5.378  15.489  0.00  0.00    +0.000 C 
ATOM     10  C   UNL     1       6.424   5.688  16.856  0.00  0.00    +0.000 A 
ATOM     11  C   UNL     1       7.501   6.506  17.170  0.00  0.00    +0.000 A 
ATOM     12  C   UNL     1       7.894   6.599  18.502  0.00  0.00    +0.000 A 
ATOM     13  C   UNL     1       7.254   5.828  19.480  0.00  0.00    +0.000 A 
ATOM     14  C   UNL     1       6.170   5.007  19.143  0.00  0.00    +0.000 A 
ATOM     15  C   UNL     1       5.713   4.999  17.839  0.00  0.00    +0.000 A 
ENDBRANCH   4   5
ENDBRANCH   1   4
BRANCH   1  16
ATOM     16  C   UNL     1       2.327   5.810  20.561  0.00  0.00    +0.000 C 
BRANCH  16  17
ATOM     17  C   UNL     1       2.088   7.180  19.921  0.00  0.00    +0.000 C 
ATOM     18  O   UNL     1       2.610   7.437  18.837  0.00  0.00    +0.000 OA
ATOM     19  N   UNL     1       1.260   8.010  20.651  0.00  0.00    +0.000 N 
ATOM     20  H   UNL     1       1.068   7.705  21.601  0.00  0.00    +0.000 HD
BRANCH  19  21
ATOM     21  C   UNL     1       0.875   9.322  20.295  0.00  0.00    +0.000 A 
ATOM     22  C   UNL     1       0.440   9.669  19.010  0.00  0.00    +0.000 A 
ATOM     23  C   UNL     1       0.147  10.994  18.686  0.00  0.00    +0.000 A 
ATOM     24  C   UNL     1       0.268  11.977  19.656  0.00  0.00    +0.000 A 
ATOM     25  F   UNL     1       0.009  13.251  19.341  0.00  0.00    +0.000 F 
ATOM     26  C   UNL     1       0.656  11.653  20.951  0.00  0.00    +0.000 A 
ATOM     27  C   UNL     1       0.956  10.323  21.273  0.00  0.00    +0.000 A 
ENDBRANCH  19  21
ENDBRANCH  16  17
ENDBRANCH   1  16
TORSDOF 5
ENDMDL
