MODEL 1
REMARK VINA RESULT:      -8.5      0.000      0.000
REMARK  Name = 
REMARK  4 active torsions:
REMARK  status: ('A' for Active; 'I' for Inactive)
REMARK    1  A    between atoms: C_1  and  O_2
REMARK    2  A    between atoms: O_2  and  C_3
REMARK    3  A    between atoms: C_8  and  N_9
REMARK    4  A    between atoms: N_15  and  C_16
REMARK                            x       y       z     vdW  Elec       q    Type
REMARK                         _______ _______ _______ _____ _____    ______ ____
ROOT
ATOM      1  N   UNL     1      -0.200  10.657  21.430  0.00  0.00    +0.000 N 
ATOM      2  C   UNL     1      -0.166  10.557  19.965  0.00  0.00    +0.000 C 
ATOM      3  C   UNL     1       1.135   9.858  19.550  0.00  0.00    +0.000 C 
ATOM      4  N   UNL     1       1.322   8.565  20.222  0.00  0.00    +0.000 N 
ATOM      5  C   UNL     1       1.939   7.574  19.489  0.00  0.00    +0.000 C 
ATOM      6  O   UNL     1       2.222   7.727  18.304  0.00  0.00    +0.000 OA
ATOM      7  N   UNL     1       2.165   6.395  20.151  0.00  0.00    +0.000 N 
ATOM      8  C   UNL     1       1.116   8.588  21.686  0.00  0.00    +0.000 C 
ATOM      9  C   UNL     1      -0.158   9.353  22.105  0.00  0.00    +0.000 C 
ATOM     10  H   UNL     1       2.394   6.505  21.124  0.00  0.00    +0.000 HD
ENDROOT
BRANCH   7  11
ATOM     11  C   UNL     1       2.753   5.218  19.502  0.00  0.00    +0.000 C 
ATOM     12  C   UNL     1       4.290   5.355  19.375  0.00  0.00    +0.000 C 
ATOM     13  C   UNL     1       4.893   4.095  18.734  0.00  0.00    +0.000 C 
ATOM     14  C   UNL     1       4.580   2.877  19.617  0.00  0.00    +0.000 C 
ATOM     15  C   UNL     1       3.059   2.702  19.750  0.00  0.00    +0.000 C 
ATOM     16  C   UNL     1       2.452   2.489  18.354  0.00  0.00    +0.000 C 
ATOM     17  C   UNL     1       2.751   3.702  17.462  0.00  0.00    +0.000 C 
ATOM     18  C   UNL     1       4.271   3.889  17.342  0.00  0.00    +0.000 C 
ATOM     19  C   UNL     1       2.137   4.958  18.100  0.00  0.00    +0.000 C 
ATOM     20  C   UNL     1       2.456   3.971  20.377  0.00  0.00    +0.000 C 
ENDBRANCH   7  11
BRANCH   1  26
ATOM     21  C   UNL     1       0.044  13.035  22.038  0.00  0.00    +0.000 A 
ATOM     22  C   UNL     1      -0.501  14.181  22.640  0.00  0.00    +0.000 A 
ATOM     23  C   UNL     1      -1.751  14.140  23.255  0.00  0.00    +0.000 A 
ATOM     24  C   UNL     1      -2.458  12.948  23.294  0.00  0.00    +0.000 A 
ATOM     25  C   UNL     1      -1.911  11.799  22.718  0.00  0.00    +0.000 A 
ATOM     26  C   UNL     1      -0.660  11.801  22.070  0.00  0.00    +0.000 A 
BRANCH  21  28
ATOM     27  C   UNL     1       1.874  14.314  21.191  0.00  0.00    +0.000 C 
ATOM     28  O   UNL     1       1.255  13.050  21.381  0.00  0.00    +0.000 OA
ENDBRANCH  21  28
ENDBRANCH   1  26
TORSDOF 3
ENDMDL
MODEL 2
REMARK VINA RESULT:      -8.4      0.239      1.455
REMARK  Name = 
REMARK  4 active torsions:
REMARK  status: ('A' for Active; 'I' for Inactive)
REMARK    1  A    between atoms: C_1  and  O_2
REMARK    2  A    between atoms: O_2  and  C_3
REMARK    3  A    between atoms: C_8  and  N_9
REMARK    4  A    between atoms: N_15  and  C_16
REMARK                            x       y       z     vdW  Elec       q    Type
REMARK                         _______ _______ _______ _____ _____    ______ ____
ROOT
ATOM      1  N   UNL     1      -0.207  10.658  21.428  0.00  0.00    +0.000 N 
ATOM      2  C   UNL     1      -0.180  10.531  19.966  0.00  0.00    +0.000 C 
ATOM      3  C   UNL     1       1.123   9.833  19.557  0.00  0.00    +0.000 C 
ATOM      4  N   UNL     1       1.323   8.554  20.252  0.00  0.00    +0.000 N 
ATOM      5  C   UNL     1       1.942   7.553  19.535  0.00  0.00    +0.000 C 
ATOM      6  O   UNL     1       2.218   7.686  18.345  0.00  0.00    +0.000 OA
ATOM      7  N   UNL     1       2.179   6.389  20.218  0.00  0.00    +0.000 N 
ATOM      8  C   UNL     1       1.123   8.603  21.716  0.00  0.00    +0.000 C 
ATOM      9  C   UNL     1      -0.153   9.367  22.128  0.00  0.00    +0.000 C 
ATOM     10  H   UNL     1       2.412   6.517  21.187  0.00  0.00    +0.000 HD
ENDROOT
BRANCH   7  11
ATOM     11  C   UNL     1       2.771   5.203  19.587  0.00  0.00    +0.000 C 
ATOM     12  C   UNL     1       2.519   3.930  20.433  0.00  0.00    +0.000 C 
ATOM     13  C   UNL     1       3.107   2.694  19.735  0.00  0.00    +0.000 C 
ATOM     14  C   UNL     1       2.433   2.515  18.366  0.00  0.00    +0.000 C 
ATOM     15  C   UNL     1       2.679   3.756  17.494  0.00  0.00    +0.000 C 
ATOM     16  C   UNL     1       4.191   3.942  17.295  0.00  0.00    +0.000 C 
ATOM     17  C   UNL     1       4.878   4.129  18.656  0.00  0.00    +0.000 C 
ATOM     18  C   UNL     1       4.620   2.897  19.536  0.00  0.00    +0.000 C 
ATOM     19  C   UNL     1       4.296   5.373  19.345  0.00  0.00    +0.000 C 
ATOM     20  C   UNL     1       2.103   4.995  18.201  0.00  0.00    +0.000 C 
ENDBRANCH   7  11
BRANCH   1  26
ATOM     21  C   UNL     1       0.031  13.045  22.002  0.00  0.00    +0.000 A 
ATOM     22  C   UNL     1      -0.518  14.199  22.584  0.00  0.00    +0.000 A 
ATOM     23  C   UNL     1      -1.770  14.166  23.195  0.00  0.00    +0.000 A 
ATOM     24  C   UNL     1      -2.475  12.974  23.250  0.00  0.00    +0.000 A 
ATOM     25  C   UNL     1      -1.925  11.817  22.693  0.00  0.00    +0.000 A 
ATOM     26  C   UNL     1      -0.671  11.811  22.050  0.00  0.00    +0.000 A 
BRANCH  21  28
ATOM     27  C   UNL     1       1.357  13.878  20.199  0.00  0.00    +0.000 C 
ATOM     28  O   UNL     1       1.245  13.053  21.349  0.00  0.00    +0.000 OA
ENDBRANCH  21  28
ENDBRANCH   1  26
TORSDOF 3
ENDMDL
MODEL 3
REMARK VINA RESULT:      -8.1      0.576      1.555
REMARK  Name = 
REMARK  4 active torsions:
REMARK  status: ('A' for Active; 'I' for Inactive)
REMARK    1  A    between atoms: C_1  and  O_2
REMARK    2  A    between atoms: O_2  and  C_3
REMARK    3  A    between atoms: C_8  and  N_9
REMARK    4  A    between atoms: N_15  and  C_16
REMARK                            x       y       z     vdW  Elec       q    Type
REMARK                         _______ _______ _______ _____ _____    ______ ____
ROOT
ATOM      1  N   UNL     1       0.015  10.785  20.885  0.00  0.00    +0.000 N 
ATOM      2  C   UNL     1       0.127  10.584  19.435  0.00  0.00    +0.000 C 
ATOM      3  C   UNL     1       1.398   9.774  19.148  0.00  0.00    +0.000 C 
ATOM      4  N   UNL     1       1.454   8.520  19.911  0.00  0.00    +0.000 N 
ATOM      5  C   UNL     1       2.041   7.442  19.283  0.00  0.00    +0.000 C 
ATOM      6  O   UNL     1       2.403   7.496  18.110  0.00  0.00    +0.000 OA
ATOM      7  N   UNL     1       2.144   6.299  20.032  0.00  0.00    +0.000 N 
ATOM      8  C   UNL     1       1.165   8.656  21.355  0.00  0.00    +0.000 C 
ATOM      9  C   UNL     1      -0.075   9.530  21.644  0.00  0.00    +0.000 C 
ATOM     10  H   UNL     1       2.323   6.459  21.008  0.00  0.00    +0.000 HD
ENDROOT
BRANCH   7  11
ATOM     11  C   UNL     1       2.685   5.044  19.497  0.00  0.00    +0.000 C 
ATOM     12  C   UNL     1       2.144   4.759  18.074  0.00  0.00    +0.000 C 
ATOM     13  C   UNL     1       2.755   3.466  17.512  0.00  0.00    +0.000 C 
ATOM     14  C   UNL     1       4.282   3.618  17.436  0.00  0.00    +0.000 C 
ATOM     15  C   UNL     1       4.854   3.885  18.837  0.00  0.00    +0.000 C 
ATOM     16  C   UNL     1       4.506   2.704  19.758  0.00  0.00    +0.000 C 
ATOM     17  C   UNL     1       2.982   2.545  19.850  0.00  0.00    +0.000 C 
ATOM     18  C   UNL     1       2.405   2.295  18.447  0.00  0.00    +0.000 C 
ATOM     19  C   UNL     1       2.375   3.835  20.421  0.00  0.00    +0.000 C 
ATOM     20  C   UNL     1       4.229   5.172  19.403  0.00  0.00    +0.000 C 
ENDBRANCH   7  11
BRANCH   1  26
ATOM     21  C   UNL     1       0.477  13.104  21.587  0.00  0.00    +0.000 A 
ATOM     22  C   UNL     1      -0.010  14.332  22.065  0.00  0.00    +0.000 A 
ATOM     23  C   UNL     1      -1.361  14.500  22.360  0.00  0.00    +0.000 A 
ATOM     24  C   UNL     1      -2.236  13.436  22.202  0.00  0.00    +0.000 A 
ATOM     25  C   UNL     1      -1.754  12.205  21.749  0.00  0.00    +0.000 A 
ATOM     26  C   UNL     1      -0.400  11.998  21.421  0.00  0.00    +0.000 A 
BRANCH  21  28
ATOM     27  C   UNL     1       2.355  13.820  20.297  0.00  0.00    +0.000 C 
ATOM     28  O   UNL     1       1.797  12.917  21.241  0.00  0.00    +0.000 OA
ENDBRANCH  21  28
ENDBRANCH   1  26
TORSDOF 3
ENDMDL
MODEL 4
REMARK VINA RESULT:      -8.0      0.584      1.709
REMARK  Name = 
REMARK  4 active torsions:
REMARK  status: ('A' for Active; 'I' for Inactive)
REMARK    1  A    between atoms: C_1  and  O_2
REMARK    2  A    between atoms: O_2  and  C_3
REMARK    3  A    between atoms: C_8  and  N_9
REMARK    4  A    between atoms: N_15  and  C_16
REMARK                            x       y       z     vdW  Elec       q    Type
REMARK                         _______ _______ _______ _____ _____    ______ ____
ROOT
ATOM      1  N   UNL     1      -0.285  10.631  21.479  0.00  0.00    +0.000 N 
ATOM      2  C   UNL     1      -0.432  10.505  20.024  0.00  0.00    +0.000 C 
ATOM      3  C   UNL     1       0.878   9.957  19.443  0.00  0.00    +0.000 C 
ATOM      4  N   UNL     1       1.307   8.711  20.091  0.00  0.00    +0.000 N 
ATOM      5  C   UNL     1       1.937   7.784  19.287  0.00  0.00    +0.000 C 
ATOM      6  O   UNL     1       2.040   7.945  18.074  0.00  0.00    +0.000 OA
ATOM      7  N   UNL     1       2.387   6.655  19.920  0.00  0.00    +0.000 N 
ATOM      8  C   UNL     1       1.293   8.739  21.569  0.00  0.00    +0.000 C 
ATOM      9  C   UNL     1       0.002   9.356  22.150  0.00  0.00    +0.000 C 
ATOM     10  H   UNL     1       2.728   6.811  20.853  0.00  0.00    +0.000 HD
ENDROOT
BRANCH   7  11
ATOM     11  C   UNL     1       3.023   5.542  19.204  0.00  0.00    +0.000 C 
ATOM     12  C   UNL     1       2.043   4.887  18.198  0.00  0.00    +0.000 C 
ATOM     13  C   UNL     1       2.739   3.755  17.427  0.00  0.00    +0.000 C 
ATOM     14  C   UNL     1       3.931   4.330  16.647  0.00  0.00    +0.000 C 
ATOM     15  C   UNL     1       4.933   4.974  17.618  0.00  0.00    +0.000 C 
ATOM     16  C   UNL     1       5.436   3.908  18.603  0.00  0.00    +0.000 C 
ATOM     17  C   UNL     1       4.256   3.328  19.396  0.00  0.00    +0.000 C 
ATOM     18  C   UNL     1       3.244   2.699  18.425  0.00  0.00    +0.000 C 
ATOM     19  C   UNL     1       3.570   4.461  20.175  0.00  0.00    +0.000 C 
ATOM     20  C   UNL     1       4.230   6.097  18.401  0.00  0.00    +0.000 C 
ENDBRANCH   7  11
BRANCH   1  26
ATOM     21  C   UNL     1      -0.148  12.993  22.178  0.00  0.00    +0.000 A 
ATOM     22  C   UNL     1      -0.740  14.087  22.830  0.00  0.00    +0.000 A 
ATOM     23  C   UNL     1      -1.978  13.961  23.457  0.00  0.00    +0.000 A 
ATOM     24  C   UNL     1      -2.625  12.736  23.459  0.00  0.00    +0.000 A 
ATOM     25  C   UNL     1      -2.032  11.638  22.831  0.00  0.00    +0.000 A 
ATOM     26  C   UNL     1      -0.791  11.726  22.170  0.00  0.00    +0.000 A 
BRANCH  21  28
ATOM     27  C   UNL     1       1.228  14.217  20.658  0.00  0.00    +0.000 C 
ATOM     28  O   UNL     1       1.052  13.093  21.508  0.00  0.00    +0.000 OA
ENDBRANCH  21  28
ENDBRANCH   1  26
TORSDOF 3
ENDMDL
MODEL 5
REMARK VINA RESULT:      -7.8      1.498      2.008
REMARK  Name = 
REMARK  4 active torsions:
REMARK  status: ('A' for Active; 'I' for Inactive)
REMARK    1  A    between atoms: C_1  and  O_2
REMARK    2  A    between atoms: O_2  and  C_3
REMARK    3  A    between atoms: C_8  and  N_9
REMARK    4  A    between atoms: N_15  and  C_16
REMARK                            x       y       z     vdW  Elec       q    Type
REMARK                         _______ _______ _______ _____ _____    ______ ____
ROOT
ATOM      1  N   UNL     1       0.212  11.043  20.040  0.00  0.00    +0.000 N 
ATOM      2  C   UNL     1       0.553  10.788  18.634  0.00  0.00    +0.000 C 
ATOM      3  C   UNL     1       1.790   9.882  18.586  0.00  0.00    +0.000 C 
ATOM      4  N   UNL     1       1.623   8.653  19.372  0.00  0.00    +0.000 N 
ATOM      5  C   UNL     1       2.227   7.517  18.875  0.00  0.00    +0.000 C 
ATOM      6  O   UNL     1       2.785   7.508  17.781  0.00  0.00    +0.000 OA
ATOM      7  N   UNL     1       2.116   6.394  19.653  0.00  0.00    +0.000 N 
ATOM      8  C   UNL     1       1.104   8.855  20.742  0.00  0.00    +0.000 C 
ATOM      9  C   UNL     1      -0.098   9.822  20.797  0.00  0.00    +0.000 C 
ATOM     10  H   UNL     1       2.139   6.572  20.642  0.00  0.00    +0.000 HD
ENDROOT
BRANCH   7  11
ATOM     11  C   UNL     1       2.645   5.088  19.243  0.00  0.00    +0.000 C 
ATOM     12  C   UNL     1       4.194   5.091  19.217  0.00  0.00    +0.000 C 
ATOM     13  C   UNL     1       4.730   3.704  18.830  0.00  0.00    +0.000 C 
ATOM     14  C   UNL     1       4.258   2.671  19.865  0.00  0.00    +0.000 C 
ATOM     15  C   UNL     1       2.723   2.630  19.905  0.00  0.00    +0.000 C 
ATOM     16  C   UNL     1       2.193   2.238  18.517  0.00  0.00    +0.000 C 
ATOM     17  C   UNL     1       2.650   3.265  17.472  0.00  0.00    +0.000 C 
ATOM     18  C   UNL     1       4.186   3.321  17.443  0.00  0.00    +0.000 C 
ATOM     19  C   UNL     1       2.103   4.649  17.856  0.00  0.00    +0.000 C 
ATOM     20  C   UNL     1       2.188   4.024  20.277  0.00  0.00    +0.000 C 
ENDBRANCH   7  11
BRANCH   1  26
ATOM     21  C   UNL     1      -1.512  12.794  20.260  0.00  0.00    +0.000 A 
ATOM     22  C   UNL     1      -1.897  14.039  20.783  0.00  0.00    +0.000 A 
ATOM     23  C   UNL     1      -1.010  14.801  21.542  0.00  0.00    +0.000 A 
ATOM     24  C   UNL     1       0.276  14.336  21.766  0.00  0.00    +0.000 A 
ATOM     25  C   UNL     1       0.673  13.108  21.230  0.00  0.00    +0.000 A 
ATOM     26  C   UNL     1      -0.197  12.298  20.473  0.00  0.00    +0.000 A 
BRANCH  21  28
ATOM     27  C   UNL     1      -3.755  12.335  19.580  0.00  0.00    +0.000 C 
ATOM     28  O   UNL     1      -2.377  11.994  19.545  0.00  0.00    +0.000 OA
ENDBRANCH  21  28
ENDBRANCH   1  26
TORSDOF 3
ENDMDL
MODEL 6
REMARK VINA RESULT:      -7.8      1.287      1.316
REMARK  Name = 
REMARK  4 active torsions:
REMARK  status: ('A' for Active; 'I' for Inactive)
REMARK    1  A    between atoms: C_1  and  O_2
REMARK    2  A    between atoms: O_2  and  C_3
REMARK    3  A    between atoms: C_8  and  N_9
REMARK    4  A    between atoms: N_15  and  C_16
REMARK                            x       y       z     vdW  Elec       q    Type
REMARK                         _______ _______ _______ _____ _____    ______ ____
ROOT
ATOM      1  N   UNL     1       0.182  11.048  19.909  0.00  0.00    +0.000 N 
ATOM      2  C   UNL     1       0.500  10.762  18.505  0.00  0.00    +0.000 C 
ATOM      3  C   UNL     1       1.744   9.866  18.454  0.00  0.00    +0.000 C 
ATOM      4  N   UNL     1       1.604   8.655  19.273  0.00  0.00    +0.000 N 
ATOM      5  C   UNL     1       2.208   7.513  18.793  0.00  0.00    +0.000 C 
ATOM      6  O   UNL     1       2.745   7.482  17.689  0.00  0.00    +0.000 OA
ATOM      7  N   UNL     1       2.122   6.408  19.600  0.00  0.00    +0.000 N 
ATOM      8  C   UNL     1       1.108   8.886  20.647  0.00  0.00    +0.000 C 
ATOM      9  C   UNL     1      -0.102   9.843  20.701  0.00  0.00    +0.000 C 
ATOM     10  H   UNL     1       2.162   6.611  20.584  0.00  0.00    +0.000 HD
ENDROOT
BRANCH   7  11
ATOM     11  C   UNL     1       2.656   5.097  19.212  0.00  0.00    +0.000 C 
ATOM     12  C   UNL     1       4.200   5.130  19.094  0.00  0.00    +0.000 C 
ATOM     13  C   UNL     1       4.744   3.739  18.731  0.00  0.00    +0.000 C 
ATOM     14  C   UNL     1       4.356   2.740  19.833  0.00  0.00    +0.000 C 
ATOM     15  C   UNL     1       2.827   2.670  19.965  0.00  0.00    +0.000 C 
ATOM     16  C   UNL     1       2.226   2.211  18.627  0.00  0.00    +0.000 C 
ATOM     17  C   UNL     1       2.598   3.204  17.517  0.00  0.00    +0.000 C 
ATOM     18  C   UNL     1       4.128   3.288  17.395  0.00  0.00    +0.000 C 
ATOM     19  C   UNL     1       2.044   4.591  17.877  0.00  0.00    +0.000 C 
ATOM     20  C   UNL     1       2.283   4.068  20.312  0.00  0.00    +0.000 C 
ENDBRANCH   7  11
BRANCH   1  26
ATOM     21  C   UNL     1       0.668  13.403  20.460  0.00  0.00    +0.000 A 
ATOM     22  C   UNL     1       0.188  14.677  20.805  0.00  0.00    +0.000 A 
ATOM     23  C   UNL     1      -1.174  14.902  20.992  0.00  0.00    +0.000 A 
ATOM     24  C   UNL     1      -2.068  13.852  20.858  0.00  0.00    +0.000 A 
ATOM     25  C   UNL     1      -1.596  12.577  20.536  0.00  0.00    +0.000 A 
ATOM     26  C   UNL     1      -0.230  12.310  20.320  0.00  0.00    +0.000 A 
BRANCH  21  28
ATOM     27  C   UNL     1       2.944  13.864  21.013  0.00  0.00    +0.000 C 
ATOM     28  O   UNL     1       2.002  13.156  20.222  0.00  0.00    +0.000 OA
ENDBRANCH  21  28
ENDBRANCH   1  26
TORSDOF 3
ENDMDL
MODEL 7
REMARK VINA RESULT:      -7.8      1.621      2.774
REMARK  Name = 
REMARK  4 active torsions:
REMARK  status: ('A' for Active; 'I' for Inactive)
REMARK    1  A    between atoms: C_1  and  O_2
REMARK    2  A    between atoms: O_2  and  C_3
REMARK    3  A    between atoms: C_8  and  N_9
REMARK    4  A    between atoms: N_15  and  C_16
REMARK                            x       y       z     vdW  Elec       q    Type
REMARK                         _______ _______ _______ _____ _____    ______ ____
ROOT
ATOM      1  N   UNL     1      -0.023  10.794  21.126  0.00  0.00    +0.000 N 
ATOM      2  C   UNL     1       0.285   9.731  22.090  0.00  0.00    +0.000 C 
ATOM      3  C   UNL     1       0.313   8.388  21.348  0.00  0.00    +0.000 C 
ATOM      4  N   UNL     1       1.218   8.399  20.191  0.00  0.00    +0.000 N 
ATOM      5  C   UNL     1       1.884   7.223  19.919  0.00  0.00    +0.000 C 
ATOM      6  O   UNL     1       1.807   6.249  20.664  0.00  0.00    +0.000 OA
ATOM      7  N   UNL     1       2.674   7.230  18.799  0.00  0.00    +0.000 N 
ATOM      8  C   UNL     1       1.060   9.558  19.288  0.00  0.00    +0.000 C 
ATOM      9  C   UNL     1       0.962  10.903  20.041  0.00  0.00    +0.000 C 
ATOM     10  H   UNL     1       2.309   7.777  18.039  0.00  0.00    +0.000 HD
ENDROOT
BRANCH   7  11
ATOM     11  C   UNL     1       3.499   6.084  18.400  0.00  0.00    +0.000 C 
ATOM     12  C   UNL     1       2.631   4.940  17.820  0.00  0.00    +0.000 C 
ATOM     13  C   UNL     1       3.515   3.768  17.367  0.00  0.00    +0.000 C 
ATOM     14  C   UNL     1       4.481   4.253  16.275  0.00  0.00    +0.000 C 
ATOM     15  C   UNL     1       5.371   5.379  16.824  0.00  0.00    +0.000 C 
ATOM     16  C   UNL     1       6.179   4.847  18.018  0.00  0.00    +0.000 C 
ATOM     17  C   UNL     1       5.226   4.365  19.121  0.00  0.00    +0.000 C 
ATOM     18  C   UNL     1       4.324   3.250  18.570  0.00  0.00    +0.000 C 
ATOM     19  C   UNL     1       4.352   5.541  19.580  0.00  0.00    +0.000 C 
ATOM     20  C   UNL     1       4.483   6.546  17.292  0.00  0.00    +0.000 C 
ENDBRANCH   7  11
BRANCH   1  26
ATOM     21  C   UNL     1      -1.990  12.198  20.631  0.00  0.00    +0.000 A 
ATOM     22  C   UNL     1      -2.871  13.214  21.037  0.00  0.00    +0.000 A 
ATOM     23  C   UNL     1      -2.693  13.872  22.253  0.00  0.00    +0.000 A 
ATOM     24  C   UNL     1      -1.620  13.536  23.064  0.00  0.00    +0.000 A 
ATOM     25  C   UNL     1      -0.728  12.541  22.656  0.00  0.00    +0.000 A 
ATOM     26  C   UNL     1      -0.881  11.839  21.445  0.00  0.00    +0.000 A 
BRANCH  21  28
ATOM     27  C   UNL     1      -1.803  12.150  18.251  0.00  0.00    +0.000 C 
ATOM     28  O   UNL     1      -2.163  11.495  19.459  0.00  0.00    +0.000 OA
ENDBRANCH  21  28
ENDBRANCH   1  26
TORSDOF 3
ENDMDL
MODEL 8
REMARK VINA RESULT:      -7.8      1.281      1.466
REMARK  Name = 
REMARK  4 active torsions:
REMARK  status: ('A' for Active; 'I' for Inactive)
REMARK    1  A    between atoms: C_1  and  O_2
REMARK    2  A    between atoms: O_2  and  C_3
REMARK    3  A    between atoms: C_8  and  N_9
REMARK    4  A    between atoms: N_15  and  C_16
REMARK                            x       y       z     vdW  Elec       q    Type
REMARK                         _______ _______ _______ _____ _____    ______ ____
ROOT
ATOM      1  N   UNL     1      -0.362  11.037  20.162  0.00  0.00    +0.000 N 
ATOM      2  C   UNL     1      -0.181  10.931  18.709  0.00  0.00    +0.000 C 
ATOM      3  C   UNL     1       1.214  10.357  18.429  0.00  0.00    +0.000 C 
ATOM      4  N   UNL     1       1.460   9.094  19.136  0.00  0.00    +0.000 N 
ATOM      5  C   UNL     1       2.235   8.161  18.480  0.00  0.00    +0.000 C 
ATOM      6  O   UNL     1       2.613   8.333  17.324  0.00  0.00    +0.000 OA
ATOM      7  N   UNL     1       2.509   7.015  19.180  0.00  0.00    +0.000 N 
ATOM      8  C   UNL     1       1.115   9.107  20.574  0.00  0.00    +0.000 C 
ATOM      9  C   UNL     1      -0.260   9.748  20.860  0.00  0.00    +0.000 C 
ATOM     10  H   UNL     1       2.634   7.153  20.168  0.00  0.00    +0.000 HD
ENDROOT
BRANCH   7  11
ATOM     11  C   UNL     1       3.265   5.895  18.607  0.00  0.00    +0.000 C 
ATOM     12  C   UNL     1       4.400   6.398  17.681  0.00  0.00    +0.000 C 
ATOM     13  C   UNL     1       5.209   5.215  17.127  0.00  0.00    +0.000 C 
ATOM     14  C   UNL     1       5.836   4.438  18.295  0.00  0.00    +0.000 C 
ATOM     15  C   UNL     1       4.735   3.909  19.226  0.00  0.00    +0.000 C 
ATOM     16  C   UNL     1       3.808   2.974  18.432  0.00  0.00    +0.000 C 
ATOM     17  C   UNL     1       3.168   3.739  17.265  0.00  0.00    +0.000 C 
ATOM     18  C   UNL     1       4.269   4.284  16.341  0.00  0.00    +0.000 C 
ATOM     19  C   UNL     1       2.351   4.915  17.823  0.00  0.00    +0.000 C 
ATOM     20  C   UNL     1       3.916   5.094  19.767  0.00  0.00    +0.000 C 
ENDBRANCH   7  11
BRANCH   1  26
ATOM     21  C   UNL     1      -0.273  13.150  21.432  0.00  0.00    +0.000 A 
ATOM     22  C   UNL     1      -0.945  14.278  21.931  0.00  0.00    +0.000 A 
ATOM     23  C   UNL     1      -2.315  14.440  21.736  0.00  0.00    +0.000 A 
ATOM     24  C   UNL     1      -3.032  13.465  21.059  0.00  0.00    +0.000 A 
ATOM     25  C   UNL     1      -2.374  12.330  20.579  0.00  0.00    +0.000 A 
ATOM     26  C   UNL     1      -0.988  12.136  20.738  0.00  0.00    +0.000 A 
BRANCH  21  28
ATOM     27  C   UNL     1       1.926  13.894  20.874  0.00  0.00    +0.000 C 
ATOM     28  O   UNL     1       1.087  12.981  21.566  0.00  0.00    +0.000 OA
ENDBRANCH  21  28
ENDBRANCH   1  26
TORSDOF 3
ENDMDL
MODEL 9
REMARK VINA RESULT:      -7.7      1.523      2.503
REMARK  Name = 
REMARK  4 active torsions:
REMARK  status: ('A' for Active; 'I' for Inactive)
REMARK    1  A    between atoms: C_1  and  O_2
REMARK    2  A    between atoms: O_2  and  C_3
REMARK    3  A    between atoms: C_8  and  N_9
REMARK    4  A    between atoms: N_15  and  C_16
REMARK                            x       y       z     vdW  Elec       q    Type
REMARK                         _______ _______ _______ _____ _____    ______ ____
ROOT
ATOM      1  N   UNL     1       0.232  11.061  19.989  0.00  0.00    +0.000 N 
ATOM      2  C   UNL     1       0.576  10.775  18.590  0.00  0.00    +0.000 C 
ATOM      3  C   UNL     1       1.806   9.858  18.563  0.00  0.00    +0.000 C 
ATOM      4  N   UNL     1       1.627   8.646  19.374  0.00  0.00    +0.000 N 
ATOM      5  C   UNL     1       2.223   7.496  18.902  0.00  0.00    +0.000 C 
ATOM      6  O   UNL     1       2.784   7.460  17.810  0.00  0.00    +0.000 OA
ATOM      7  N   UNL     1       2.101   6.390  19.702  0.00  0.00    +0.000 N 
ATOM      8  C   UNL     1       1.105   8.880  20.737  0.00  0.00    +0.000 C 
ATOM      9  C   UNL     1      -0.090   9.858  20.769  0.00  0.00    +0.000 C 
ATOM     10  H   UNL     1       2.122   6.588  20.688  0.00  0.00    +0.000 HD
ENDROOT
BRANCH   7  11
ATOM     11  C   UNL     1       2.621   5.072  19.321  0.00  0.00    +0.000 C 
ATOM     12  C   UNL     1       2.146   3.973  20.304  0.00  0.00    +0.000 C 
ATOM     13  C   UNL     1       2.662   2.594  19.864  0.00  0.00    +0.000 C 
ATOM     14  C   UNL     1       2.115   2.271  18.465  0.00  0.00    +0.000 C 
ATOM     15  C   UNL     1       2.583   3.334  17.459  0.00  0.00    +0.000 C 
ATOM     16  C   UNL     1       4.119   3.346  17.415  0.00  0.00    +0.000 C 
ATOM     17  C   UNL     1       4.681   3.675  18.805  0.00  0.00    +0.000 C 
ATOM     18  C   UNL     1       4.200   2.622  19.816  0.00  0.00    +0.000 C 
ATOM     19  C   UNL     1       4.171   5.059  19.238  0.00  0.00    +0.000 C 
ATOM     20  C   UNL     1       2.078   4.716  17.911  0.00  0.00    +0.000 C 
ENDBRANCH   7  11
BRANCH   1  26
ATOM     21  C   UNL     1      -1.452  12.859  20.098  0.00  0.00    +0.000 A 
ATOM     22  C   UNL     1      -1.834  14.116  20.596  0.00  0.00    +0.000 A 
ATOM     23  C   UNL     1      -0.977  14.853  21.410  0.00  0.00    +0.000 A 
ATOM     24  C   UNL     1       0.279  14.353  21.716  0.00  0.00    +0.000 A 
ATOM     25  C   UNL     1       0.674  13.114  21.206  0.00  0.00    +0.000 A 
ATOM     26  C   UNL     1      -0.168  12.327  20.395  0.00  0.00    +0.000 A 
BRANCH  21  28
ATOM     27  C   UNL     1      -3.688  12.236  19.537  0.00  0.00    +0.000 C 
ATOM     28  O   UNL     1      -2.292  12.083  19.330  0.00  0.00    +0.000 OA
ENDBRANCH  21  28
ENDBRANCH   1  26
TORSDOF 3
ENDMDL
