MODEL 1
REMARK VINA RESULT:      -6.3      0.000      0.000
REMARK  Name = 
REMARK  8 active torsions:
REMARK  status: ('A' for Active; 'I' for Inactive)
REMARK    1  A    between atoms: C_1  and  C_2
REMARK    2  A    between atoms: C_4  and  O_5
REMARK    3  A    between atoms: O_5  and  C_6
REMARK    4  A    between atoms: C_6  and  C_7
REMARK    5  A    between atoms: C_7  and  C_8
REMARK    6  A    between atoms: C_7  and  C_9
REMARK    7  A    between atoms: C_7  and  C_10
REMARK    8  A    between atoms: C_10  and  O_11
REMARK                            x       y       z     vdW  Elec       q    Type
REMARK                         _______ _______ _______ _____ _____    ______ ____
ROOT
ATOM      1  C   UNL     1       6.254   4.976  14.988  0.00  0.00    +0.000 C 
ATOM      2  C   UNL     1       6.234   4.896  16.484  0.00  0.00    +0.000 A 
ATOM      3  C   UNL     1       5.300   4.137  17.153  0.00  0.00    +0.000 A 
ATOM      4  C   UNL     1       5.399   4.151  18.524  0.00  0.00    +0.000 A 
ATOM      5  N   UNL     1       6.329   4.841  19.202  0.00  0.00    +0.000 NA
ATOM      6  C   UNL     1       7.173   5.561  18.468  0.00  0.00    +0.000 A 
ATOM      7  N   UNL     1       8.146   6.271  19.140  0.00  0.00    +0.000 N 
ATOM      8  N   UNL     1       7.182   5.604  17.134  0.00  0.00    +0.000 NA
ATOM      9  H   UNL     1       8.310   5.844  20.041  0.00  0.00    +0.000 HD
ATOM     10  H   UNL     1       8.943   6.404  18.535  0.00  0.00    +0.000 HD
ENDROOT
BRANCH   4  11
ATOM     11  O   UNL     1       4.477   3.391  19.224  0.00  0.00    +0.000 OA
BRANCH  11  12
ATOM     12  C   UNL     1       3.385   4.172  19.727  0.00  0.00    +0.000 C 
BRANCH  12  13
ATOM     13  C   UNL     1       2.031   3.592  19.258  0.00  0.00    +0.000 C 
ATOM     14  C   UNL     1       0.965   3.920  20.322  0.00  0.00    +0.000 C 
ATOM     15  C   UNL     1       1.612   4.244  17.929  0.00  0.00    +0.000 C 
BRANCH  13  16
ATOM     16  C   UNL     1       2.164   2.065  19.078  0.00  0.00    +0.000 C 
BRANCH  16  17
ATOM     17  O   UNL     1       2.595   1.714  17.768  0.00  0.00    +0.000 OA
ATOM     18  H   UNL     1       3.386   2.240  17.562  0.00  0.00    +0.000 HD
ENDBRANCH  16  17
ENDBRANCH  13  16
ENDBRANCH  12  13
ENDBRANCH  11  12
ENDBRANCH   4  11
TORSDOF 5
ENDMDL
MODEL 2
REMARK VINA RESULT:      -6.2      1.009      1.041
REMARK  Name = 
REMARK  8 active torsions:
REMARK  status: ('A' for Active; 'I' for Inactive)
REMARK    1  A    between atoms: C_1  and  C_2
REMARK    2  A    between atoms: C_4  and  O_5
REMARK    3  A    between atoms: O_5  and  C_6
REMARK    4  A    between atoms: C_6  and  C_7
REMARK    5  A    between atoms: C_7  and  C_8
REMARK    6  A    between atoms: C_7  and  C_9
REMARK    7  A    between atoms: C_7  and  C_10
REMARK    8  A    between atoms: C_10  and  O_11
REMARK                            x       y       z     vdW  Elec       q    Type
REMARK                         _______ _______ _______ _____ _____    ______ ____
ROOT
ATOM      1  C   UNL     1       7.042   4.763  14.385  0.00  0.00    +0.000 C 
ATOM      2  C   UNL     1       6.609   4.552  15.804  0.00  0.00    +0.000 A 
ATOM      3  C   UNL     1       5.380   4.012  16.110  0.00  0.00    +0.000 A 
ATOM      4  C   UNL     1       5.114   3.871  17.452  0.00  0.00    +0.000 A 
ATOM      5  N   UNL     1       5.967   4.223  18.427  0.00  0.00    +0.000 NA
ATOM      6  C   UNL     1       7.119   4.756  18.031  0.00  0.00    +0.000 A 
ATOM      7  N   UNL     1       8.018   5.115  19.013  0.00  0.00    +0.000 N 
ATOM      8  N   UNL     1       7.491   4.919  16.759  0.00  0.00    +0.000 NA
ATOM      9  H   UNL     1       7.833   4.578  19.848  0.00  0.00    +0.000 HD
ATOM     10  H   UNL     1       8.955   5.086  18.638  0.00  0.00    +0.000 HD
ENDROOT
BRANCH   4  11
ATOM     11  O   UNL     1       3.889   3.323  17.791  0.00  0.00    +0.000 OA
BRANCH  11  12
ATOM     12  C   UNL     1       3.482   3.660  19.124  0.00  0.00    +0.000 C 
BRANCH  12  13
ATOM     13  C   UNL     1       1.968   3.968  19.177  0.00  0.00    +0.000 C 
ATOM     14  C   UNL     1       1.715   4.972  20.318  0.00  0.00    +0.000 C 
ATOM     15  C   UNL     1       1.514   4.608  17.853  0.00  0.00    +0.000 C 
BRANCH  13  16
ATOM     16  C   UNL     1       1.188   2.659  19.424  0.00  0.00    +0.000 C 
BRANCH  16  17
ATOM     17  O   UNL     1       1.668   1.587  18.621  0.00  0.00    +0.000 OA
ATOM     18  H   UNL     1       2.239   1.963  17.930  0.00  0.00    +0.000 HD
ENDBRANCH  16  17
ENDBRANCH  13  16
ENDBRANCH  12  13
ENDBRANCH  11  12
ENDBRANCH   4  11
TORSDOF 5
ENDMDL
MODEL 3
REMARK VINA RESULT:      -6.2      1.199      1.970
REMARK  Name = 
REMARK  8 active torsions:
REMARK  status: ('A' for Active; 'I' for Inactive)
REMARK    1  A    between atoms: C_1  and  C_2
REMARK    2  A    between atoms: C_4  and  O_5
REMARK    3  A    between atoms: O_5  and  C_6
REMARK    4  A    between atoms: C_6  and  C_7
REMARK    5  A    between atoms: C_7  and  C_8
REMARK    6  A    between atoms: C_7  and  C_9
REMARK    7  A    between atoms: C_7  and  C_10
REMARK    8  A    between atoms: C_10  and  O_11
REMARK                            x       y       z     vdW  Elec       q    Type
REMARK                         _______ _______ _______ _____ _____    ______ ____
ROOT
ATOM      1  C   UNL     1       6.800   4.986  15.124  0.00  0.00    +0.000 C 
ATOM      2  C   UNL     1       6.372   4.764  16.543  0.00  0.00    +0.000 A 
ATOM      3  C   UNL     1       5.202   4.106  16.848  0.00  0.00    +0.000 A 
ATOM      4  C   UNL     1       4.934   3.969  18.190  0.00  0.00    +0.000 A 
ATOM      5  N   UNL     1       5.731   4.431  19.165  0.00  0.00    +0.000 NA
ATOM      6  C   UNL     1       6.827   5.072  18.770  0.00  0.00    +0.000 A 
ATOM      7  N   UNL     1       7.670   5.546  19.753  0.00  0.00    +0.000 N 
ATOM      8  N   UNL     1       7.197   5.243  17.499  0.00  0.00    +0.000 NA
ATOM      9  H   UNL     1       7.530   5.012  20.599  0.00  0.00    +0.000 HD
ATOM     10  H   UNL     1       8.610   5.607  19.390  0.00  0.00    +0.000 HD
ENDROOT
BRANCH   4  11
ATOM     11  O   UNL     1       3.767   3.304  18.528  0.00  0.00    +0.000 OA
BRANCH  11  12
ATOM     12  C   UNL     1       3.566   3.227  19.945  0.00  0.00    +0.000 C 
BRANCH  12  13
ATOM     13  C   UNL     1       2.095   3.538  20.311  0.00  0.00    +0.000 C 
ATOM     14  C   UNL     1       1.195   3.067  19.153  0.00  0.00    +0.000 C 
ATOM     15  C   UNL     1       1.696   2.771  21.584  0.00  0.00    +0.000 C 
BRANCH  13  16
ATOM     16  C   UNL     1       1.935   5.057  20.539  0.00  0.00    +0.000 C 
BRANCH  16  17
ATOM     17  O   UNL     1       3.143   5.768  20.293  0.00  0.00    +0.000 OA
ATOM     18  H   UNL     1       3.006   6.692  20.558  0.00  0.00    +0.000 HD
ENDBRANCH  16  17
ENDBRANCH  13  16
ENDBRANCH  12  13
ENDBRANCH  11  12
ENDBRANCH   4  11
TORSDOF 5
ENDMDL
MODEL 4
REMARK VINA RESULT:      -6.1      1.517      1.698
REMARK  Name = 
REMARK  8 active torsions:
REMARK  status: ('A' for Active; 'I' for Inactive)
REMARK    1  A    between atoms: C_1  and  C_2
REMARK    2  A    between atoms: C_4  and  O_5
REMARK    3  A    between atoms: O_5  and  C_6
REMARK    4  A    between atoms: C_6  and  C_7
REMARK    5  A    between atoms: C_7  and  C_8
REMARK    6  A    between atoms: C_7  and  C_9
REMARK    7  A    between atoms: C_7  and  C_10
REMARK    8  A    between atoms: C_10  and  O_11
REMARK                            x       y       z     vdW  Elec       q    Type
REMARK                         _______ _______ _______ _____ _____    ______ ____
ROOT
ATOM      1  C   UNL     1       6.401   4.008  14.476  0.00  0.00    +0.000 C 
ATOM      2  C   UNL     1       6.295   4.734  15.782  0.00  0.00    +0.000 A 
ATOM      3  C   UNL     1       5.474   4.285  16.792  0.00  0.00    +0.000 A 
ATOM      4  C   UNL     1       5.478   5.045  17.938  0.00  0.00    +0.000 A 
ATOM      5  N   UNL     1       6.216   6.154  18.101  0.00  0.00    +0.000 NA
ATOM      6  C   UNL     1       6.960   6.518  17.061  0.00  0.00    +0.000 A 
ATOM      7  N   UNL     1       7.738   7.648  17.207  0.00  0.00    +0.000 N 
ATOM      8  N   UNL     1       7.051   5.846  15.911  0.00  0.00    +0.000 NA
ATOM      9  H   UNL     1       7.917   7.806  18.188  0.00  0.00    +0.000 HD
ATOM     10  H   UNL     1       8.536   7.589  16.591  0.00  0.00    +0.000 HD
ENDROOT
BRANCH   4  11
ATOM     11  O   UNL     1       4.667   4.614  18.975  0.00  0.00    +0.000 OA
BRANCH  11  12
ATOM     12  C   UNL     1       3.332   4.316  18.545  0.00  0.00    +0.000 C 
BRANCH  12  13
ATOM     13  C   UNL     1       2.860   2.957  19.113  0.00  0.00    +0.000 C 
ATOM     14  C   UNL     1       1.413   3.116  19.619  0.00  0.00    +0.000 C 
ATOM     15  C   UNL     1       2.877   1.889  18.006  0.00  0.00    +0.000 C 
BRANCH  13  16
ATOM     16  C   UNL     1       3.794   2.535  20.267  0.00  0.00    +0.000 C 
BRANCH  16  17
ATOM     17  O   UNL     1       5.005   1.955  19.795  0.00  0.00    +0.000 OA
ATOM     18  H   UNL     1       4.815   1.509  18.953  0.00  0.00    +0.000 HD
ENDBRANCH  16  17
ENDBRANCH  13  16
ENDBRANCH  12  13
ENDBRANCH  11  12
ENDBRANCH   4  11
TORSDOF 5
ENDMDL
MODEL 5
REMARK VINA RESULT:      -6.1      1.763      2.741
REMARK  Name = 
REMARK  8 active torsions:
REMARK  status: ('A' for Active; 'I' for Inactive)
REMARK    1  A    between atoms: C_1  and  C_2
REMARK    2  A    between atoms: C_4  and  O_5
REMARK    3  A    between atoms: O_5  and  C_6
REMARK    4  A    between atoms: C_6  and  C_7
REMARK    5  A    between atoms: C_7  and  C_8
REMARK    6  A    between atoms: C_7  and  C_9
REMARK    7  A    between atoms: C_7  and  C_10
REMARK    8  A    between atoms: C_10  and  O_11
REMARK                            x       y       z     vdW  Elec       q    Type
REMARK                         _______ _______ _______ _____ _____    ______ ____
ROOT
ATOM      1  C   UNL     1       8.136   7.970  18.158  0.00  0.00    +0.000 C 
ATOM      2  C   UNL     1       7.453   6.723  17.683  0.00  0.00    +0.000 A 
ATOM      3  C   UNL     1       6.794   5.885  18.554  0.00  0.00    +0.000 A 
ATOM      4  C   UNL     1       6.209   4.780  17.982  0.00  0.00    +0.000 A 
ATOM      5  N   UNL     1       6.253   4.502  16.670  0.00  0.00    +0.000 NA
ATOM      6  C   UNL     1       6.931   5.360  15.913  0.00  0.00    +0.000 A 
ATOM      7  N   UNL     1       6.981   5.104  14.559  0.00  0.00    +0.000 N 
ATOM      8  N   UNL     1       7.518   6.474  16.357  0.00  0.00    +0.000 NA
ATOM      9  H   UNL     1       6.192   4.530  14.298  0.00  0.00    +0.000 HD
ATOM     10  H   UNL     1       7.113   5.970  14.058  0.00  0.00    +0.000 HD
ENDROOT
BRANCH   4  11
ATOM     11  O   UNL     1       5.533   3.922  18.833  0.00  0.00    +0.000 OA
BRANCH  11  12
ATOM     12  C   UNL     1       4.110   3.983  18.664  0.00  0.00    +0.000 C 
BRANCH  12  13
ATOM     13  C   UNL     1       3.432   2.721  19.246  0.00  0.00    +0.000 C 
ATOM     14  C   UNL     1       2.000   3.093  19.678  0.00  0.00    +0.000 C 
ATOM     15  C   UNL     1       3.349   1.624  18.170  0.00  0.00    +0.000 C 
BRANCH  13  16
ATOM     16  C   UNL     1       4.248   2.213  20.454  0.00  0.00    +0.000 C 
BRANCH  16  17
ATOM     17  O   UNL     1       5.270   1.302  20.068  0.00  0.00    +0.000 OA
ATOM     18  H   UNL     1       6.034   1.444  20.652  0.00  0.00    +0.000 HD
ENDBRANCH  16  17
ENDBRANCH  13  16
ENDBRANCH  12  13
ENDBRANCH  11  12
ENDBRANCH   4  11
TORSDOF 5
ENDMDL
MODEL 6
REMARK VINA RESULT:      -6.1      1.348      2.244
REMARK  Name = 
REMARK  8 active torsions:
REMARK  status: ('A' for Active; 'I' for Inactive)
REMARK    1  A    between atoms: C_1  and  C_2
REMARK    2  A    between atoms: C_4  and  O_5
REMARK    3  A    between atoms: O_5  and  C_6
REMARK    4  A    between atoms: C_6  and  C_7
REMARK    5  A    between atoms: C_7  and  C_8
REMARK    6  A    between atoms: C_7  and  C_9
REMARK    7  A    between atoms: C_7  and  C_10
REMARK    8  A    between atoms: C_10  and  O_11
REMARK                            x       y       z     vdW  Elec       q    Type
REMARK                         _______ _______ _______ _____ _____    ______ ____
ROOT
ATOM      1  C   UNL     1       7.802   7.313  18.055  0.00  0.00    +0.000 C 
ATOM      2  C   UNL     1       7.056   6.158  17.459  0.00  0.00    +0.000 A 
ATOM      3  C   UNL     1       6.168   5.412  18.201  0.00  0.00    +0.000 A 
ATOM      4  C   UNL     1       5.552   4.385  17.527  0.00  0.00    +0.000 A 
ATOM      5  N   UNL     1       5.771   4.096  16.235  0.00  0.00    +0.000 NA
ATOM      6  C   UNL     1       6.663   4.860  15.609  0.00  0.00    +0.000 A 
ATOM      7  N   UNL     1       6.898   4.591  14.277  0.00  0.00    +0.000 N 
ATOM      8  N   UNL     1       7.303   5.894  16.157  0.00  0.00    +0.000 NA
ATOM      9  H   UNL     1       6.097   4.118  13.884  0.00  0.00    +0.000 HD
ATOM     10  H   UNL     1       7.215   5.432  13.816  0.00  0.00    +0.000 HD
ENDROOT
BRANCH   4  11
ATOM     11  O   UNL     1       4.647   3.621  18.246  0.00  0.00    +0.000 OA
BRANCH  11  12
ATOM     12  C   UNL     1       3.783   4.417  19.068  0.00  0.00    +0.000 C 
BRANCH  12  13
ATOM     13  C   UNL     1       2.333   3.881  19.023  0.00  0.00    +0.000 C 
ATOM     14  C   UNL     1       1.555   4.479  20.211  0.00  0.00    +0.000 C 
ATOM     15  C   UNL     1       1.648   4.324  17.718  0.00  0.00    +0.000 C 
BRANCH  13  16
ATOM     16  C   UNL     1       2.355   2.340  19.110  0.00  0.00    +0.000 C 
BRANCH  16  17
ATOM     17  O   UNL     1       2.357   1.729  17.825  0.00  0.00    +0.000 OA
ATOM     18  H   UNL     1       3.275   1.707  17.506  0.00  0.00    +0.000 HD
ENDBRANCH  16  17
ENDBRANCH  13  16
ENDBRANCH  12  13
ENDBRANCH  11  12
ENDBRANCH   4  11
TORSDOF 5
ENDMDL
MODEL 7
REMARK VINA RESULT:      -6.1      1.667      2.776
REMARK  Name = 
REMARK  8 active torsions:
REMARK  status: ('A' for Active; 'I' for Inactive)
REMARK    1  A    between atoms: C_1  and  C_2
REMARK    2  A    between atoms: C_4  and  O_5
REMARK    3  A    between atoms: O_5  and  C_6
REMARK    4  A    between atoms: C_6  and  C_7
REMARK    5  A    between atoms: C_7  and  C_8
REMARK    6  A    between atoms: C_7  and  C_9
REMARK    7  A    between atoms: C_7  and  C_10
REMARK    8  A    between atoms: C_10  and  O_11
REMARK                            x       y       z     vdW  Elec       q    Type
REMARK                         _______ _______ _______ _____ _____    ______ ____
ROOT
ATOM      1  C   UNL     1       7.856   7.706  17.753  0.00  0.00    +0.000 C 
ATOM      2  C   UNL     1       7.150   6.441  17.371  0.00  0.00    +0.000 A 
ATOM      3  C   UNL     1       6.399   5.730  18.280  0.00  0.00    +0.000 A 
ATOM      4  C   UNL     1       5.803   4.591  17.794  0.00  0.00    +0.000 A 
ATOM      5  N   UNL     1       5.919   4.167  16.526  0.00  0.00    +0.000 NA
ATOM      6  C   UNL     1       6.682   4.909  15.729  0.00  0.00    +0.000 A 
ATOM      7  N   UNL     1       6.807   4.501  14.417  0.00  0.00    +0.000 N 
ATOM      8  N   UNL     1       7.289   6.042  16.087  0.00  0.00    +0.000 NA
ATOM      9  H   UNL     1       6.012   3.931  14.167  0.00  0.00    +0.000 HD
ATOM     10  H   UNL     1       7.011   5.300  13.835  0.00  0.00    +0.000 HD
ENDROOT
BRANCH   4  11
ATOM     11  O   UNL     1       5.036   3.860  18.685  0.00  0.00    +0.000 OA
BRANCH  11  12
ATOM     12  C   UNL     1       3.909   3.232  18.058  0.00  0.00    +0.000 C 
BRANCH  12  13
ATOM     13  C   UNL     1       2.584   3.724  18.685  0.00  0.00    +0.000 C 
ATOM     14  C   UNL     1       2.084   4.938  17.880  0.00  0.00    +0.000 C 
ATOM     15  C   UNL     1       1.521   2.614  18.607  0.00  0.00    +0.000 C 
BRANCH  13  16
ATOM     16  C   UNL     1       2.830   4.114  20.159  0.00  0.00    +0.000 C 
BRANCH  16  17
ATOM     17  O   UNL     1       3.261   5.463  20.293  0.00  0.00    +0.000 OA
ATOM     18  H   UNL     1       3.157   5.720  21.224  0.00  0.00    +0.000 HD
ENDBRANCH  16  17
ENDBRANCH  13  16
ENDBRANCH  12  13
ENDBRANCH  11  12
ENDBRANCH   4  11
TORSDOF 5
ENDMDL
MODEL 8
REMARK VINA RESULT:      -6.0      1.481      2.039
REMARK  Name = 
REMARK  8 active torsions:
REMARK  status: ('A' for Active; 'I' for Inactive)
REMARK    1  A    between atoms: C_1  and  C_2
REMARK    2  A    between atoms: C_4  and  O_5
REMARK    3  A    between atoms: O_5  and  C_6
REMARK    4  A    between atoms: C_6  and  C_7
REMARK    5  A    between atoms: C_7  and  C_8
REMARK    6  A    between atoms: C_7  and  C_9
REMARK    7  A    between atoms: C_7  and  C_10
REMARK    8  A    between atoms: C_10  and  O_11
REMARK                            x       y       z     vdW  Elec       q    Type
REMARK                         _______ _______ _______ _____ _____    ______ ____
ROOT
ATOM      1  C   UNL     1       6.369   4.123  13.940  0.00  0.00    +0.000 C 
ATOM      2  C   UNL     1       6.320   4.622  15.353  0.00  0.00    +0.000 A 
ATOM      3  C   UNL     1       5.626   3.947  16.332  0.00  0.00    +0.000 A 
ATOM      4  C   UNL     1       5.669   4.514  17.584  0.00  0.00    +0.000 A 
ATOM      5  N   UNL     1       6.332   5.645  17.873  0.00  0.00    +0.000 NA
ATOM      6  C   UNL     1       6.954   6.234  16.856  0.00  0.00    +0.000 A 
ATOM      7  N   UNL     1       7.651   7.392  17.130  0.00  0.00    +0.000 N 
ATOM      8  N   UNL     1       6.997   5.763  15.608  0.00  0.00    +0.000 NA
ATOM      9  H   UNL     1       7.902   7.408  18.108  0.00  0.00    +0.000 HD
ATOM     10  H   UNL     1       8.396   7.502  16.456  0.00  0.00    +0.000 HD
ENDROOT
BRANCH   4  11
ATOM     11  O   UNL     1       4.986   3.853  18.591  0.00  0.00    +0.000 OA
BRANCH  11  12
ATOM     12  C   UNL     1       3.848   3.130  18.104  0.00  0.00    +0.000 C 
BRANCH  12  13
ATOM     13  C   UNL     1       2.543   3.660  18.742  0.00  0.00    +0.000 C 
ATOM     14  C   UNL     1       2.005   4.811  17.869  0.00  0.00    +0.000 C 
ATOM     15  C   UNL     1       1.486   2.543  18.785  0.00  0.00    +0.000 C 
BRANCH  13  16
ATOM     16  C   UNL     1       2.840   4.159  20.173  0.00  0.00    +0.000 C 
BRANCH  16  17
ATOM     17  O   UNL     1       3.207   5.534  20.198  0.00  0.00    +0.000 OA
ATOM     18  H   UNL     1       2.931   5.902  21.053  0.00  0.00    +0.000 HD
ENDBRANCH  16  17
ENDBRANCH  13  16
ENDBRANCH  12  13
ENDBRANCH  11  12
ENDBRANCH   4  11
TORSDOF 5
ENDMDL
MODEL 9
REMARK VINA RESULT:      -6.0      2.594      5.330
REMARK  Name = 
REMARK  8 active torsions:
REMARK  status: ('A' for Active; 'I' for Inactive)
REMARK    1  A    between atoms: C_1  and  C_2
REMARK    2  A    between atoms: C_4  and  O_5
REMARK    3  A    between atoms: O_5  and  C_6
REMARK    4  A    between atoms: C_6  and  C_7
REMARK    5  A    between atoms: C_7  and  C_8
REMARK    6  A    between atoms: C_7  and  C_9
REMARK    7  A    between atoms: C_7  and  C_10
REMARK    8  A    between atoms: C_10  and  O_11
REMARK                            x       y       z     vdW  Elec       q    Type
REMARK                         _______ _______ _______ _____ _____    ______ ____
ROOT
ATOM      1  C   UNL     1       1.148   2.944  21.354  0.00  0.00    +0.000 C 
ATOM      2  C   UNL     1       2.293   3.094  20.398  0.00  0.00    +0.000 A 
ATOM      3  C   UNL     1       2.945   4.296  20.238  0.00  0.00    +0.000 A 
ATOM      4  C   UNL     1       3.979   4.291  19.332  0.00  0.00    +0.000 A 
ATOM      5  N   UNL     1       4.359   3.210  18.632  0.00  0.00    +0.000 NA
ATOM      6  C   UNL     1       3.653   2.102  18.840  0.00  0.00    +0.000 A 
ATOM      7  N   UNL     1       4.031   0.974  18.142  0.00  0.00    +0.000 N 
ATOM      8  N   UNL     1       2.647   1.987  19.710  0.00  0.00    +0.000 NA
ATOM      9  H   UNL     1       5.002   1.055  17.875  0.00  0.00    +0.000 HD
ATOM     10  H   UNL     1       3.756   0.151  18.660  0.00  0.00    +0.000 HD
ENDROOT
BRANCH   4  11
ATOM     11  O   UNL     1       4.659   5.484  19.154  0.00  0.00    +0.000 OA
BRANCH  11  12
ATOM     12  C   UNL     1       6.083   5.326  19.229  0.00  0.00    +0.000 C 
BRANCH  12  13
ATOM     13  C   UNL     1       6.761   5.820  17.929  0.00  0.00    +0.000 C 
ATOM     14  C   UNL     1       5.691   6.485  17.043  0.00  0.00    +0.000 C 
ATOM     15  C   UNL     1       7.839   6.866  18.264  0.00  0.00    +0.000 C 
BRANCH  13  16
ATOM     16  C   UNL     1       7.400   4.619  17.199  0.00  0.00    +0.000 C 
BRANCH  16  17
ATOM     17  O   UNL     1       6.431   3.810  16.543  0.00  0.00    +0.000 OA
ATOM     18  H   UNL     1       6.291   4.174  15.652  0.00  0.00    +0.000 HD
ENDBRANCH  16  17
ENDBRANCH  13  16
ENDBRANCH  12  13
ENDBRANCH  11  12
ENDBRANCH   4  11
TORSDOF 5
ENDMDL
