MODEL 1
REMARK VINA RESULT:      -8.2      0.000      0.000
REMARK  Name = 
REMARK  5 active torsions:
REMARK  status: ('A' for Active; 'I' for Inactive)
REMARK    1  A    between atoms: C_1  and  O_2
REMARK    2  A    between atoms: O_2  and  C_3
REMARK    3  A    between atoms: N_13  and  C_14
REMARK    4  A    between atoms: C_14  and  C_15
REMARK    5  A    between atoms: C_19  and  C_20
REMARK                            x       y       z     vdW  Elec       q    Type
REMARK                         _______ _______ _______ _____ _____    ______ ____
ROOT
ATOM      1  C   UNL     1       1.391  10.664  18.859  0.00  0.00    +0.000 A 
ATOM      2  C   UNL     1       2.097  10.108  17.805  0.00  0.00    +0.000 A 
ATOM      3  C   UNL     1       2.456   8.756  17.838  0.00  0.00    +0.000 A 
ATOM      4  C   UNL     1       2.134   7.899  18.920  0.00  0.00    +0.000 A 
ATOM      5  C   UNL     1       1.389   8.487  19.976  0.00  0.00    +0.000 A 
ATOM      6  C   UNL     1       1.009   7.714  21.084  0.00  0.00    +0.000 A 
ATOM      7  C   UNL     1       1.373   6.376  21.184  0.00  0.00    +0.000 A 
ATOM      8  C   UNL     1       2.125   5.775  20.174  0.00  0.00    +0.000 A 
ATOM      9  C   UNL     1       2.536   4.382  20.331  0.00  0.00    +0.000 A 
ATOM     10  C   UNL     1       3.231   3.783  19.363  0.00  0.00    +0.000 A 
ATOM     11  N   UNL     1       3.577   4.437  18.201  0.00  0.00    +0.000 N 
ATOM     12  C   UNL     1       3.295   5.792  17.981  0.00  0.00    +0.000 A 
ATOM     13  O   UNL     1       3.705   6.360  16.972  0.00  0.00    +0.000 OA
ATOM     14  C   UNL     1       2.498   6.518  19.036  0.00  0.00    +0.000 A 
ATOM     15  C   UNL     1       1.031   9.847  19.930  0.00  0.00    +0.000 A 
ENDROOT
BRANCH   1  17
ATOM     16  C   UNL     1      -0.403  12.216  18.888  0.00  0.00    +0.000 C 
ATOM     17  O   UNL     1       0.998  11.971  18.956  0.00  0.00    +0.000 OA
ENDBRANCH   1  17
BRANCH  11  18
ATOM     18  C   UNL     1       4.281   3.702  17.149  0.00  0.00    +0.000 C 
BRANCH  18  19
ATOM     19  C   UNL     1       5.719   4.075  17.123  0.00  0.00    +0.000 A 
ATOM     20  N   UNL     1       6.469   4.225  18.264  0.00  0.00    +0.000 N 
ATOM     21  C   UNL     1       7.727   4.593  17.886  0.00  0.00    +0.000 A 
ATOM     22  N   UNL     1       7.823   4.708  16.582  0.00  0.00    +0.000 NA
ATOM     23  C   UNL     1       6.576   4.399  16.090  0.00  0.00    +0.000 A 
ATOM     24  C   UNL     1       6.298   4.457  14.639  0.00  0.00    +0.000 C 
ATOM     25  H   UNL     1       6.135   4.082  19.212  0.00  0.00    +0.000 HD
ENDBRANCH  18  19
ENDBRANCH  11  18
TORSDOF 3
ENDMDL
MODEL 2
REMARK VINA RESULT:      -8.1      2.994      7.328
REMARK  Name = 
REMARK  5 active torsions:
REMARK  status: ('A' for Active; 'I' for Inactive)
REMARK    1  A    between atoms: C_1  and  O_2
REMARK    2  A    between atoms: O_2  and  C_3
REMARK    3  A    between atoms: N_13  and  C_14
REMARK    4  A    between atoms: C_14  and  C_15
REMARK    5  A    between atoms: C_19  and  C_20
REMARK                            x       y       z     vdW  Elec       q    Type
REMARK                         _______ _______ _______ _____ _____    ______ ____
ROOT
ATOM      1  C   UNL     1       5.418   4.794  16.268  0.00  0.00    +0.000 A 
ATOM      2  C   UNL     1       5.070   6.075  15.876  0.00  0.00    +0.000 A 
ATOM      3  C   UNL     1       4.223   6.848  16.678  0.00  0.00    +0.000 A 
ATOM      4  C   UNL     1       3.679   6.378  17.900  0.00  0.00    +0.000 A 
ATOM      5  C   UNL     1       4.070   5.071  18.291  0.00  0.00    +0.000 A 
ATOM      6  C   UNL     1       3.595   4.525  19.493  0.00  0.00    +0.000 A 
ATOM      7  C   UNL     1       2.721   5.234  20.308  0.00  0.00    +0.000 A 
ATOM      8  C   UNL     1       2.299   6.512  19.940  0.00  0.00    +0.000 A 
ATOM      9  C   UNL     1       1.339   7.213  20.790  0.00  0.00    +0.000 A 
ATOM     10  C   UNL     1       0.948   8.447  20.469  0.00  0.00    +0.000 A 
ATOM     11  N   UNL     1       1.423   9.097  19.352  0.00  0.00    +0.000 N 
ATOM     12  C   UNL     1       2.290   8.489  18.434  0.00  0.00    +0.000 A 
ATOM     13  O   UNL     1       2.615   9.071  17.401  0.00  0.00    +0.000 OA
ATOM     14  C   UNL     1       2.779   7.099  18.751  0.00  0.00    +0.000 A 
ATOM     15  C   UNL     1       4.926   4.305  17.477  0.00  0.00    +0.000 A 
ENDROOT
BRANCH   1  17
ATOM     16  C   UNL     1       6.348   4.186  14.172  0.00  0.00    +0.000 C 
ATOM     17  O   UNL     1       6.220   3.934  15.568  0.00  0.00    +0.000 OA
ENDBRANCH   1  17
BRANCH  11  18
ATOM     18  C   UNL     1       1.005  10.475  19.094  0.00  0.00    +0.000 C 
BRANCH  18  19
ATOM     19  C   UNL     1      -0.377  10.509  18.549  0.00  0.00    +0.000 A 
ATOM     20  N   UNL     1      -0.722   9.909  17.362  0.00  0.00    +0.000 N 
ATOM     21  C   UNL     1      -2.048  10.151  17.148  0.00  0.00    +0.000 A 
ATOM     22  N   UNL     1      -2.565  10.883  18.108  0.00  0.00    +0.000 NA
ATOM     23  C   UNL     1      -1.534  11.125  18.985  0.00  0.00    +0.000 A 
ATOM     24  C   UNL     1      -1.741  11.959  20.188  0.00  0.00    +0.000 C 
ATOM     25  H   UNL     1      -0.096   9.381  16.764  0.00  0.00    +0.000 HD
ENDBRANCH  18  19
ENDBRANCH  11  18
TORSDOF 3
ENDMDL
MODEL 3
REMARK VINA RESULT:      -8.1      2.733      4.532
REMARK  Name = 
REMARK  5 active torsions:
REMARK  status: ('A' for Active; 'I' for Inactive)
REMARK    1  A    between atoms: C_1  and  O_2
REMARK    2  A    between atoms: O_2  and  C_3
REMARK    3  A    between atoms: N_13  and  C_14
REMARK    4  A    between atoms: C_14  and  C_15
REMARK    5  A    between atoms: C_19  and  C_20
REMARK                            x       y       z     vdW  Elec       q    Type
REMARK                         _______ _______ _______ _____ _____    ______ ____
ROOT
ATOM      1  C   UNL     1      -1.176  11.284  22.708  0.00  0.00    +0.000 A 
ATOM      2  C   UNL     1      -0.678  10.063  23.128  0.00  0.00    +0.000 A 
ATOM      3  C   UNL     1       0.120   9.298  22.270  0.00  0.00    +0.000 A 
ATOM      4  C   UNL     1       0.452   9.711  20.955  0.00  0.00    +0.000 A 
ATOM      5  C   UNL     1      -0.051  10.978  20.557  0.00  0.00    +0.000 A 
ATOM      6  C   UNL     1       0.238  11.479  19.279  0.00  0.00    +0.000 A 
ATOM      7  C   UNL     1       0.993  10.743  18.373  0.00  0.00    +0.000 A 
ATOM      8  C   UNL     1       1.482   9.485  18.725  0.00  0.00    +0.000 A 
ATOM      9  C   UNL     1       2.230   8.714  17.735  0.00  0.00    +0.000 A 
ATOM     10  C   UNL     1       2.729   7.521  18.064  0.00  0.00    +0.000 A 
ATOM     11  N   UNL     1       2.569   6.984  19.322  0.00  0.00    +0.000 N 
ATOM     12  C   UNL     1       1.811   7.608  20.321  0.00  0.00    +0.000 A 
ATOM     13  O   UNL     1       1.614   7.049  21.398  0.00  0.00    +0.000 OA
ATOM     14  C   UNL     1       1.232   8.966  20.012  0.00  0.00    +0.000 A 
ATOM     15  C   UNL     1      -0.849  11.739  21.431  0.00  0.00    +0.000 A 
ENDROOT
BRANCH   1  17
ATOM     16  C   UNL     1      -3.260  12.402  22.890  0.00  0.00    +0.000 C 
ATOM     17  O   UNL     1      -1.979  12.114  23.441  0.00  0.00    +0.000 OA
ENDBRANCH   1  17
BRANCH  11  18
ATOM     18  C   UNL     1       3.200   5.702  19.637  0.00  0.00    +0.000 C 
BRANCH  18  19
ATOM     19  C   UNL     1       2.483   4.586  18.968  0.00  0.00    +0.000 A 
ATOM     20  N   UNL     1       1.297   4.077  19.439  0.00  0.00    +0.000 N 
ATOM     21  C   UNL     1       0.929   3.056  18.613  0.00  0.00    +0.000 A 
ATOM     22  N   UNL     1       1.812   2.866  17.659  0.00  0.00    +0.000 NA
ATOM     23  C   UNL     1       2.794   3.805  17.873  0.00  0.00    +0.000 A 
ATOM     24  C   UNL     1       3.986   3.868  16.999  0.00  0.00    +0.000 C 
ATOM     25  H   UNL     1       0.793   4.412  20.253  0.00  0.00    +0.000 HD
ENDBRANCH  18  19
ENDBRANCH  11  18
TORSDOF 3
ENDMDL
MODEL 4
REMARK VINA RESULT:      -8.0      2.691      4.301
REMARK  Name = 
REMARK  5 active torsions:
REMARK  status: ('A' for Active; 'I' for Inactive)
REMARK    1  A    between atoms: C_1  and  O_2
REMARK    2  A    between atoms: O_2  and  C_3
REMARK    3  A    between atoms: N_13  and  C_14
REMARK    4  A    between atoms: C_14  and  C_15
REMARK    5  A    between atoms: C_19  and  C_20
REMARK                            x       y       z     vdW  Elec       q    Type
REMARK                         _______ _______ _______ _____ _____    ______ ____
ROOT
ATOM      1  C   UNL     1      -0.730  10.594  22.281  0.00  0.00    +0.000 A 
ATOM      2  C   UNL     1      -0.266   9.380  22.757  0.00  0.00    +0.000 A 
ATOM      3  C   UNL     1       0.568   8.587  21.961  0.00  0.00    +0.000 A 
ATOM      4  C   UNL     1       0.972   8.963  20.656  0.00  0.00    +0.000 A 
ATOM      5  C   UNL     1       0.502  10.223  20.200  0.00  0.00    +0.000 A 
ATOM      6  C   UNL     1       0.862  10.688  18.926  0.00  0.00    +0.000 A 
ATOM      7  C   UNL     1       1.657   9.923  18.081  0.00  0.00    +0.000 A 
ATOM      8  C   UNL     1       2.115   8.670  18.489  0.00  0.00    +0.000 A 
ATOM      9  C   UNL     1       2.905   7.868  17.559  0.00  0.00    +0.000 A 
ATOM     10  C   UNL     1       3.375   6.680  17.944  0.00  0.00    +0.000 A 
ATOM     11  N   UNL     1       3.144   6.176  19.205  0.00  0.00    +0.000 N 
ATOM     12  C   UNL     1       2.341   6.833  20.147  0.00  0.00    +0.000 A 
ATOM     13  O   UNL     1       2.083   6.304  21.226  0.00  0.00    +0.000 OA
ATOM     14  C   UNL     1       1.793   8.187  19.774  0.00  0.00    +0.000 A 
ATOM     15  C   UNL     1      -0.333  11.013  21.012  0.00  0.00    +0.000 A 
ENDROOT
BRANCH   1  17
ATOM     16  C   UNL     1      -1.319  12.840  22.765  0.00  0.00    +0.000 C 
ATOM     17  O   UNL     1      -1.562  11.449  22.950  0.00  0.00    +0.000 OA
ENDBRANCH   1  17
BRANCH  11  18
ATOM     18  C   UNL     1       3.746   4.898  19.586  0.00  0.00    +0.000 C 
BRANCH  18  19
ATOM     19  C   UNL     1       3.002   3.766  18.974  0.00  0.00    +0.000 A 
ATOM     20  N   UNL     1       3.385   3.178  17.793  0.00  0.00    +0.000 N 
ATOM     21  C   UNL     1       2.479   2.200  17.506  0.00  0.00    +0.000 A 
ATOM     22  N   UNL     1       1.533   2.139  18.415  0.00  0.00    +0.000 NA
ATOM     23  C   UNL     1       1.838   3.117  19.332  0.00  0.00    +0.000 A 
ATOM     24  C   UNL     1       0.959   3.367  20.495  0.00  0.00    +0.000 C 
ATOM     25  H   UNL     1       4.200   3.433  17.244  0.00  0.00    +0.000 HD
ENDBRANCH  18  19
ENDBRANCH  11  18
TORSDOF 3
ENDMDL
MODEL 5
REMARK VINA RESULT:      -7.8      2.081      3.303
REMARK  Name = 
REMARK  5 active torsions:
REMARK  status: ('A' for Active; 'I' for Inactive)
REMARK    1  A    between atoms: C_1  and  O_2
REMARK    2  A    between atoms: O_2  and  C_3
REMARK    3  A    between atoms: N_13  and  C_14
REMARK    4  A    between atoms: C_14  and  C_15
REMARK    5  A    between atoms: C_19  and  C_20
REMARK                            x       y       z     vdW  Elec       q    Type
REMARK                         _______ _______ _______ _____ _____    ______ ____
ROOT
ATOM      1  C   UNL     1      -0.651  10.415  22.467  0.00  0.00    +0.000 A 
ATOM      2  C   UNL     1      -0.172   9.169  22.833  0.00  0.00    +0.000 A 
ATOM      3  C   UNL     1       0.629   8.438  21.949  0.00  0.00    +0.000 A 
ATOM      4  C   UNL     1       0.984   8.911  20.661  0.00  0.00    +0.000 A 
ATOM      5  C   UNL     1       0.500  10.201  20.319  0.00  0.00    +0.000 A 
ATOM      6  C   UNL     1       0.812  10.761  19.071  0.00  0.00    +0.000 A 
ATOM      7  C   UNL     1       1.572  10.061  18.140  0.00  0.00    +0.000 A 
ATOM      8  C   UNL     1       2.042   8.781  18.437  0.00  0.00    +0.000 A 
ATOM      9  C   UNL     1       2.795   8.051  17.420  0.00  0.00    +0.000 A 
ATOM     10  C   UNL     1       3.276   6.838  17.697  0.00  0.00    +0.000 A 
ATOM     11  N   UNL     1       3.092   6.241  18.924  0.00  0.00    +0.000 N 
ATOM     12  C   UNL     1       2.327   6.825  19.943  0.00  0.00    +0.000 A 
ATOM     13  O   UNL     1       2.109   6.217  20.988  0.00  0.00    +0.000 OA
ATOM     14  C   UNL     1       1.768   8.203  19.693  0.00  0.00    +0.000 A 
ATOM     15  C   UNL     1      -0.302  10.928  21.218  0.00  0.00    +0.000 A 
ENDROOT
BRANCH   1  17
ATOM     16  C   UNL     1      -2.171  12.235  22.536  0.00  0.00    +0.000 C 
ATOM     17  O   UNL     1      -1.455  11.218  23.229  0.00  0.00    +0.000 OA
ENDBRANCH   1  17
BRANCH  11  18
ATOM     18  C   UNL     1       3.705   4.938  19.186  0.00  0.00    +0.000 C 
BRANCH  18  19
ATOM     19  C   UNL     1       5.108   4.912  18.699  0.00  0.00    +0.000 A 
ATOM     20  N   UNL     1       6.153   5.441  19.417  0.00  0.00    +0.000 N 
ATOM     21  C   UNL     1       7.288   5.276  18.678  0.00  0.00    +0.000 A 
ATOM     22  N   UNL     1       7.033   4.695  17.528  0.00  0.00    +0.000 NA
ATOM     23  C   UNL     1       5.676   4.472  17.520  0.00  0.00    +0.000 A 
ATOM     24  C   UNL     1       5.016   3.855  16.349  0.00  0.00    +0.000 C 
ATOM     25  H   UNL     1       6.081   5.872  20.333  0.00  0.00    +0.000 HD
ENDBRANCH  18  19
ENDBRANCH  11  18
TORSDOF 3
ENDMDL
MODEL 6
REMARK VINA RESULT:      -7.7      3.435      7.497
REMARK  Name = 
REMARK  5 active torsions:
REMARK  status: ('A' for Active; 'I' for Inactive)
REMARK    1  A    between atoms: C_1  and  O_2
REMARK    2  A    between atoms: O_2  and  C_3
REMARK    3  A    between atoms: N_13  and  C_14
REMARK    4  A    between atoms: C_14  and  C_15
REMARK    5  A    between atoms: C_19  and  C_20
REMARK                            x       y       z     vdW  Elec       q    Type
REMARK                         _______ _______ _______ _____ _____    ______ ____
ROOT
ATOM      1  C   UNL     1       4.874   5.142  17.118  0.00  0.00    +0.000 A 
ATOM      2  C   UNL     1       4.633   6.393  16.577  0.00  0.00    +0.000 A 
ATOM      3  C   UNL     1       3.766   7.281  17.222  0.00  0.00    +0.000 A 
ATOM      4  C   UNL     1       3.097   6.962  18.431  0.00  0.00    +0.000 A 
ATOM      5  C   UNL     1       3.381   5.683  18.978  0.00  0.00    +0.000 A 
ATOM      6  C   UNL     1       2.778   5.284  20.181  0.00  0.00    +0.000 A 
ATOM      7  C   UNL     1       1.880   6.112  20.843  0.00  0.00    +0.000 A 
ATOM      8  C   UNL     1       1.562   7.366  20.319  0.00  0.00    +0.000 A 
ATOM      9  C   UNL     1       0.576   8.193  21.011  0.00  0.00    +0.000 A 
ATOM     10  C   UNL     1       0.281   9.405  20.539  0.00  0.00    +0.000 A 
ATOM     11  N   UNL     1       0.884   9.917  19.411  0.00  0.00    +0.000 N 
ATOM     12  C   UNL     1       1.789   9.180  18.635  0.00  0.00    +0.000 A 
ATOM     13  O   UNL     1       2.231   9.639  17.585  0.00  0.00    +0.000 OA
ATOM     14  C   UNL     1       2.171   7.806  19.127  0.00  0.00    +0.000 A 
ATOM     15  C   UNL     1       4.257   4.800  18.321  0.00  0.00    +0.000 A 
ENDROOT
BRANCH   1  17
ATOM     16  C   UNL     1       7.073   4.478  16.525  0.00  0.00    +0.000 C 
ATOM     17  O   UNL     1       5.682   4.179  16.577  0.00  0.00    +0.000 OA
ENDBRANCH   1  17
BRANCH  11  18
ATOM     18  C   UNL     1       0.566  11.281  18.986  0.00  0.00    +0.000 C 
BRANCH  18  19
ATOM     19  C   UNL     1      -0.905  11.488  18.951  0.00  0.00    +0.000 A 
ATOM     20  N   UNL     1      -1.559  12.321  19.826  0.00  0.00    +0.000 N 
ATOM     21  C   UNL     1      -2.891  12.261  19.537  0.00  0.00    +0.000 A 
ATOM     22  N   UNL     1      -3.131  11.430  18.549  0.00  0.00    +0.000 NA
ATOM     23  C   UNL     1      -1.904  10.930  18.179  0.00  0.00    +0.000 A 
ATOM     24  C   UNL     1      -1.789   9.924  17.101  0.00  0.00    +0.000 C 
ATOM     25  H   UNL     1      -1.119  12.877  20.552  0.00  0.00    +0.000 HD
ENDBRANCH  18  19
ENDBRANCH  11  18
TORSDOF 3
ENDMDL
MODEL 7
REMARK VINA RESULT:      -7.6      2.356      3.807
REMARK  Name = 
REMARK  5 active torsions:
REMARK  status: ('A' for Active; 'I' for Inactive)
REMARK    1  A    between atoms: C_1  and  O_2
REMARK    2  A    between atoms: O_2  and  C_3
REMARK    3  A    between atoms: N_13  and  C_14
REMARK    4  A    between atoms: C_14  and  C_15
REMARK    5  A    between atoms: C_19  and  C_20
REMARK                            x       y       z     vdW  Elec       q    Type
REMARK                         _______ _______ _______ _____ _____    ______ ____
ROOT
ATOM      1  C   UNL     1      -0.643  11.074  22.691  0.00  0.00    +0.000 A 
ATOM      2  C   UNL     1      -0.332   9.771  23.038  0.00  0.00    +0.000 A 
ATOM      3  C   UNL     1       0.376   8.957  22.147  0.00  0.00    +0.000 A 
ATOM      4  C   UNL     1       0.800   9.402  20.869  0.00  0.00    +0.000 A 
ATOM      5  C   UNL     1       0.490  10.749  20.547  0.00  0.00    +0.000 A 
ATOM      6  C   UNL     1       0.882  11.285  19.311  0.00  0.00    +0.000 A 
ATOM      7  C   UNL     1       1.554  10.509  18.373  0.00  0.00    +0.000 A 
ATOM      8  C   UNL     1       1.852   9.175  18.650  0.00  0.00    +0.000 A 
ATOM      9  C   UNL     1       2.513   8.370  17.625  0.00  0.00    +0.000 A 
ATOM     10  C   UNL     1       2.832   7.101  17.883  0.00  0.00    +0.000 A 
ATOM     11  N   UNL     1       2.562   6.512  19.098  0.00  0.00    +0.000 N 
ATOM     12  C   UNL     1       1.869   7.173  20.123  0.00  0.00    +0.000 A 
ATOM     13  O   UNL     1       1.566   6.580  21.155  0.00  0.00    +0.000 OA
ATOM     14  C   UNL     1       1.495   8.616  19.893  0.00  0.00    +0.000 A 
ATOM     15  C   UNL     1      -0.219  11.558  21.454  0.00  0.00    +0.000 A 
ENDROOT
BRANCH   1  17
ATOM     16  C   UNL     1      -2.754  11.988  23.271  0.00  0.00    +0.000 C 
ATOM     17  O   UNL     1      -1.343  11.961  23.462  0.00  0.00    +0.000 OA
ENDBRANCH   1  17
BRANCH  11  18
ATOM     18  C   UNL     1       2.999   5.137  19.340  0.00  0.00    +0.000 C 
BRANCH  18  19
ATOM     19  C   UNL     1       3.999   4.719  18.324  0.00  0.00    +0.000 A 
ATOM     20  N   UNL     1       3.658   4.029  17.186  0.00  0.00    +0.000 N 
ATOM     21  C   UNL     1       4.807   3.784  16.492  0.00  0.00    +0.000 A 
ATOM     22  N   UNL     1       5.859   4.254  17.122  0.00  0.00    +0.000 NA
ATOM     23  C   UNL     1       5.375   4.830  18.273  0.00  0.00    +0.000 A 
ATOM     24  C   UNL     1       6.291   5.441  19.260  0.00  0.00    +0.000 C 
ATOM     25  H   UNL     1       2.717   3.759  16.920  0.00  0.00    +0.000 HD
ENDBRANCH  18  19
ENDBRANCH  11  18
TORSDOF 3
ENDMDL
MODEL 8
REMARK VINA RESULT:      -7.6      2.472      3.901
REMARK  Name = 
REMARK  5 active torsions:
REMARK  status: ('A' for Active; 'I' for Inactive)
REMARK    1  A    between atoms: C_1  and  O_2
REMARK    2  A    between atoms: O_2  and  C_3
REMARK    3  A    between atoms: N_13  and  C_14
REMARK    4  A    between atoms: C_14  and  C_15
REMARK    5  A    between atoms: C_19  and  C_20
REMARK                            x       y       z     vdW  Elec       q    Type
REMARK                         _______ _______ _______ _____ _____    ______ ____
ROOT
ATOM      1  C   UNL     1      -0.955  11.521  22.553  0.00  0.00    +0.000 A 
ATOM      2  C   UNL     1      -0.643  10.254  23.015  0.00  0.00    +0.000 A 
ATOM      3  C   UNL     1       0.094   9.376  22.214  0.00  0.00    +0.000 A 
ATOM      4  C   UNL     1       0.549   9.716  20.916  0.00  0.00    +0.000 A 
ATOM      5  C   UNL     1       0.238  11.029  20.474  0.00  0.00    +0.000 A 
ATOM      6  C   UNL     1       0.660  11.464  19.208  0.00  0.00    +0.000 A 
ATOM      7  C   UNL     1       1.362  10.619  18.357  0.00  0.00    +0.000 A 
ATOM      8  C   UNL     1       1.663   9.315  18.751  0.00  0.00    +0.000 A 
ATOM      9  C   UNL     1       2.357   8.434  17.815  0.00  0.00    +0.000 A 
ATOM     10  C   UNL     1       2.678   7.194  18.187  0.00  0.00    +0.000 A 
ATOM     11  N   UNL     1       2.380   6.706  19.440  0.00  0.00    +0.000 N 
ATOM     12  C   UNL     1       1.655   7.443  20.386  0.00  0.00    +0.000 A 
ATOM     13  O   UNL     1       1.328   6.936  21.457  0.00  0.00    +0.000 OA
ATOM     14  C   UNL     1       1.276   8.858  20.028  0.00  0.00    +0.000 A 
ATOM     15  C   UNL     1      -0.501  11.904  21.291  0.00  0.00    +0.000 A 
ENDROOT
BRANCH   1  17
ATOM     16  C   UNL     1      -3.065  12.178  23.415  0.00  0.00    +0.000 C 
ATOM     17  O   UNL     1      -1.682  12.462  23.228  0.00  0.00    +0.000 OA
ENDBRANCH   1  17
BRANCH  11  18
ATOM     18  C   UNL     1       2.820   5.360  19.807  0.00  0.00    +0.000 C 
BRANCH  18  19
ATOM     19  C   UNL     1       4.033   4.978  19.039  0.00  0.00    +0.000 A 
ATOM     20  N   UNL     1       5.289   5.435  19.359  0.00  0.00    +0.000 N 
ATOM     21  C   UNL     1       6.161   4.918  18.446  0.00  0.00    +0.000 A 
ATOM     22  N   UNL     1       5.542   4.181  17.554  0.00  0.00    +0.000 NA
ATOM     23  C   UNL     1       4.212   4.216  17.902  0.00  0.00    +0.000 A 
ATOM     24  C   UNL     1       3.196   3.515  17.088  0.00  0.00    +0.000 C 
ATOM     25  H   UNL     1       5.514   6.043  20.139  0.00  0.00    +0.000 HD
ENDBRANCH  18  19
ENDBRANCH  11  18
TORSDOF 3
ENDMDL
MODEL 9
REMARK VINA RESULT:      -7.5      1.845      3.170
REMARK  Name = 
REMARK  5 active torsions:
REMARK  status: ('A' for Active; 'I' for Inactive)
REMARK    1  A    between atoms: C_1  and  O_2
REMARK    2  A    between atoms: O_2  and  C_3
REMARK    3  A    between atoms: N_13  and  C_14
REMARK    4  A    between atoms: C_14  and  C_15
REMARK    5  A    between atoms: C_19  and  C_20
REMARK                            x       y       z     vdW  Elec       q    Type
REMARK                         _______ _______ _______ _____ _____    ______ ____
ROOT
ATOM      1  C   UNL     1      -0.334   9.551  22.066  0.00  0.00    +0.000 A 
ATOM      2  C   UNL     1       0.239   8.332  22.386  0.00  0.00    +0.000 A 
ATOM      3  C   UNL     1       1.114   7.711  21.487  0.00  0.00    +0.000 A 
ATOM      4  C   UNL     1       1.453   8.272  20.231  0.00  0.00    +0.000 A 
ATOM      5  C   UNL     1       0.871   9.534  19.937  0.00  0.00    +0.000 A 
ATOM      6  C   UNL     1       1.160  10.175  18.723  0.00  0.00    +0.000 A 
ATOM      7  C   UNL     1       1.992   9.585  17.779  0.00  0.00    +0.000 A 
ATOM      8  C   UNL     1       2.560   8.335  18.027  0.00  0.00    +0.000 A 
ATOM      9  C   UNL     1       3.389   7.717  16.995  0.00  0.00    +0.000 A 
ATOM     10  C   UNL     1       3.962   6.535  17.227  0.00  0.00    +0.000 A 
ATOM     11  N   UNL     1       3.805   5.868  18.421  0.00  0.00    +0.000 N 
ATOM     12  C   UNL     1       2.976   6.339  19.448  0.00  0.00    +0.000 A 
ATOM     13  O   UNL     1       2.789   5.666  20.459  0.00  0.00    +0.000 OA
ATOM     14  C   UNL     1       2.311   7.677  19.249  0.00  0.00    +0.000 A 
ATOM     15  C   UNL     1      -0.004  10.149  20.851  0.00  0.00    +0.000 A 
ENDROOT
BRANCH   1  17
ATOM     16  C   UNL     1      -1.217  11.664  22.685  0.00  0.00    +0.000 C 
ATOM     17  O   UNL     1      -1.215  10.249  22.846  0.00  0.00    +0.000 OA
ENDBRANCH   1  17
BRANCH  11  18
ATOM     18  C   UNL     1       4.518   4.608  18.636  0.00  0.00    +0.000 C 
BRANCH  18  19
ATOM     19  C   UNL     1       5.715   4.528  17.760  0.00  0.00    +0.000 A 
ATOM     20  N   UNL     1       5.718   3.849  16.565  0.00  0.00    +0.000 N 
ATOM     21  C   UNL     1       6.970   3.952  16.034  0.00  0.00    +0.000 A 
ATOM     22  N   UNL     1       7.771   4.634  16.821  0.00  0.00    +0.000 NA
ATOM     23  C   UNL     1       7.008   4.990  17.907  0.00  0.00    +0.000 A 
ATOM     24  C   UNL     1       7.597   5.749  19.032  0.00  0.00    +0.000 C 
ATOM     25  H   UNL     1       4.923   3.365  16.160  0.00  0.00    +0.000 HD
ENDBRANCH  18  19
ENDBRANCH  11  18
TORSDOF 3
ENDMDL
