MODEL 1
REMARK VINA RESULT:      -7.8      0.000      0.000
REMARK  Name = 
REMARK  10 active torsions:
REMARK  status: ('A' for Active; 'I' for Inactive)
REMARK    1  A    between atoms: C_1  and  O_2
REMARK    2  A    between atoms: O_2  and  C_3
REMARK    3  A    between atoms: C_5  and  O_6
REMARK    4  A    between atoms: O_6  and  C_7
REMARK    5  A    between atoms: C_8  and  N_9
REMARK    6  A    between atoms: C_10  and  S_11
REMARK    7  A    between atoms: N_12  and  C_13
REMARK    8  A    between atoms: C_16  and  N_17
REMARK    9  A    between atoms: C_18  and  C_20
REMARK   10  A    between atoms: C_26  and  C_27
REMARK                            x       y       z     vdW  Elec       q    Type
REMARK                         _______ _______ _______ _____ _____    ______ ____
ROOT
ATOM      1  C   UNL     1       0.273   9.927  19.386  0.00  0.00    +0.000 A 
ATOM      2  C   UNL     1       0.779   9.827  18.089  0.00  0.00    +0.000 A 
ATOM      3  C   UNL     1       1.717   8.866  17.742  0.00  0.00    +0.000 A 
ATOM      4  C   UNL     1       2.258   8.023  18.705  0.00  0.00    +0.000 A 
ATOM      5  C   UNL     1       1.780   8.122  20.017  0.00  0.00    +0.000 A 
ATOM      6  C   UNL     1       0.777   9.065  20.370  0.00  0.00    +0.000 A 
ENDROOT
BRANCH   1   9
ATOM      7  N   UNL     1      -1.059  13.176  20.395  0.00  0.00    +0.000 N 
ATOM      8  C   UNL     1      -0.193  12.184  20.036  0.00  0.00    +0.000 C 
ATOM      9  N   UNL     1      -0.573  10.989  19.704  0.00  0.00    +0.000 NA
ATOM     10  H   UNL     1      -0.659  14.097  20.524  0.00  0.00    +0.000 HD
BRANCH   7  14
ATOM     11  C   UNL     1      -4.845  12.628  22.222  0.00  0.00    +0.000 A 
ATOM     12  C   UNL     1      -3.692  12.810  22.992  0.00  0.00    +0.000 A 
ATOM     13  C   UNL     1      -2.450  13.030  22.387  0.00  0.00    +0.000 A 
ATOM     14  C   UNL     1      -2.324  13.028  20.987  0.00  0.00    +0.000 A 
ATOM     15  C   UNL     1      -3.492  12.874  20.220  0.00  0.00    +0.000 A 
ATOM     16  C   UNL     1      -4.733  12.653  20.827  0.00  0.00    +0.000 A 
ATOM     17 CL   UNL     1      -6.107  12.397  19.806  0.00  0.00    +0.000 Cl
BRANCH  11  19
ATOM     18  C   UNL     1      -6.264  12.778  24.107  0.00  0.00    +0.000 C 
ATOM     19  O   UNL     1      -6.079  12.365  22.757  0.00  0.00    +0.000 OA
ENDBRANCH  11  19
BRANCH  13  20
ATOM     20  O   UNL     1      -1.393  13.132  23.260  0.00  0.00    +0.000 OA
ATOM     21  C   UNL     1      -1.223  14.416  23.862  0.00  0.00    +0.000 C 
ENDBRANCH  13  20
ENDBRANCH   7  14
BRANCH   8  22
ATOM     22  S   UNL     1       1.467  12.763  20.060  0.00  0.00    +0.000 S 
ATOM     23  H   UNL     1       1.556  12.848  21.395  0.00  0.00    +0.000 HD
ENDBRANCH   8  22
ENDBRANCH   1   9
BRANCH   4  24
ATOM     24  N   UNL     1       3.314   7.134  18.420  0.00  0.00    +0.000 N 
ATOM     25  C   UNL     1       3.192   5.834  17.941  0.00  0.00    +0.000 C 
ATOM     26  O   UNL     1       2.138   5.218  17.819  0.00  0.00    +0.000 OA
ATOM     27  H   UNL     1       4.264   7.479  18.500  0.00  0.00    +0.000 HD
BRANCH  25  28
ATOM     28  C   UNL     1       4.448   5.220  17.570  0.00  0.00    +0.000 A 
ATOM     29  C   UNL     1       4.812   4.598  16.391  0.00  0.00    +0.000 A 
ATOM     30  C   UNL     1       6.155   4.189  16.547  0.00  0.00    +0.000 A 
ATOM     31  C   UNL     1       6.532   4.589  17.808  0.00  0.00    +0.000 A 
ATOM     32  O   UNL     1       5.505   5.216  18.441  0.00  0.00    +0.000 OA
ENDBRANCH  25  28
ENDBRANCH   4  24
BRANCH   6  33
ATOM     33  C   UNL     1       0.324   9.115  21.809  0.00  0.00    +0.000 C 
ATOM     34  F   UNL     1      -0.064  10.324  22.296  0.00  0.00    +0.000 F 
ATOM     35  F   UNL     1      -0.744   8.287  22.026  0.00  0.00    +0.000 F 
ATOM     36  F   UNL     1       1.291   8.667  22.665  0.00  0.00    +0.000 F 
ENDBRANCH   6  33
TORSDOF 8
ENDMDL
MODEL 2
REMARK VINA RESULT:      -7.6      1.711      2.372
REMARK  Name = 
REMARK  10 active torsions:
REMARK  status: ('A' for Active; 'I' for Inactive)
REMARK    1  A    between atoms: C_1  and  O_2
REMARK    2  A    between atoms: O_2  and  C_3
REMARK    3  A    between atoms: C_5  and  O_6
REMARK    4  A    between atoms: O_6  and  C_7
REMARK    5  A    between atoms: C_8  and  N_9
REMARK    6  A    between atoms: C_10  and  S_11
REMARK    7  A    between atoms: N_12  and  C_13
REMARK    8  A    between atoms: C_16  and  N_17
REMARK    9  A    between atoms: C_18  and  C_20
REMARK   10  A    between atoms: C_26  and  C_27
REMARK                            x       y       z     vdW  Elec       q    Type
REMARK                         _______ _______ _______ _____ _____    ______ ____
ROOT
ATOM      1  C   UNL     1      -0.475  10.164  19.322  0.00  0.00    +0.000 A 
ATOM      2  C   UNL     1      -0.170   9.893  17.987  0.00  0.00    +0.000 A 
ATOM      3  C   UNL     1       0.904   9.089  17.631  0.00  0.00    +0.000 A 
ATOM      4  C   UNL     1       1.773   8.599  18.598  0.00  0.00    +0.000 A 
ATOM      5  C   UNL     1       1.497   8.879  19.941  0.00  0.00    +0.000 A 
ATOM      6  C   UNL     1       0.367   9.653  20.319  0.00  0.00    +0.000 A 
ENDROOT
BRANCH   1   9
ATOM      7  N   UNL     1      -2.379  13.222  19.933  0.00  0.00    +0.000 N 
ATOM      8  C   UNL     1      -1.373  12.369  19.583  0.00  0.00    +0.000 C 
ATOM      9  N   UNL     1      -1.488  11.077  19.613  0.00  0.00    +0.000 NA
ATOM     10  H   UNL     1      -2.213  14.207  19.763  0.00  0.00    +0.000 HD
BRANCH   7  14
ATOM     11  C   UNL     1      -5.577  12.591  22.643  0.00  0.00    +0.000 A 
ATOM     12  C   UNL     1      -5.783  12.547  21.262  0.00  0.00    +0.000 A 
ATOM     13  C   UNL     1      -4.720  12.717  20.369  0.00  0.00    +0.000 A 
ATOM     14  C   UNL     1      -3.422  12.980  20.841  0.00  0.00    +0.000 A 
ATOM     15  C   UNL     1      -3.218  12.993  22.233  0.00  0.00    +0.000 A 
ATOM     16  C   UNL     1      -4.284  12.825  23.124  0.00  0.00    +0.000 A 
ATOM     17 CL   UNL     1      -3.955  12.933  24.819  0.00  0.00    +0.000 Cl
BRANCH  11  19
ATOM     18  C   UNL     1      -7.813  11.953  23.067  0.00  0.00    +0.000 C 
ATOM     19  O   UNL     1      -6.587  12.477  23.564  0.00  0.00    +0.000 OA
ENDBRANCH  11  19
BRANCH  13  20
ATOM     20  O   UNL     1      -5.073  12.710  19.041  0.00  0.00    +0.000 OA
ATOM     21  C   UNL     1      -5.104  11.421  18.426  0.00  0.00    +0.000 C 
ENDBRANCH  13  20
ENDBRANCH   7  14
BRANCH   8  22
ATOM     22  S   UNL     1       0.053  13.260  19.068  0.00  0.00    +0.000 S 
ATOM     23  H   UNL     1      -0.447  13.630  17.879  0.00  0.00    +0.000 HD
ENDBRANCH   8  22
ENDBRANCH   1   9
BRANCH   4  24
ATOM     24  N   UNL     1       2.952   7.901  18.265  0.00  0.00    +0.000 N 
ATOM     25  C   UNL     1       3.085   6.524  18.130  0.00  0.00    +0.000 C 
ATOM     26  O   UNL     1       2.224   5.696  18.410  0.00  0.00    +0.000 OA
ATOM     27  H   UNL     1       3.778   8.442  18.031  0.00  0.00    +0.000 HD
BRANCH  25  28
ATOM     28  C   UNL     1       4.366   6.102  17.607  0.00  0.00    +0.000 A 
ATOM     29  C   UNL     1       5.100   6.611  16.552  0.00  0.00    +0.000 A 
ATOM     30  C   UNL     1       6.283   5.845  16.474  0.00  0.00    +0.000 A 
ATOM     31  C   UNL     1       6.204   4.917  17.488  0.00  0.00    +0.000 A 
ATOM     32  O   UNL     1       5.045   5.061  18.183  0.00  0.00    +0.000 OA
ENDBRANCH  25  28
ENDBRANCH   4  24
BRANCH   6  33
ATOM     33  C   UNL     1       0.147   9.918  21.789  0.00  0.00    +0.000 C 
ATOM     34  F   UNL     1      -1.034   9.505  22.323  0.00  0.00    +0.000 F 
ATOM     35  F   UNL     1       1.110   9.320  22.554  0.00  0.00    +0.000 F 
ATOM     36  F   UNL     1       0.240  11.248  22.088  0.00  0.00    +0.000 F 
ENDBRANCH   6  33
TORSDOF 8
ENDMDL
MODEL 3
REMARK VINA RESULT:      -7.5      1.551      2.217
REMARK  Name = 
REMARK  10 active torsions:
REMARK  status: ('A' for Active; 'I' for Inactive)
REMARK    1  A    between atoms: C_1  and  O_2
REMARK    2  A    between atoms: O_2  and  C_3
REMARK    3  A    between atoms: C_5  and  O_6
REMARK    4  A    between atoms: O_6  and  C_7
REMARK    5  A    between atoms: C_8  and  N_9
REMARK    6  A    between atoms: C_10  and  S_11
REMARK    7  A    between atoms: N_12  and  C_13
REMARK    8  A    between atoms: C_16  and  N_17
REMARK    9  A    between atoms: C_18  and  C_20
REMARK   10  A    between atoms: C_26  and  C_27
REMARK                            x       y       z     vdW  Elec       q    Type
REMARK                         _______ _______ _______ _____ _____    ______ ____
ROOT
ATOM      1  C   UNL     1      -0.099   9.854  19.282  0.00  0.00    +0.000 A 
ATOM      2  C   UNL     1       0.399   9.666  17.992  0.00  0.00    +0.000 A 
ATOM      3  C   UNL     1       1.458   8.807  17.733  0.00  0.00    +0.000 A 
ATOM      4  C   UNL     1       2.124   8.171  18.774  0.00  0.00    +0.000 A 
ATOM      5  C   UNL     1       1.654   8.363  20.079  0.00  0.00    +0.000 A 
ATOM      6  C   UNL     1       0.534   9.196  20.347  0.00  0.00    +0.000 A 
ENDROOT
BRANCH   1   9
ATOM      7  N   UNL     1      -1.875  13.012  19.747  0.00  0.00    +0.000 N 
ATOM      8  C   UNL     1      -0.894  12.104  19.474  0.00  0.00    +0.000 C 
ATOM      9  N   UNL     1      -1.080  10.820  19.496  0.00  0.00    +0.000 NA
ATOM     10  H   UNL     1      -1.645  13.985  19.589  0.00  0.00    +0.000 HD
BRANCH   7  14
ATOM     11  C   UNL     1      -5.302  12.562  22.202  0.00  0.00    +0.000 A 
ATOM     12  C   UNL     1      -5.387  12.427  20.814  0.00  0.00    +0.000 A 
ATOM     13  C   UNL     1      -4.248  12.537  20.008  0.00  0.00    +0.000 A 
ATOM     14  C   UNL     1      -2.996  12.831  20.574  0.00  0.00    +0.000 A 
ATOM     15  C   UNL     1      -2.914  12.935  21.974  0.00  0.00    +0.000 A 
ATOM     16  C   UNL     1      -4.054  12.826  22.777  0.00  0.00    +0.000 A 
ATOM     17 CL   UNL     1      -3.874  13.046  24.484  0.00  0.00    +0.000 Cl
BRANCH  11  19
ATOM     18  C   UNL     1      -7.278  13.616  22.957  0.00  0.00    +0.000 C 
ATOM     19  O   UNL     1      -6.389  12.508  23.036  0.00  0.00    +0.000 OA
ENDBRANCH  11  19
BRANCH  13  20
ATOM     20  O   UNL     1      -4.485  12.443  18.657  0.00  0.00    +0.000 OA
ATOM     21  C   UNL     1      -4.493  11.115  18.132  0.00  0.00    +0.000 C 
ENDBRANCH  13  20
ENDBRANCH   7  14
BRANCH   8  22
ATOM     22  S   UNL     1       0.613  12.915  19.067  0.00  0.00    +0.000 S 
ATOM     23  H   UNL     1       1.402  12.077  19.756  0.00  0.00    +0.000 HD
ENDBRANCH   8  22
ENDBRANCH   1   9
BRANCH   4  24
ATOM     24  N   UNL     1       3.290   7.407  18.565  0.00  0.00    +0.000 N 
ATOM     25  C   UNL     1       3.343   6.069  18.188  0.00  0.00    +0.000 C 
ATOM     26  O   UNL     1       2.380   5.314  18.107  0.00  0.00    +0.000 OA
ATOM     27  H   UNL     1       4.187   7.877  18.624  0.00  0.00    +0.000 HD
BRANCH  25  28
ATOM     28  C   UNL     1       4.674   5.596  17.874  0.00  0.00    +0.000 A 
ATOM     29  C   UNL     1       5.741   5.342  18.714  0.00  0.00    +0.000 A 
ATOM     30  C   UNL     1       6.799   4.883  17.898  0.00  0.00    +0.000 A 
ATOM     31  C   UNL     1       6.313   4.880  16.610  0.00  0.00    +0.000 A 
ATOM     32  O   UNL     1       5.024   5.311  16.581  0.00  0.00    +0.000 OA
ENDBRANCH  25  28
ENDBRANCH   4  24
BRANCH   6  33
ATOM     33  C   UNL     1       0.097   9.359  21.782  0.00  0.00    +0.000 C 
ATOM     34  F   UNL     1      -0.298  10.600  22.174  0.00  0.00    +0.000 F 
ATOM     35  F   UNL     1      -0.957   8.541  22.080  0.00  0.00    +0.000 F 
ATOM     36  F   UNL     1       1.080   8.994  22.660  0.00  0.00    +0.000 F 
ENDBRANCH   6  33
TORSDOF 8
ENDMDL
MODEL 4
REMARK VINA RESULT:      -7.4      0.700      1.047
REMARK  Name = 
REMARK  10 active torsions:
REMARK  status: ('A' for Active; 'I' for Inactive)
REMARK    1  A    between atoms: C_1  and  O_2
REMARK    2  A    between atoms: O_2  and  C_3
REMARK    3  A    between atoms: C_5  and  O_6
REMARK    4  A    between atoms: O_6  and  C_7
REMARK    5  A    between atoms: C_8  and  N_9
REMARK    6  A    between atoms: C_10  and  S_11
REMARK    7  A    between atoms: N_12  and  C_13
REMARK    8  A    between atoms: C_16  and  N_17
REMARK    9  A    between atoms: C_18  and  C_20
REMARK   10  A    between atoms: C_26  and  C_27
REMARK                            x       y       z     vdW  Elec       q    Type
REMARK                         _______ _______ _______ _____ _____    ______ ____
ROOT
ATOM      1  C   UNL     1      -0.055  10.044  19.499  0.00  0.00    +0.000 A 
ATOM      2  C   UNL     1       0.364   9.858  18.181  0.00  0.00    +0.000 A 
ATOM      3  C   UNL     1       1.358   8.948  17.850  0.00  0.00    +0.000 A 
ATOM      4  C   UNL     1       2.040   8.253  18.842  0.00  0.00    +0.000 A 
ATOM      5  C   UNL     1       1.650   8.443  20.173  0.00  0.00    +0.000 A 
ATOM      6  C   UNL     1       0.594   9.330  20.516  0.00  0.00    +0.000 A 
ENDROOT
BRANCH   1   9
ATOM      7  N   UNL     1      -1.615  13.279  20.170  0.00  0.00    +0.000 N 
ATOM      8  C   UNL     1      -0.699  12.327  19.830  0.00  0.00    +0.000 C 
ATOM      9  N   UNL     1      -0.968  11.058  19.784  0.00  0.00    +0.000 NA
ATOM     10  H   UNL     1      -1.324  14.243  20.063  0.00  0.00    +0.000 HD
BRANCH   7  14
ATOM     11  C   UNL     1      -4.949  12.710  22.726  0.00  0.00    +0.000 A 
ATOM     12  C   UNL     1      -3.680  12.979  23.246  0.00  0.00    +0.000 A 
ATOM     13  C   UNL     1      -2.589  13.205  22.400  0.00  0.00    +0.000 A 
ATOM     14  C   UNL     1      -2.734  13.123  21.004  0.00  0.00    +0.000 A 
ATOM     15  C   UNL     1      -4.020  12.882  20.489  0.00  0.00    +0.000 A 
ATOM     16  C   UNL     1      -5.110  12.655  21.337  0.00  0.00    +0.000 A 
ATOM     17 CL   UNL     1      -6.641  12.289  20.618  0.00  0.00    +0.000 Cl
BRANCH  11  19
ATOM     18  C   UNL     1      -6.766  13.573  23.968  0.00  0.00    +0.000 C 
ATOM     19  O   UNL     1      -6.044  12.437  23.504  0.00  0.00    +0.000 OA
ENDBRANCH  11  19
BRANCH  13  20
ATOM     20  O   UNL     1      -1.389  13.397  23.043  0.00  0.00    +0.000 OA
ATOM     21  C   UNL     1      -1.378  14.452  24.007  0.00  0.00    +0.000 C 
ENDBRANCH  13  20
ENDBRANCH   7  14
BRANCH   8  22
ATOM     22  S   UNL     1       0.853  13.060  19.444  0.00  0.00    +0.000 S 
ATOM     23  H   UNL     1       0.780  14.019  20.380  0.00  0.00    +0.000 HD
ENDBRANCH   8  22
ENDBRANCH   1   9
BRANCH   4  24
ATOM     24  N   UNL     1       3.149   7.431  18.557  0.00  0.00    +0.000 N 
ATOM     25  C   UNL     1       3.171   6.041  18.572  0.00  0.00    +0.000 C 
ATOM     26  O   UNL     1       2.260   5.320  18.965  0.00  0.00    +0.000 OA
ATOM     27  H   UNL     1       4.005   7.875  18.242  0.00  0.00    +0.000 HD
BRANCH  25  28
ATOM     28  C   UNL     1       4.397   5.463  18.064  0.00  0.00    +0.000 A 
ATOM     29  C   UNL     1       5.599   5.239  18.708  0.00  0.00    +0.000 A 
ATOM     30  C   UNL     1       6.459   4.638  17.762  0.00  0.00    +0.000 A 
ATOM     31  C   UNL     1       5.729   4.527  16.600  0.00  0.00    +0.000 A 
ATOM     32  O   UNL     1       4.475   5.025  16.770  0.00  0.00    +0.000 OA
ENDBRANCH  25  28
ENDBRANCH   4  24
BRANCH   6  33
ATOM     33  C   UNL     1       0.243   9.485  21.975  0.00  0.00    +0.000 C 
ATOM     34  F   UNL     1      -0.939   8.953  22.389  0.00  0.00    +0.000 F 
ATOM     35  F   UNL     1       1.189   8.914  22.781  0.00  0.00    +0.000 F 
ATOM     36  F   UNL     1       0.207  10.797  22.356  0.00  0.00    +0.000 F 
ENDBRANCH   6  33
TORSDOF 8
ENDMDL
MODEL 5
REMARK VINA RESULT:      -7.4      2.670      3.464
REMARK  Name = 
REMARK  10 active torsions:
REMARK  status: ('A' for Active; 'I' for Inactive)
REMARK    1  A    between atoms: C_1  and  O_2
REMARK    2  A    between atoms: O_2  and  C_3
REMARK    3  A    between atoms: C_5  and  O_6
REMARK    4  A    between atoms: O_6  and  C_7
REMARK    5  A    between atoms: C_8  and  N_9
REMARK    6  A    between atoms: C_10  and  S_11
REMARK    7  A    between atoms: N_12  and  C_13
REMARK    8  A    between atoms: C_16  and  N_17
REMARK    9  A    between atoms: C_18  and  C_20
REMARK   10  A    between atoms: C_26  and  C_27
REMARK                            x       y       z     vdW  Elec       q    Type
REMARK                         _______ _______ _______ _____ _____    ______ ____
ROOT
ATOM      1  C   UNL     1      -0.754  11.009  18.851  0.00  0.00    +0.000 A 
ATOM      2  C   UNL     1       0.466  10.952  19.525  0.00  0.00    +0.000 A 
ATOM      3  C   UNL     1       1.480  10.088  19.133  0.00  0.00    +0.000 A 
ATOM      4  C   UNL     1       1.275   9.179  18.102  0.00  0.00    +0.000 A 
ATOM      5  C   UNL     1       0.049   9.206  17.427  0.00  0.00    +0.000 A 
ATOM      6  C   UNL     1      -0.973  10.126  17.785  0.00  0.00    +0.000 A 
ENDROOT
BRANCH   1   9
ATOM      7  N   UNL     1      -2.723  13.817  20.111  0.00  0.00    +0.000 N 
ATOM      8  C   UNL     1      -1.715  13.089  19.548  0.00  0.00    +0.000 C 
ATOM      9  N   UNL     1      -1.776  11.805  19.366  0.00  0.00    +0.000 NA
ATOM     10  H   UNL     1      -2.611  14.824  20.099  0.00  0.00    +0.000 HD
BRANCH   7  14
ATOM     11  C   UNL     1      -5.670  12.573  22.893  0.00  0.00    +0.000 A 
ATOM     12  C   UNL     1      -5.973  12.714  21.536  0.00  0.00    +0.000 A 
ATOM     13  C   UNL     1      -4.990  13.086  20.613  0.00  0.00    +0.000 A 
ATOM     14  C   UNL     1      -3.680  13.372  21.037  0.00  0.00    +0.000 A 
ATOM     15  C   UNL     1      -3.376  13.200  22.399  0.00  0.00    +0.000 A 
ATOM     16  C   UNL     1      -4.362  12.829  23.320  0.00  0.00    +0.000 A 
ATOM     17 CL   UNL     1      -3.917  12.715  24.988  0.00  0.00    +0.000 Cl
BRANCH  11  19
ATOM     18  C   UNL     1      -7.915  12.006  23.364  0.00  0.00    +0.000 C 
ATOM     19  O   UNL     1      -6.600  12.255  23.848  0.00  0.00    +0.000 OA
ENDBRANCH  11  19
BRANCH  13  20
ATOM     20  O   UNL     1      -5.438  13.246  19.323  0.00  0.00    +0.000 OA
ATOM     21  C   UNL     1      -5.391  12.070  18.513  0.00  0.00    +0.000 C 
ENDBRANCH  13  20
ENDBRANCH   7  14
BRANCH   8  22
ATOM     22  S   UNL     1      -0.371  14.127  19.092  0.00  0.00    +0.000 S 
ATOM     23  H   UNL     1      -0.724  14.238  17.802  0.00  0.00    +0.000 HD
ENDBRANCH   8  22
ENDBRANCH   1   9
BRANCH   4  24
ATOM     24  N   UNL     1       2.226   8.193  17.771  0.00  0.00    +0.000 N 
ATOM     25  C   UNL     1       2.566   7.084  18.537  0.00  0.00    +0.000 C 
ATOM     26  O   UNL     1       2.183   6.867  19.682  0.00  0.00    +0.000 OA
ATOM     27  H   UNL     1       2.667   8.241  16.858  0.00  0.00    +0.000 HD
BRANCH  25  28
ATOM     28  C   UNL     1       3.442   6.147  17.867  0.00  0.00    +0.000 A 
ATOM     29  C   UNL     1       4.595   6.382  17.141  0.00  0.00    +0.000 A 
ATOM     30  C   UNL     1       5.070   5.121  16.718  0.00  0.00    +0.000 A 
ATOM     31  C   UNL     1       4.183   4.193  17.214  0.00  0.00    +0.000 A 
ATOM     32  O   UNL     1       3.190   4.802  17.914  0.00  0.00    +0.000 OA
ENDBRANCH  25  28
ENDBRANCH   4  24
BRANCH   6  33
ATOM     33  C   UNL     1      -2.269  10.082  17.013  0.00  0.00    +0.000 C 
ATOM     34  F   UNL     1      -3.367   9.619  17.669  0.00  0.00    +0.000 F 
ATOM     35  F   UNL     1      -2.624  11.324  16.562  0.00  0.00    +0.000 F 
ATOM     36  F   UNL     1      -2.167   9.318  15.884  0.00  0.00    +0.000 F 
ENDBRANCH   6  33
TORSDOF 8
ENDMDL
MODEL 6
REMARK VINA RESULT:      -7.4      2.325      2.824
REMARK  Name = 
REMARK  10 active torsions:
REMARK  status: ('A' for Active; 'I' for Inactive)
REMARK    1  A    between atoms: C_1  and  O_2
REMARK    2  A    between atoms: O_2  and  C_3
REMARK    3  A    between atoms: C_5  and  O_6
REMARK    4  A    between atoms: O_6  and  C_7
REMARK    5  A    between atoms: C_8  and  N_9
REMARK    6  A    between atoms: C_10  and  S_11
REMARK    7  A    between atoms: N_12  and  C_13
REMARK    8  A    between atoms: C_16  and  N_17
REMARK    9  A    between atoms: C_18  and  C_20
REMARK   10  A    between atoms: C_26  and  C_27
REMARK                            x       y       z     vdW  Elec       q    Type
REMARK                         _______ _______ _______ _____ _____    ______ ____
ROOT
ATOM      1  C   UNL     1      -0.777  11.266  18.877  0.00  0.00    +0.000 A 
ATOM      2  C   UNL     1       0.467  11.221  19.507  0.00  0.00    +0.000 A 
ATOM      3  C   UNL     1       1.452  10.323  19.119  0.00  0.00    +0.000 A 
ATOM      4  C   UNL     1       1.194   9.368  18.143  0.00  0.00    +0.000 A 
ATOM      5  C   UNL     1      -0.057   9.382  17.514  0.00  0.00    +0.000 A 
ATOM      6  C   UNL     1      -1.051  10.335  17.865  0.00  0.00    +0.000 A 
ENDROOT
BRANCH   1   9
ATOM      7  N   UNL     1      -2.629  14.151  20.142  0.00  0.00    +0.000 N 
ATOM      8  C   UNL     1      -1.651  13.382  19.581  0.00  0.00    +0.000 C 
ATOM      9  N   UNL     1      -1.767  12.104  19.390  0.00  0.00    +0.000 NA
ATOM     10  H   UNL     1      -2.473  15.152  20.137  0.00  0.00    +0.000 HD
BRANCH   7  14
ATOM     11  C   UNL     1      -5.521  12.841  22.951  0.00  0.00    +0.000 A 
ATOM     12  C   UNL     1      -4.364  13.505  23.365  0.00  0.00    +0.000 A 
ATOM     13  C   UNL     1      -3.429  13.972  22.434  0.00  0.00    +0.000 A 
ATOM     14  C   UNL     1      -3.611  13.743  21.059  0.00  0.00    +0.000 A 
ATOM     15  C   UNL     1      -4.793  13.100  20.649  0.00  0.00    +0.000 A 
ATOM     16  C   UNL     1      -5.725  12.634  21.582  0.00  0.00    +0.000 A 
ATOM     17 CL   UNL     1      -7.114  11.785  20.993  0.00  0.00    +0.000 Cl
BRANCH  11  19
ATOM     18  C   UNL     1      -7.455  13.232  24.253  0.00  0.00    +0.000 C 
ATOM     19  O   UNL     1      -6.449  12.324  23.817  0.00  0.00    +0.000 OA
ENDBRANCH  11  19
BRANCH  13  20
ATOM     20  O   UNL     1      -2.309  14.552  22.980  0.00  0.00    +0.000 OA
ATOM     21  C   UNL     1      -1.271  13.643  23.347  0.00  0.00    +0.000 C 
ENDBRANCH  13  20
ENDBRANCH   7  14
BRANCH   8  22
ATOM     22  S   UNL     1      -0.259  14.363  19.140  0.00  0.00    +0.000 S 
ATOM     23  H   UNL     1      -0.198  15.032  20.301  0.00  0.00    +0.000 HD
ENDBRANCH   8  22
ENDBRANCH   1   9
BRANCH   4  24
ATOM     24  N   UNL     1       2.116   8.351  17.825  0.00  0.00    +0.000 N 
ATOM     25  C   UNL     1       2.481   7.283  18.638  0.00  0.00    +0.000 C 
ATOM     26  O   UNL     1       2.151   7.138  19.811  0.00  0.00    +0.000 OA
ATOM     27  H   UNL     1       2.513   8.340  16.891  0.00  0.00    +0.000 HD
BRANCH  25  28
ATOM     28  C   UNL     1       3.313   6.298  17.983  0.00  0.00    +0.000 A 
ATOM     29  C   UNL     1       3.150   4.928  17.888  0.00  0.00    +0.000 A 
ATOM     30  C   UNL     1       4.236   4.444  17.127  0.00  0.00    +0.000 A 
ATOM     31  C   UNL     1       4.995   5.544  16.800  0.00  0.00    +0.000 A 
ATOM     32  O   UNL     1       4.446   6.677  17.314  0.00  0.00    +0.000 OA
ENDBRANCH  25  28
ENDBRANCH   4  24
BRANCH   6  33
ATOM     33  C   UNL     1      -2.376  10.276  17.146  0.00  0.00    +0.000 C 
ATOM     34  F   UNL     1      -2.920  11.458  16.747  0.00  0.00    +0.000 F 
ATOM     35  F   UNL     1      -2.295   9.522  16.008  0.00  0.00    +0.000 F 
ATOM     36  F   UNL     1      -3.340   9.666  17.900  0.00  0.00    +0.000 F 
ENDBRANCH   6  33
TORSDOF 8
ENDMDL
MODEL 7
REMARK VINA RESULT:      -7.3      2.310      2.795
REMARK  Name = 
REMARK  10 active torsions:
REMARK  status: ('A' for Active; 'I' for Inactive)
REMARK    1  A    between atoms: C_1  and  O_2
REMARK    2  A    between atoms: O_2  and  C_3
REMARK    3  A    between atoms: C_5  and  O_6
REMARK    4  A    between atoms: O_6  and  C_7
REMARK    5  A    between atoms: C_8  and  N_9
REMARK    6  A    between atoms: C_10  and  S_11
REMARK    7  A    between atoms: N_12  and  C_13
REMARK    8  A    between atoms: C_16  and  N_17
REMARK    9  A    between atoms: C_18  and  C_20
REMARK   10  A    between atoms: C_26  and  C_27
REMARK                            x       y       z     vdW  Elec       q    Type
REMARK                         _______ _______ _______ _____ _____    ______ ____
ROOT
ATOM      1  C   UNL     1      -0.182  10.487  20.944  0.00  0.00    +0.000 A 
ATOM      2  C   UNL     1       0.414   9.891  22.057  0.00  0.00    +0.000 A 
ATOM      3  C   UNL     1       1.298   8.828  21.932  0.00  0.00    +0.000 A 
ATOM      4  C   UNL     1       1.548   8.258  20.690  0.00  0.00    +0.000 A 
ATOM      5  C   UNL     1       0.942   8.827  19.564  0.00  0.00    +0.000 A 
ATOM      6  C   UNL     1       0.080   9.951  19.676  0.00  0.00    +0.000 A 
ENDROOT
BRANCH   1   9
ATOM      7  N   UNL     1      -1.909  13.650  21.546  0.00  0.00    +0.000 N 
ATOM      8  C   UNL     1      -0.927  12.735  21.299  0.00  0.00    +0.000 C 
ATOM      9  N   UNL     1      -1.154  11.467  21.141  0.00  0.00    +0.000 NA
ATOM     10  H   UNL     1      -1.629  14.624  21.539  0.00  0.00    +0.000 HD
BRANCH   7  14
ATOM     11  C   UNL     1      -5.572  12.889  23.540  0.00  0.00    +0.000 A 
ATOM     12  C   UNL     1      -4.464  13.386  24.232  0.00  0.00    +0.000 A 
ATOM     13  C   UNL     1      -3.268  13.674  23.566  0.00  0.00    +0.000 A 
ATOM     14  C   UNL     1      -3.138  13.427  22.188  0.00  0.00    +0.000 A 
ATOM     15  C   UNL     1      -4.266  12.955  21.494  0.00  0.00    +0.000 A 
ATOM     16  C   UNL     1      -5.461  12.667  22.163  0.00  0.00    +0.000 A 
ATOM     17 CL   UNL     1      -6.774  12.017  21.244  0.00  0.00    +0.000 Cl
BRANCH  11  19
ATOM     18  C   UNL     1      -7.675  13.615  24.337  0.00  0.00    +0.000 C 
ATOM     19  O   UNL     1      -6.753  12.548  24.147  0.00  0.00    +0.000 OA
ENDBRANCH  11  19
BRANCH  13  20
ATOM     20  O   UNL     1      -2.242  14.099  24.376  0.00  0.00    +0.000 OA
ATOM     21  C   UNL     1      -2.614  15.038  25.386  0.00  0.00    +0.000 C 
ENDBRANCH  13  20
ENDBRANCH   7  14
BRANCH   8  22
ATOM     22  S   UNL     1       0.646  13.516  21.198  0.00  0.00    +0.000 S 
ATOM     23  H   UNL     1       1.265  12.669  22.034  0.00  0.00    +0.000 HD
ENDBRANCH   8  22
ENDBRANCH   1   9
BRANCH   4  24
ATOM     24  N   UNL     1       2.324   7.091  20.541  0.00  0.00    +0.000 N 
ATOM     25  C   UNL     1       1.847   5.787  20.455  0.00  0.00    +0.000 C 
ATOM     26  O   UNL     1       0.683   5.444  20.628  0.00  0.00    +0.000 OA
ATOM     27  H   UNL     1       3.325   7.195  20.415  0.00  0.00    +0.000 HD
BRANCH  25  28
ATOM     28  C   UNL     1       2.860   4.807  20.127  0.00  0.00    +0.000 A 
ATOM     29  C   UNL     1       4.058   4.967  19.457  0.00  0.00    +0.000 A 
ATOM     30  C   UNL     1       4.674   3.696  19.421  0.00  0.00    +0.000 A 
ATOM     31  C   UNL     1       3.819   2.839  20.075  0.00  0.00    +0.000 A 
ATOM     32  O   UNL     1       2.713   3.500  20.508  0.00  0.00    +0.000 OA
ENDBRANCH  25  28
ENDBRANCH   4  24
BRANCH   6  33
ATOM     33  C   UNL     1      -0.541  10.499  18.414  0.00  0.00    +0.000 C 
ATOM     34  F   UNL     1      -0.283  11.799  18.108  0.00  0.00    +0.000 F 
ATOM     35  F   UNL     1      -0.145   9.790  17.313  0.00  0.00    +0.000 F 
ATOM     36  F   UNL     1      -1.904  10.389  18.426  0.00  0.00    +0.000 F 
ENDBRANCH   6  33
TORSDOF 8
ENDMDL
MODEL 8
REMARK VINA RESULT:      -7.3      2.307      2.821
REMARK  Name = 
REMARK  10 active torsions:
REMARK  status: ('A' for Active; 'I' for Inactive)
REMARK    1  A    between atoms: C_1  and  O_2
REMARK    2  A    between atoms: O_2  and  C_3
REMARK    3  A    between atoms: C_5  and  O_6
REMARK    4  A    between atoms: O_6  and  C_7
REMARK    5  A    between atoms: C_8  and  N_9
REMARK    6  A    between atoms: C_10  and  S_11
REMARK    7  A    between atoms: N_12  and  C_13
REMARK    8  A    between atoms: C_16  and  N_17
REMARK    9  A    between atoms: C_18  and  C_20
REMARK   10  A    between atoms: C_26  and  C_27
REMARK                            x       y       z     vdW  Elec       q    Type
REMARK                         _______ _______ _______ _____ _____    ______ ____
ROOT
ATOM      1  C   UNL     1      -0.724  11.113  19.326  0.00  0.00    +0.000 A 
ATOM      2  C   UNL     1       0.354  10.954  20.198  0.00  0.00    +0.000 A 
ATOM      3  C   UNL     1       1.374  10.048  19.944  0.00  0.00    +0.000 A 
ATOM      4  C   UNL     1       1.307   9.196  18.848  0.00  0.00    +0.000 A 
ATOM      5  C   UNL     1       0.222   9.325  17.973  0.00  0.00    +0.000 A 
ATOM      6  C   UNL     1      -0.798  10.289  18.195  0.00  0.00    +0.000 A 
ENDROOT
BRANCH   1   9
ATOM      7  N   UNL     1      -2.775  14.016  20.172  0.00  0.00    +0.000 N 
ATOM      8  C   UNL     1      -1.734  13.244  19.747  0.00  0.00    +0.000 C 
ATOM      9  N   UNL     1      -1.778  11.948  19.697  0.00  0.00    +0.000 NA
ATOM     10  H   UNL     1      -2.667  15.017  20.061  0.00  0.00    +0.000 HD
BRANCH   7  14
ATOM     11  C   UNL     1      -5.746  12.858  22.965  0.00  0.00    +0.000 A 
ATOM     12  C   UNL     1      -4.557  13.460  23.386  0.00  0.00    +0.000 A 
ATOM     13  C   UNL     1      -3.594  13.877  22.460  0.00  0.00    +0.000 A 
ATOM     14  C   UNL     1      -3.782  13.660  21.084  0.00  0.00    +0.000 A 
ATOM     15  C   UNL     1      -4.994  13.081  20.667  0.00  0.00    +0.000 A 
ATOM     16  C   UNL     1      -5.954  12.664  21.595  0.00  0.00    +0.000 A 
ATOM     17 CL   UNL     1      -7.383  11.891  20.999  0.00  0.00    +0.000 Cl
BRANCH  11  19
ATOM     18  C   UNL     1      -7.616  13.365  24.320  0.00  0.00    +0.000 C 
ATOM     19  O   UNL     1      -6.704  12.390  23.827  0.00  0.00    +0.000 OA
ENDBRANCH  11  19
BRANCH  13  20
ATOM     20  O   UNL     1      -2.448  14.397  23.012  0.00  0.00    +0.000 OA
ATOM     21  C   UNL     1      -2.635  15.126  24.227  0.00  0.00    +0.000 C 
ENDBRANCH  13  20
ENDBRANCH   7  14
BRANCH   8  22
ATOM     22  S   UNL     1      -0.370  14.243  19.261  0.00  0.00    +0.000 S 
ATOM     23  H   UNL     1      -0.778  15.344  19.910  0.00  0.00    +0.000 HD
ENDBRANCH   8  22
ENDBRANCH   1   9
BRANCH   4  24
ATOM     24  N   UNL     1       2.248   8.169  18.636  0.00  0.00    +0.000 N 
ATOM     25  C   UNL     1       2.405   7.021  19.406  0.00  0.00    +0.000 C 
ATOM     26  O   UNL     1       1.832   6.794  20.467  0.00  0.00    +0.000 OA
ATOM     27  H   UNL     1       2.832   8.218  17.808  0.00  0.00    +0.000 HD
BRANCH  25  28
ATOM     28  C   UNL     1       3.330   6.057  18.850  0.00  0.00    +0.000 A 
ATOM     29  C   UNL     1       3.887   5.996  17.587  0.00  0.00    +0.000 A 
ATOM     30  C   UNL     1       4.734   4.866  17.573  0.00  0.00    +0.000 A 
ATOM     31  C   UNL     1       4.647   4.308  18.827  0.00  0.00    +0.000 A 
ATOM     32  O   UNL     1       3.797   5.021  19.613  0.00  0.00    +0.000 OA
ENDBRANCH  25  28
ENDBRANCH   4  24
BRANCH   6  33
ATOM     33  C   UNL     1      -1.939  10.356  17.209  0.00  0.00    +0.000 C 
ATOM     34  F   UNL     1      -1.871   9.538  16.124  0.00  0.00    +0.000 F 
ATOM     35  F   UNL     1      -3.133  10.055  17.804  0.00  0.00    +0.000 F 
ATOM     36  F   UNL     1      -2.108  11.617  16.708  0.00  0.00    +0.000 F 
ENDBRANCH   6  33
TORSDOF 8
ENDMDL
MODEL 9
REMARK VINA RESULT:      -7.1      2.700      3.538
REMARK  Name = 
REMARK  10 active torsions:
REMARK  status: ('A' for Active; 'I' for Inactive)
REMARK    1  A    between atoms: C_1  and  O_2
REMARK    2  A    between atoms: O_2  and  C_3
REMARK    3  A    between atoms: C_5  and  O_6
REMARK    4  A    between atoms: O_6  and  C_7
REMARK    5  A    between atoms: C_8  and  N_9
REMARK    6  A    between atoms: C_10  and  S_11
REMARK    7  A    between atoms: N_12  and  C_13
REMARK    8  A    between atoms: C_16  and  N_17
REMARK    9  A    between atoms: C_18  and  C_20
REMARK   10  A    between atoms: C_26  and  C_27
REMARK                            x       y       z     vdW  Elec       q    Type
REMARK                         _______ _______ _______ _____ _____    ______ ____
ROOT
ATOM      1  C   UNL     1      -0.875  11.249  19.399  0.00  0.00    +0.000 A 
ATOM      2  C   UNL     1       0.188  11.088  20.289  0.00  0.00    +0.000 A 
ATOM      3  C   UNL     1       1.219  10.192  20.043  0.00  0.00    +0.000 A 
ATOM      4  C   UNL     1       1.178   9.352  18.936  0.00  0.00    +0.000 A 
ATOM      5  C   UNL     1       0.109   9.483  18.043  0.00  0.00    +0.000 A 
ATOM      6  C   UNL     1      -0.922  10.437  18.257  0.00  0.00    +0.000 A 
ENDROOT
BRANCH   1   9
ATOM      7  N   UNL     1      -2.953  14.122  20.281  0.00  0.00    +0.000 N 
ATOM      8  C   UNL     1      -1.896  13.364  19.868  0.00  0.00    +0.000 C 
ATOM      9  N   UNL     1      -1.942  12.072  19.759  0.00  0.00    +0.000 NA
ATOM     10  H   UNL     1      -2.837  15.126  20.220  0.00  0.00    +0.000 HD
BRANCH   7  14
ATOM     11  C   UNL     1      -6.147  13.051  22.854  0.00  0.00    +0.000 A 
ATOM     12  C   UNL     1      -6.390  13.523  21.561  0.00  0.00    +0.000 A 
ATOM     13  C   UNL     1      -5.334  13.838  20.699  0.00  0.00    +0.000 A 
ATOM     14  C   UNL     1      -4.000  13.731  21.131  0.00  0.00    +0.000 A 
ATOM     15  C   UNL     1      -3.764  13.228  22.423  0.00  0.00    +0.000 A 
ATOM     16  C   UNL     1      -4.822  12.914  23.283  0.00  0.00    +0.000 A 
ATOM     17 CL   UNL     1      -4.441  12.375  24.882  0.00  0.00    +0.000 Cl
BRANCH  11  19
ATOM     18  C   UNL     1      -7.913  11.606  23.474  0.00  0.00    +0.000 C 
ATOM     19  O   UNL     1      -7.140  12.769  23.756  0.00  0.00    +0.000 OA
ENDBRANCH  11  19
BRANCH  13  20
ATOM     20  O   UNL     1      -5.714  14.347  19.481  0.00  0.00    +0.000 OA
ATOM     21  C   UNL     1      -6.488  13.463  18.667  0.00  0.00    +0.000 C 
ENDBRANCH  13  20
ENDBRANCH   7  14
BRANCH   8  22
ATOM     22  S   UNL     1      -0.509  14.377  19.489  0.00  0.00    +0.000 S 
ATOM     23  H   UNL     1      -1.061  14.955  18.412  0.00  0.00    +0.000 HD
ENDBRANCH   8  22
ENDBRANCH   1   9
BRANCH   4  24
ATOM     24  N   UNL     1       2.131   8.334  18.731  0.00  0.00    +0.000 N 
ATOM     25  C   UNL     1       2.300   7.193  19.508  0.00  0.00    +0.000 C 
ATOM     26  O   UNL     1       1.730   6.965  20.569  0.00  0.00    +0.000 OA
ATOM     27  H   UNL     1       2.714   8.385  17.902  0.00  0.00    +0.000 HD
BRANCH  25  28
ATOM     28  C   UNL     1       3.236   6.236  18.957  0.00  0.00    +0.000 A 
ATOM     29  C   UNL     1       3.746   6.138  17.677  0.00  0.00    +0.000 A 
ATOM     30  C   UNL     1       4.630   5.036  17.677  0.00  0.00    +0.000 A 
ATOM     31  C   UNL     1       4.610   4.531  18.957  0.00  0.00    +0.000 A 
ATOM     32  O   UNL     1       3.767   5.250  19.745  0.00  0.00    +0.000 OA
ENDBRANCH  25  28
ENDBRANCH   4  24
BRANCH   6  33
ATOM     33  C   UNL     1      -2.045  10.507  17.251  0.00  0.00    +0.000 C 
ATOM     34  F   UNL     1      -2.244  11.698  16.624  0.00  0.00    +0.000 F 
ATOM     35  F   UNL     1      -1.870   9.601  16.241  0.00  0.00    +0.000 F 
ATOM     36  F   UNL     1      -3.251  10.181  17.807  0.00  0.00    +0.000 F 
ENDBRANCH   6  33
TORSDOF 8
ENDMDL
