MODEL 1
REMARK VINA RESULT:      -7.2      0.000      0.000
REMARK  Name = 
REMARK  6 active torsions:
REMARK  status: ('A' for Active; 'I' for Inactive)
REMARK    1  A    between atoms: C_1  and  O_2
REMARK    2  A    between atoms: O_2  and  C_3
REMARK    3  A    between atoms: C_5  and  C_6
REMARK    4  A    between atoms: C_16  and  N_17
REMARK    5  A    between atoms: C_23  and  O_24
REMARK    6  A    between atoms: O_24  and  C_25
REMARK                            x       y       z     vdW  Elec       q    Type
REMARK                         _______ _______ _______ _____ _____    ______ ____
ROOT
ATOM      1  C   UNL     1       1.415   8.553  20.140  0.00  0.00    +0.000 A 
ATOM      2  C   UNL     1       2.140   7.402  19.807  0.00  0.00    +0.000 A 
ATOM      3  C   UNL     1       2.671   7.231  18.527  0.00  0.00    +0.000 A 
ATOM      4  C   UNL     1       2.367   8.167  17.538  0.00  0.00    +0.000 A 
ATOM      5  C   UNL     1       1.598   9.286  17.849  0.00  0.00    +0.000 A 
ATOM      6  C   UNL     1       1.108   9.502  19.154  0.00  0.00    +0.000 A 
ENDROOT
BRANCH   6   7
ATOM      7  N   UNL     1       0.438  10.706  19.472  0.00  0.00    +0.000 N 
ATOM      8  C   UNL     1       1.068  11.947  19.577  0.00  0.00    +0.000 A 
ATOM      9  N   UNL     1       2.079  12.248  18.743  0.00  0.00    +0.000 NA
ATOM     10  C   UNL     1       2.792  13.359  19.011  0.00  0.00    +0.000 A 
ATOM     11  C   UNL     1       2.518  14.188  20.064  0.00  0.00    +0.000 A 
ATOM     12 BR   UNL     1       3.639  15.648  20.448  0.00  0.00    +0.000 Br
ATOM     13  C   UNL     1       1.410  13.843  20.806  0.00  0.00    +0.000 A 
ATOM     14  N   UNL     1       0.673  12.731  20.581  0.00  0.00    +0.000 NA
ATOM     15  H   UNL     1      -0.158  10.598  20.286  0.00  0.00    +0.000 HD
BRANCH  13  16
ATOM     16  O   UNL     1       1.057  14.647  21.871  0.00  0.00    +0.000 OA
ATOM     17  C   UNL     1      -0.224  14.342  22.414  0.00  0.00    +0.000 C 
ENDBRANCH  13  16
ENDBRANCH   6   7
BRANCH   3  18
ATOM     18  C   UNL     1       3.549   6.095  18.142  0.00  0.00    +0.000 C 
ATOM     19  O   UNL     1       4.764   6.290  18.195  0.00  0.00    +0.000 OA
ATOM     20  N   UNL     1       3.015   4.852  17.805  0.00  0.00    +0.000 N 
ATOM     21  C   UNL     1       1.600   4.460  17.759  0.00  0.00    +0.000 C 
ATOM     22  C   UNL     1       1.365   3.073  18.366  0.00  0.00    +0.000 C 
ATOM     23  O   UNL     1       2.253   2.093  17.819  0.00  0.00    +0.000 OA
ATOM     24  C   UNL     1       3.618   2.475  18.051  0.00  0.00    +0.000 C 
ATOM     25  C   UNL     1       3.932   3.800  17.355  0.00  0.00    +0.000 C 
ENDBRANCH   3  18
BRANCH   1  27
ATOM     26  C   UNL     1      -0.192   8.503  21.880  0.00  0.00    +0.000 C 
ATOM     27  O   UNL     1       1.163   8.688  21.482  0.00  0.00    +0.000 OA
ENDBRANCH   1  27
TORSDOF 4
ENDMDL
MODEL 2
REMARK VINA RESULT:      -7.0      1.190      1.225
REMARK  Name = 
REMARK  6 active torsions:
REMARK  status: ('A' for Active; 'I' for Inactive)
REMARK    1  A    between atoms: C_1  and  O_2
REMARK    2  A    between atoms: O_2  and  C_3
REMARK    3  A    between atoms: C_5  and  C_6
REMARK    4  A    between atoms: C_16  and  N_17
REMARK    5  A    between atoms: C_23  and  O_24
REMARK    6  A    between atoms: O_24  and  C_25
REMARK                            x       y       z     vdW  Elec       q    Type
REMARK                         _______ _______ _______ _____ _____    ______ ____
ROOT
ATOM      1  C   UNL     1       1.166   8.969  20.402  0.00  0.00    +0.000 A 
ATOM      2  C   UNL     1       1.916   7.834  20.068  0.00  0.00    +0.000 A 
ATOM      3  C   UNL     1       2.346   7.615  18.757  0.00  0.00    +0.000 A 
ATOM      4  C   UNL     1       1.915   8.481  17.751  0.00  0.00    +0.000 A 
ATOM      5  C   UNL     1       1.122   9.580  18.069  0.00  0.00    +0.000 A 
ATOM      6  C   UNL     1       0.733   9.847  19.398  0.00  0.00    +0.000 A 
ENDROOT
BRANCH   6   7
ATOM      7  N   UNL     1       0.034  11.036  19.710  0.00  0.00    +0.000 N 
ATOM      8  C   UNL     1       0.648  12.214  20.139  0.00  0.00    +0.000 A 
ATOM      9  N   UNL     1       1.842  12.561  19.626  0.00  0.00    +0.000 NA
ATOM     10  C   UNL     1       2.493  13.584  20.213  0.00  0.00    +0.000 A 
ATOM     11  C   UNL     1       1.986  14.284  21.274  0.00  0.00    +0.000 A 
ATOM     12 BR   UNL     1       3.011  15.613  22.120  0.00  0.00    +0.000 Br
ATOM     13  C   UNL     1       0.719  13.911  21.668  0.00  0.00    +0.000 A 
ATOM     14  N   UNL     1       0.035  12.882  21.116  0.00  0.00    +0.000 NA
ATOM     15  H   UNL     1      -0.748  10.858  20.330  0.00  0.00    +0.000 HD
BRANCH  13  16
ATOM     16  O   UNL     1       0.132  14.588  22.717  0.00  0.00    +0.000 OA
ATOM     17  C   UNL     1      -1.078  13.991  23.173  0.00  0.00    +0.000 C 
ENDBRANCH  13  16
ENDBRANCH   6   7
BRANCH   3  18
ATOM     18  C   UNL     1       3.243   6.499  18.358  0.00  0.00    +0.000 C 
ATOM     19  O   UNL     1       4.230   6.794  17.684  0.00  0.00    +0.000 OA
ATOM     20  N   UNL     1       3.006   5.194  18.788  0.00  0.00    +0.000 N 
ATOM     21  C   UNL     1       1.911   4.708  19.639  0.00  0.00    +0.000 C 
ATOM     22  C   UNL     1       2.398   3.706  20.690  0.00  0.00    +0.000 C 
ATOM     23  O   UNL     1       3.184   2.660  20.108  0.00  0.00    +0.000 OA
ATOM     24  C   UNL     1       4.324   3.214  19.431  0.00  0.00    +0.000 C 
ATOM     25  C   UNL     1       3.881   4.128  18.289  0.00  0.00    +0.000 C 
ENDBRANCH   3  18
BRANCH   1  27
ATOM     26  C   UNL     1      -0.275   8.908  22.280  0.00  0.00    +0.000 C 
ATOM     27  O   UNL     1       1.021   9.167  21.752  0.00  0.00    +0.000 OA
ENDBRANCH   1  27
TORSDOF 4
ENDMDL
MODEL 3
REMARK VINA RESULT:      -7.0      2.509      3.731
REMARK  Name = 
REMARK  6 active torsions:
REMARK  status: ('A' for Active; 'I' for Inactive)
REMARK    1  A    between atoms: C_1  and  O_2
REMARK    2  A    between atoms: O_2  and  C_3
REMARK    3  A    between atoms: C_5  and  C_6
REMARK    4  A    between atoms: C_16  and  N_17
REMARK    5  A    between atoms: C_23  and  O_24
REMARK    6  A    between atoms: O_24  and  C_25
REMARK                            x       y       z     vdW  Elec       q    Type
REMARK                         _______ _______ _______ _____ _____    ______ ____
ROOT
ATOM      1  C   UNL     1       2.146   5.780  20.253  0.00  0.00    +0.000 A 
ATOM      2  C   UNL     1       2.661   4.902  19.291  0.00  0.00    +0.000 A 
ATOM      3  C   UNL     1       3.214   5.383  18.101  0.00  0.00    +0.000 A 
ATOM      4  C   UNL     1       3.137   6.747  17.822  0.00  0.00    +0.000 A 
ATOM      5  C   UNL     1       2.574   7.618  18.752  0.00  0.00    +0.000 A 
ATOM      6  C   UNL     1       2.069   7.154  19.983  0.00  0.00    +0.000 A 
ENDROOT
BRANCH   6   7
ATOM      7  N   UNL     1       1.619   8.073  20.960  0.00  0.00    +0.000 N 
ATOM      8  C   UNL     1       0.895   9.230  20.669  0.00  0.00    +0.000 A 
ATOM      9  N   UNL     1      -0.011   9.211  19.675  0.00  0.00    +0.000 NA
ATOM     10  C   UNL     1      -0.533  10.391  19.292  0.00  0.00    +0.000 A 
ATOM     11  C   UNL     1      -0.202  11.582  19.878  0.00  0.00    +0.000 A 
ATOM     12 BR   UNL     1      -0.875  13.202  19.201  0.00  0.00    +0.000 Br
ATOM     13  C   UNL     1       0.665  11.487  20.945  0.00  0.00    +0.000 A 
ATOM     14  N   UNL     1       1.223  10.325  21.357  0.00  0.00    +0.000 NA
ATOM     15  H   UNL     1       2.362   8.332  21.600  0.00  0.00    +0.000 HD
BRANCH  13  16
ATOM     16  O   UNL     1       1.027  12.645  21.603  0.00  0.00    +0.000 OA
ATOM     17  C   UNL     1       2.124  13.323  20.998  0.00  0.00    +0.000 C 
ENDBRANCH  13  16
ENDBRANCH   6   7
BRANCH   3  18
ATOM     18  C   UNL     1       3.885   4.518  17.095  0.00  0.00    +0.000 C 
ATOM     19  O   UNL     1       3.178   3.695  16.511  0.00  0.00    +0.000 OA
ATOM     20  N   UNL     1       5.234   4.685  16.784  0.00  0.00    +0.000 N 
ATOM     21  C   UNL     1       6.177   5.658  17.351  0.00  0.00    +0.000 C 
ATOM     22  C   UNL     1       7.072   6.287  16.278  0.00  0.00    +0.000 C 
ATOM     23  O   UNL     1       7.692   5.296  15.451  0.00  0.00    +0.000 OA
ATOM     24  C   UNL     1       6.693   4.490  14.808  0.00  0.00    +0.000 C 
ATOM     25  C   UNL     1       5.852   3.744  15.844  0.00  0.00    +0.000 C 
ENDBRANCH   3  18
BRANCH   1  27
ATOM     26  C   UNL     1       2.125   3.789  21.537  0.00  0.00    +0.000 C 
ATOM     27  O   UNL     1       1.858   5.186  21.456  0.00  0.00    +0.000 OA
ENDBRANCH   1  27
TORSDOF 4
ENDMDL
MODEL 4
REMARK VINA RESULT:      -6.9      3.068      8.464
REMARK  Name = 
REMARK  6 active torsions:
REMARK  status: ('A' for Active; 'I' for Inactive)
REMARK    1  A    between atoms: C_1  and  O_2
REMARK    2  A    between atoms: O_2  and  C_3
REMARK    3  A    between atoms: C_5  and  C_6
REMARK    4  A    between atoms: C_16  and  N_17
REMARK    5  A    between atoms: C_23  and  O_24
REMARK    6  A    between atoms: O_24  and  C_25
REMARK                            x       y       z     vdW  Elec       q    Type
REMARK                         _______ _______ _______ _____ _____    ______ ____
ROOT
ATOM      1  C   UNL     1       1.423   8.594  20.553  0.00  0.00    +0.000 A 
ATOM      2  C   UNL     1       0.815   9.824  20.272  0.00  0.00    +0.000 A 
ATOM      3  C   UNL     1       0.677  10.275  18.957  0.00  0.00    +0.000 A 
ATOM      4  C   UNL     1       1.264   9.542  17.925  0.00  0.00    +0.000 A 
ATOM      5  C   UNL     1       1.920   8.346  18.206  0.00  0.00    +0.000 A 
ATOM      6  C   UNL     1       2.011   7.848  19.522  0.00  0.00    +0.000 A 
ENDROOT
BRANCH   6   7
ATOM      7  N   UNL     1       2.571   6.572  19.762  0.00  0.00    +0.000 N 
ATOM      8  C   UNL     1       3.456   5.930  18.895  0.00  0.00    +0.000 A 
ATOM      9  N   UNL     1       4.365   6.656  18.222  0.00  0.00    +0.000 NA
ATOM     10  C   UNL     1       5.055   6.034  17.247  0.00  0.00    +0.000 A 
ATOM     11  C   UNL     1       4.886   4.712  16.936  0.00  0.00    +0.000 A 
ATOM     12 BR   UNL     1       5.791   3.949  15.476  0.00  0.00    +0.000 Br
ATOM     13  C   UNL     1       3.997   4.033  17.741  0.00  0.00    +0.000 A 
ATOM     14  N   UNL     1       3.274   4.620  18.723  0.00  0.00    +0.000 NA
ATOM     15  H   UNL     1       1.862   5.896  20.027  0.00  0.00    +0.000 HD
BRANCH  13  16
ATOM     16  O   UNL     1       3.792   2.689  17.503  0.00  0.00    +0.000 OA
ATOM     17  C   UNL     1       3.555   1.932  18.686  0.00  0.00    +0.000 C 
ENDBRANCH  13  16
ENDBRANCH   6   7
BRANCH   3  18
ATOM     18  C   UNL     1      -0.062  11.509  18.580  0.00  0.00    +0.000 C 
ATOM     19  O   UNL     1      -1.233  11.368  18.226  0.00  0.00    +0.000 OA
ATOM     20  N   UNL     1       0.529  12.766  18.692  0.00  0.00    +0.000 N 
ATOM     21  C   UNL     1       1.885  13.089  19.155  0.00  0.00    +0.000 C 
ATOM     22  C   UNL     1       1.903  14.305  20.087  0.00  0.00    +0.000 C 
ATOM     23  O   UNL     1       1.206  15.421  19.524  0.00  0.00    +0.000 OA
ATOM     24  C   UNL     1      -0.159  15.067  19.250  0.00  0.00    +0.000 C 
ATOM     25  C   UNL     1      -0.227  13.934  18.225  0.00  0.00    +0.000 C 
ENDBRANCH   3  18
BRANCH   1  27
ATOM     26  C   UNL     1       0.726   9.140  22.750  0.00  0.00    +0.000 C 
ATOM     27  O   UNL     1       1.275   8.180  21.853  0.00  0.00    +0.000 OA
ENDBRANCH   1  27
TORSDOF 4
ENDMDL
MODEL 5
REMARK VINA RESULT:      -6.8      3.511      8.694
REMARK  Name = 
REMARK  6 active torsions:
REMARK  status: ('A' for Active; 'I' for Inactive)
REMARK    1  A    between atoms: C_1  and  O_2
REMARK    2  A    between atoms: O_2  and  C_3
REMARK    3  A    between atoms: C_5  and  C_6
REMARK    4  A    between atoms: C_16  and  N_17
REMARK    5  A    between atoms: C_23  and  O_24
REMARK    6  A    between atoms: O_24  and  C_25
REMARK                            x       y       z     vdW  Elec       q    Type
REMARK                         _______ _______ _______ _____ _____    ______ ____
ROOT
ATOM      1  C   UNL     1       1.500   9.680  18.941  0.00  0.00    +0.000 A 
ATOM      2  C   UNL     1       0.716  10.283  19.932  0.00  0.00    +0.000 A 
ATOM      3  C   UNL     1       0.525   9.670  21.172  0.00  0.00    +0.000 A 
ATOM      4  C   UNL     1       1.024   8.383  21.375  0.00  0.00    +0.000 A 
ATOM      5  C   UNL     1       1.757   7.754  20.371  0.00  0.00    +0.000 A 
ATOM      6  C   UNL     1       2.010   8.388  19.138  0.00  0.00    +0.000 A 
ENDROOT
BRANCH   6   7
ATOM      7  N   UNL     1       2.862   7.780  18.186  0.00  0.00    +0.000 N 
ATOM      8  C   UNL     1       2.958   6.401  17.991  0.00  0.00    +0.000 A 
ATOM      9  N   UNL     1       1.854   5.640  18.100  0.00  0.00    +0.000 NA
ATOM     10  C   UNL     1       2.023   4.304  18.112  0.00  0.00    +0.000 A 
ATOM     11  C   UNL     1       3.247   3.703  17.996  0.00  0.00    +0.000 A 
ATOM     12 BR   UNL     1       3.415   1.837  18.153  0.00  0.00    +0.000 Br
ATOM     13  C   UNL     1       4.305   4.565  17.800  0.00  0.00    +0.000 A 
ATOM     14  N   UNL     1       4.183   5.912  17.793  0.00  0.00    +0.000 NA
ATOM     15  H   UNL     1       3.807   8.145  18.243  0.00  0.00    +0.000 HD
BRANCH  13  16
ATOM     16  O   UNL     1       5.568   4.030  17.651  0.00  0.00    +0.000 OA
ATOM     17  C   UNL     1       6.203   4.403  16.432  0.00  0.00    +0.000 C 
ENDBRANCH  13  16
ENDBRANCH   6   7
BRANCH   3  18
ATOM     18  C   UNL     1      -0.193  10.308  22.307  0.00  0.00    +0.000 C 
ATOM     19  O   UNL     1       0.129   9.949  23.440  0.00  0.00    +0.000 OA
ATOM     20  N   UNL     1      -1.135  11.312  22.092  0.00  0.00    +0.000 N 
ATOM     21  C   UNL     1      -1.572  11.880  20.809  0.00  0.00    +0.000 C 
ATOM     22  C   UNL     1      -1.706  13.405  20.869  0.00  0.00    +0.000 C 
ATOM     23  O   UNL     1      -2.494  13.830  21.986  0.00  0.00    +0.000 OA
ATOM     24  C   UNL     1      -1.906  13.367  23.212  0.00  0.00    +0.000 C 
ATOM     25  C   UNL     1      -1.867  11.839  23.248  0.00  0.00    +0.000 C 
ENDBRANCH   3  18
BRANCH   1  27
ATOM     26  C   UNL     1       2.201  11.821  18.210  0.00  0.00    +0.000 C 
ATOM     27  O   UNL     1       1.789  10.499  17.878  0.00  0.00    +0.000 OA
ENDBRANCH   1  27
TORSDOF 4
ENDMDL
MODEL 6
REMARK VINA RESULT:      -6.8      4.319      7.901
REMARK  Name = 
REMARK  6 active torsions:
REMARK  status: ('A' for Active; 'I' for Inactive)
REMARK    1  A    between atoms: C_1  and  O_2
REMARK    2  A    between atoms: O_2  and  C_3
REMARK    3  A    between atoms: C_5  and  C_6
REMARK    4  A    between atoms: C_16  and  N_17
REMARK    5  A    between atoms: C_23  and  O_24
REMARK    6  A    between atoms: O_24  and  C_25
REMARK                            x       y       z     vdW  Elec       q    Type
REMARK                         _______ _______ _______ _____ _____    ______ ____
ROOT
ATOM      1  C   UNL     1       0.404   9.053  20.901  0.00  0.00    +0.000 A 
ATOM      2  C   UNL     1      -0.587   9.954  20.492  0.00  0.00    +0.000 A 
ATOM      3  C   UNL     1      -0.673  10.375  19.163  0.00  0.00    +0.000 A 
ATOM      4  C   UNL     1       0.320   9.984  18.264  0.00  0.00    +0.000 A 
ATOM      5  C   UNL     1       1.341   9.134  18.680  0.00  0.00    +0.000 A 
ATOM      6  C   UNL     1       1.403   8.651  20.003  0.00  0.00    +0.000 A 
ENDROOT
BRANCH   6   7
ATOM      7  N   UNL     1       2.377   7.691  20.365  0.00  0.00    +0.000 N 
ATOM      8  C   UNL     1       2.513   6.446  19.750  0.00  0.00    +0.000 A 
ATOM      9  N   UNL     1       2.301   6.336  18.427  0.00  0.00    +0.000 NA
ATOM     10  C   UNL     1       2.238   5.093  17.912  0.00  0.00    +0.000 A 
ATOM     11  C   UNL     1       2.401   3.962  18.664  0.00  0.00    +0.000 A 
ATOM     12 BR   UNL     1       2.169   2.261  17.897  0.00  0.00    +0.000 Br
ATOM     13  C   UNL     1       2.703   4.181  19.991  0.00  0.00    +0.000 A 
ATOM     14  N   UNL     1       2.764   5.410  20.552  0.00  0.00    +0.000 NA
ATOM     15  H   UNL     1       2.396   7.538  21.368  0.00  0.00    +0.000 HD
BRANCH  13  16
ATOM     16  O   UNL     1       2.905   3.087  20.807  0.00  0.00    +0.000 OA
ATOM     17  C   UNL     1       1.801   2.803  21.662  0.00  0.00    +0.000 C 
ENDBRANCH  13  16
ENDBRANCH   6   7
BRANCH   3  18
ATOM     18  C   UNL     1      -1.769  11.232  18.638  0.00  0.00    +0.000 C 
ATOM     19  O   UNL     1      -1.819  12.389  19.058  0.00  0.00    +0.000 OA
ATOM     20  N   UNL     1      -2.650  10.761  17.666  0.00  0.00    +0.000 N 
ATOM     21  C   UNL     1      -2.672   9.436  17.032  0.00  0.00    +0.000 C 
ATOM     22  C   UNL     1      -2.919   9.522  15.523  0.00  0.00    +0.000 C 
ATOM     23  O   UNL     1      -4.060  10.328  15.212  0.00  0.00    +0.000 OA
ATOM     24  C   UNL     1      -3.885  11.656  15.730  0.00  0.00    +0.000 C 
ATOM     25  C   UNL     1      -3.758  11.629  17.253  0.00  0.00    +0.000 C 
ENDBRANCH   3  18
BRANCH   1  27
ATOM     26  C   UNL     1      -0.015   9.519  23.185  0.00  0.00    +0.000 C 
ATOM     27  O   UNL     1       0.220   8.553  22.166  0.00  0.00    +0.000 OA
ENDBRANCH   1  27
TORSDOF 4
ENDMDL
MODEL 7
REMARK VINA RESULT:      -6.8      3.370      8.598
REMARK  Name = 
REMARK  6 active torsions:
REMARK  status: ('A' for Active; 'I' for Inactive)
REMARK    1  A    between atoms: C_1  and  O_2
REMARK    2  A    between atoms: O_2  and  C_3
REMARK    3  A    between atoms: C_5  and  C_6
REMARK    4  A    between atoms: C_16  and  N_17
REMARK    5  A    between atoms: C_23  and  O_24
REMARK    6  A    between atoms: O_24  and  C_25
REMARK                            x       y       z     vdW  Elec       q    Type
REMARK                         _______ _______ _______ _____ _____    ______ ____
ROOT
ATOM      1  C   UNL     1       0.740   9.945  21.495  0.00  0.00    +0.000 A 
ATOM      2  C   UNL     1       0.352  11.180  20.962  0.00  0.00    +0.000 A 
ATOM      3  C   UNL     1       0.335  11.395  19.581  0.00  0.00    +0.000 A 
ATOM      4  C   UNL     1       0.830  10.402  18.736  0.00  0.00    +0.000 A 
ATOM      5  C   UNL     1       1.271   9.192  19.266  0.00  0.00    +0.000 A 
ATOM      6  C   UNL     1       1.234   8.939  20.652  0.00  0.00    +0.000 A 
ENDROOT
BRANCH   6   7
ATOM      7  N   UNL     1       1.569   7.658  21.151  0.00  0.00    +0.000 N 
ATOM      8  C   UNL     1       1.967   6.587  20.350  0.00  0.00    +0.000 A 
ATOM      9  N   UNL     1       2.732   6.819  19.268  0.00  0.00    +0.000 NA
ATOM     10  C   UNL     1       2.918   5.796  18.412  0.00  0.00    +0.000 A 
ATOM     11  C   UNL     1       2.390   4.549  18.609  0.00  0.00    +0.000 A 
ATOM     12 BR   UNL     1       2.587   3.210  17.304  0.00  0.00    +0.000 Br
ATOM     13  C   UNL     1       1.697   4.388  19.789  0.00  0.00    +0.000 A 
ATOM     14  N   UNL     1       1.475   5.389  20.671  0.00  0.00    +0.000 NA
ATOM     15  H   UNL     1       0.865   7.311  21.794  0.00  0.00    +0.000 HD
BRANCH  13  16
ATOM     16  O   UNL     1       1.155   3.150  20.068  0.00  0.00    +0.000 OA
ATOM     17  C   UNL     1       1.564   2.620  21.326  0.00  0.00    +0.000 C 
ENDBRANCH  13  16
ENDBRANCH   6   7
BRANCH   3  18
ATOM     18  C   UNL     1      -0.178  12.638  18.946  0.00  0.00    +0.000 C 
ATOM     19  O   UNL     1      -1.242  12.547  18.331  0.00  0.00    +0.000 OA
ATOM     20  N   UNL     1       0.483  13.854  19.101  0.00  0.00    +0.000 N 
ATOM     21  C   UNL     1       1.718  14.122  19.851  0.00  0.00    +0.000 C 
ATOM     22  C   UNL     1       1.630  15.417  20.665  0.00  0.00    +0.000 C 
ATOM     23  O   UNL     1       1.189  16.521  19.867  0.00  0.00    +0.000 OA
ATOM     24  C   UNL     1      -0.100  16.240  19.301  0.00  0.00    +0.000 C 
ATOM     25  C   UNL     1      -0.031  15.023  18.379  0.00  0.00    +0.000 C 
ENDBRANCH   3  18
BRANCH   1  27
ATOM     26  C   UNL     1      -0.806  10.240  23.265  0.00  0.00    +0.000 C 
ATOM     27  O   UNL     1       0.481   9.807  22.836  0.00  0.00    +0.000 OA
ENDBRANCH   1  27
TORSDOF 4
ENDMDL
MODEL 8
REMARK VINA RESULT:      -6.7      1.385      1.427
REMARK  Name = 
REMARK  6 active torsions:
REMARK  status: ('A' for Active; 'I' for Inactive)
REMARK    1  A    between atoms: C_1  and  O_2
REMARK    2  A    between atoms: O_2  and  C_3
REMARK    3  A    between atoms: C_5  and  C_6
REMARK    4  A    between atoms: C_16  and  N_17
REMARK    5  A    between atoms: C_23  and  O_24
REMARK    6  A    between atoms: O_24  and  C_25
REMARK                            x       y       z     vdW  Elec       q    Type
REMARK                         _______ _______ _______ _____ _____    ______ ____
ROOT
ATOM      1  C   UNL     1       1.046   8.944  19.957  0.00  0.00    +0.000 A 
ATOM      2  C   UNL     1       1.747   7.746  20.141  0.00  0.00    +0.000 A 
ATOM      3  C   UNL     1       2.526   7.203  19.116  0.00  0.00    +0.000 A 
ATOM      4  C   UNL     1       2.501   7.804  17.857  0.00  0.00    +0.000 A 
ATOM      5  C   UNL     1       1.759   8.965  17.653  0.00  0.00    +0.000 A 
ATOM      6  C   UNL     1       1.019   9.558  18.696  0.00  0.00    +0.000 A 
ENDROOT
BRANCH   6   7
ATOM      7  N   UNL     1       0.378  10.802  18.495  0.00  0.00    +0.000 N 
ATOM      8  C   UNL     1       0.770  11.991  19.112  0.00  0.00    +0.000 A 
ATOM      9  N   UNL     1       2.077  12.232  19.314  0.00  0.00    +0.000 NA
ATOM     10  C   UNL     1       2.400  13.283  20.092  0.00  0.00    +0.000 A 
ATOM     11  C   UNL     1       1.468  14.113  20.653  0.00  0.00    +0.000 A 
ATOM     12 BR   UNL     1       1.992  15.479  21.833  0.00  0.00    +0.000 Br
ATOM     13  C   UNL     1       0.161  13.837  20.314  0.00  0.00    +0.000 A 
ATOM     14  N   UNL     1      -0.209  12.786  19.547  0.00  0.00    +0.000 NA
ATOM     15  H   UNL     1      -0.628  10.725  18.597  0.00  0.00    +0.000 HD
BRANCH  13  16
ATOM     16  O   UNL     1      -0.834  14.647  20.823  0.00  0.00    +0.000 OA
ATOM     17  C   UNL     1      -1.631  14.011  21.818  0.00  0.00    +0.000 C 
ENDBRANCH  13  16
ENDBRANCH   6   7
BRANCH   3  18
ATOM     18  C   UNL     1       3.388   6.003  19.281  0.00  0.00    +0.000 C 
ATOM     19  O   UNL     1       4.594   6.203  19.431  0.00  0.00    +0.000 OA
ATOM     20  N   UNL     1       2.841   4.722  19.332  0.00  0.00    +0.000 N 
ATOM     21  C   UNL     1       1.426   4.340  19.231  0.00  0.00    +0.000 C 
ATOM     22  C   UNL     1       1.045   3.260  20.248  0.00  0.00    +0.000 C 
ATOM     23  O   UNL     1       1.946   2.148  20.210  0.00  0.00    +0.000 OA
ATOM     24  C   UNL     1       3.287   2.587  20.479  0.00  0.00    +0.000 C 
ATOM     25  C   UNL     1       3.755   3.578  19.413  0.00  0.00    +0.000 C 
ENDBRANCH   3  18
BRANCH   1  27
ATOM     26  C   UNL     1       1.285   9.246  22.294  0.00  0.00    +0.000 C 
ATOM     27  O   UNL     1       0.524   9.471  21.112  0.00  0.00    +0.000 OA
ENDBRANCH   1  27
TORSDOF 4
ENDMDL
MODEL 9
REMARK VINA RESULT:      -6.5      1.741      2.135
REMARK  Name = 
REMARK  6 active torsions:
REMARK  status: ('A' for Active; 'I' for Inactive)
REMARK    1  A    between atoms: C_1  and  O_2
REMARK    2  A    between atoms: O_2  and  C_3
REMARK    3  A    between atoms: C_5  and  C_6
REMARK    4  A    between atoms: C_16  and  N_17
REMARK    5  A    between atoms: C_23  and  O_24
REMARK    6  A    between atoms: O_24  and  C_25
REMARK                            x       y       z     vdW  Elec       q    Type
REMARK                         _______ _______ _______ _____ _____    ______ ____
ROOT
ATOM      1  C   UNL     1       1.088   9.300  20.211  0.00  0.00    +0.000 A 
ATOM      2  C   UNL     1       1.724   8.058  20.328  0.00  0.00    +0.000 A 
ATOM      3  C   UNL     1       2.259   7.415  19.209  0.00  0.00    +0.000 A 
ATOM      4  C   UNL     1       2.044   7.967  17.945  0.00  0.00    +0.000 A 
ATOM      5  C   UNL     1       1.362   9.174  17.818  0.00  0.00    +0.000 A 
ATOM      6  C   UNL     1       0.872   9.864  18.946  0.00  0.00    +0.000 A 
ENDROOT
BRANCH   6   7
ATOM      7  N   UNL     1       0.295  11.147  18.800  0.00  0.00    +0.000 N 
ATOM      8  C   UNL     1       1.024  12.337  18.806  0.00  0.00    +0.000 A 
ATOM      9  N   UNL     1       2.243  12.369  18.241  0.00  0.00    +0.000 NA
ATOM     10  C   UNL     1       2.994  13.467  18.450  0.00  0.00    +0.000 A 
ATOM     11  C   UNL     1       2.563  14.540  19.182  0.00  0.00    +0.000 A 
ATOM     12 BR   UNL     1       3.718  15.980  19.539  0.00  0.00    +0.000 Br
ATOM     13  C   UNL     1       1.268  14.450  19.645  0.00  0.00    +0.000 A 
ATOM     14  N   UNL     1       0.483  13.361  19.468  0.00  0.00    +0.000 NA
ATOM     15  H   UNL     1      -0.498  11.273  19.419  0.00  0.00    +0.000 HD
BRANCH  13  16
ATOM     16  O   UNL     1       0.756  15.504  20.371  0.00  0.00    +0.000 OA
ATOM     17  C   UNL     1      -0.190  16.287  19.649  0.00  0.00    +0.000 C 
ENDBRANCH  13  16
ENDBRANCH   6   7
BRANCH   3  18
ATOM     18  C   UNL     1       3.049   6.158  19.278  0.00  0.00    +0.000 C 
ATOM     19  O   UNL     1       2.635   5.283  20.040  0.00  0.00    +0.000 OA
ATOM     20  N   UNL     1       4.165   5.961  18.466  0.00  0.00    +0.000 N 
ATOM     21  C   UNL     1       4.734   6.883  17.474  0.00  0.00    +0.000 C 
ATOM     22  C   UNL     1       5.141   6.165  16.184  0.00  0.00    +0.000 C 
ATOM     23  O   UNL     1       5.962   5.021  16.445  0.00  0.00    +0.000 OA
ATOM     24  C   UNL     1       5.266   4.094  17.293  0.00  0.00    +0.000 C 
ATOM     25  C   UNL     1       4.948   4.734  18.645  0.00  0.00    +0.000 C 
ENDBRANCH   3  18
BRANCH   1  27
ATOM     26  C   UNL     1      -0.065   9.219  22.279  0.00  0.00    +0.000 C 
ATOM     27  O   UNL     1       0.828   9.911  21.413  0.00  0.00    +0.000 OA
ENDBRANCH   1  27
TORSDOF 4
ENDMDL
