MODEL 1
REMARK VINA RESULT:      -6.0      0.000      0.000
REMARK  Name = 
REMARK  13 active torsions:
REMARK  status: ('A' for Active; 'I' for Inactive)
REMARK    1  A    between atoms: C_7  and  C_8
REMARK    2  A    between atoms: C_11  and  C_12
REMARK    3  A    between atoms: C_13  and  C_14
REMARK    4  A    between atoms: C_13  and  C_16
REMARK    5  A    between atoms: C_14  and  O_15
REMARK    6  A    between atoms: C_16  and  C_17
REMARK    7  A    between atoms: C_19  and  C_20
REMARK    8  A    between atoms: C_20  and  O_22
REMARK    9  A    between atoms: O_22  and  C_23
REMARK   10  A    between atoms: C_24  and  O_25
REMARK   11  A    between atoms: C_26  and  O_27
REMARK   12  A    between atoms: O_27  and  C_28
REMARK   13  A    between atoms: C_29  and  O_30
REMARK                            x       y       z     vdW  Elec       q    Type
REMARK                         _______ _______ _______ _____ _____    ______ ____
ROOT
ATOM      1  C   UNL     1      -1.493  11.922  20.360  0.00  0.00    +0.000 C 
ENDROOT
BRANCH   1  14
ATOM      2  C   UNL     1      -4.353  16.022  24.152  0.00  0.00    +0.000 C 
ATOM      3  C   UNL     1      -3.563  14.930  24.080  0.00  0.00    +0.000 C 
ATOM      4  C   UNL     1      -3.898  13.731  24.944  0.00  0.00    +0.000 C 
ATOM      5  C   UNL     1      -3.904  12.437  24.146  0.00  0.00    +0.000 C 
ATOM      6  C   UNL     1      -2.653  12.249  23.281  0.00  0.00    +0.000 C 
ATOM      7  C   UNL     1      -2.384  13.456  22.351  0.00  0.00    +0.000 C 
ATOM      8  C   UNL     1      -2.286  14.792  23.197  0.00  0.00    +0.000 C 
ATOM      9  C   UNL     1      -1.086  14.807  24.186  0.00  0.00    +0.000 C 
ATOM     10  C   UNL     1      -2.181  15.992  22.222  0.00  0.00    +0.000 C 
ATOM     11  C   UNL     1      -1.171  15.874  21.096  0.00  0.00    +0.000 C 
ATOM     12  C   UNL     1      -1.264  14.553  20.321  0.00  0.00    +0.000 C 
ATOM     13  C   UNL     1      -0.199  14.591  19.208  0.00  0.00    +0.000 C 
ATOM     14  C   UNL     1      -1.244  13.254  21.229  0.00  0.00    +0.000 C 
BRANCH  14  15
ATOM     15  C   UNL     1       0.216  13.099  21.766  0.00  0.00    +0.000 C 
BRANCH  15  16
ATOM     16  O   UNL     1       0.795  11.816  21.599  0.00  0.00    +0.000 OA
ATOM     17  H   UNL     1       0.218  11.263  21.050  0.00  0.00    +0.000 HD
ENDBRANCH  15  16
ENDBRANCH  14  15
ENDBRANCH   1  14
BRANCH   1  18
ATOM     18  C   UNL     1      -2.524  11.960  19.254  0.00  0.00    +0.000 A 
ATOM     19  C   UNL     1      -3.832  12.345  19.541  0.00  0.00    +0.000 A 
ATOM     20  C   UNL     1      -4.892  12.054  18.673  0.00  0.00    +0.000 A 
ATOM     21  C   UNL     1      -4.607  11.596  17.379  0.00  0.00    +0.000 A 
ATOM     22  C   UNL     1      -3.272  11.474  16.972  0.00  0.00    +0.000 A 
ATOM     23  C   UNL     1      -2.251  11.619  17.930  0.00  0.00    +0.000 A 
BRANCH  20  24
ATOM     24  C   UNL     1      -6.278  12.123  19.195  0.00  0.00    +0.000 C 
ATOM     25  O   UNL     1      -6.754  13.161  19.651  0.00  0.00    +0.000 OA
BRANCH  24  26
ATOM     26  O   UNL     1      -6.927  10.945  19.014  0.00  0.00    +0.000 OA
ATOM     27  C   UNL     1      -7.235  10.193  20.185  0.00  0.00    +0.000 C 
ENDBRANCH  24  26
ENDBRANCH  20  24
BRANCH  21  28
ATOM     28  O   UNL     1      -5.613  11.235  16.521  0.00  0.00    +0.000 OA
ATOM     29  H   UNL     1      -6.063  12.043  16.191  0.00  0.00    +0.000 HD
ENDBRANCH  21  28
BRANCH  22  30
ATOM     30  O   UNL     1      -2.814  11.150  15.715  0.00  0.00    +0.000 OA
ATOM     31  C   UNL     1      -2.934   9.780  15.344  0.00  0.00    +0.000 C 
ENDBRANCH  22  30
BRANCH  23  32
ATOM     32  O   UNL     1      -0.946  11.456  17.539  0.00  0.00    +0.000 OA
ATOM     33  H   UNL     1      -0.994  10.957  16.699  0.00  0.00    +0.000 HD
ENDBRANCH  23  32
ENDBRANCH   1  18
TORSDOF 9
ENDMDL
MODEL 2
REMARK VINA RESULT:      -5.9      2.379      4.888
REMARK  Name = 
REMARK  13 active torsions:
REMARK  status: ('A' for Active; 'I' for Inactive)
REMARK    1  A    between atoms: C_7  and  C_8
REMARK    2  A    between atoms: C_11  and  C_12
REMARK    3  A    between atoms: C_13  and  C_14
REMARK    4  A    between atoms: C_13  and  C_16
REMARK    5  A    between atoms: C_14  and  O_15
REMARK    6  A    between atoms: C_16  and  C_17
REMARK    7  A    between atoms: C_19  and  C_20
REMARK    8  A    between atoms: C_20  and  O_22
REMARK    9  A    between atoms: O_22  and  C_23
REMARK   10  A    between atoms: C_24  and  O_25
REMARK   11  A    between atoms: C_26  and  O_27
REMARK   12  A    between atoms: O_27  and  C_28
REMARK   13  A    between atoms: C_29  and  O_30
REMARK                            x       y       z     vdW  Elec       q    Type
REMARK                         _______ _______ _______ _____ _____    ______ ____
ROOT
ATOM      1  C   UNL     1      -3.674  13.853  20.217  0.00  0.00    +0.000 C 
ENDROOT
BRANCH   1  14
ATOM      2  C   UNL     1      -0.024   8.874  21.337  0.00  0.00    +0.000 C 
ATOM      3  C   UNL     1      -0.209   9.977  20.580  0.00  0.00    +0.000 C 
ATOM      4  C   UNL     1      -0.105   9.851  19.075  0.00  0.00    +0.000 C 
ATOM      5  C   UNL     1      -1.285  10.496  18.365  0.00  0.00    +0.000 C 
ATOM      6  C   UNL     1      -1.583  11.918  18.850  0.00  0.00    +0.000 C 
ATOM      7  C   UNL     1      -1.764  12.000  20.385  0.00  0.00    +0.000 C 
ATOM      8  C   UNL     1      -0.491  11.411  21.122  0.00  0.00    +0.000 C 
ATOM      9  C   UNL     1       0.806  12.225  20.855  0.00  0.00    +0.000 C 
ATOM     10  C   UNL     1      -0.778  11.359  22.644  0.00  0.00    +0.000 C 
ATOM     11  C   UNL     1      -1.359  12.611  23.275  0.00  0.00    +0.000 C 
ATOM     12  C   UNL     1      -2.564  13.180  22.517  0.00  0.00    +0.000 C 
ATOM     13  C   UNL     1      -3.051  14.424  23.285  0.00  0.00    +0.000 C 
ATOM     14  C   UNL     1      -2.324  13.396  20.966  0.00  0.00    +0.000 C 
BRANCH  14  15
ATOM     15  C   UNL     1      -1.366  14.623  20.822  0.00  0.00    +0.000 C 
BRANCH  15  16
ATOM     16  O   UNL     1      -1.328  15.221  19.537  0.00  0.00    +0.000 OA
ATOM     17  H   UNL     1      -1.281  16.186  19.623  0.00  0.00    +0.000 HD
ENDBRANCH  15  16
ENDBRANCH  14  15
ENDBRANCH   1  14
BRANCH   1  18
ATOM     18  C   UNL     1      -4.944  13.073  20.469  0.00  0.00    +0.000 A 
ATOM     19  C   UNL     1      -5.682  13.310  21.627  0.00  0.00    +0.000 A 
ATOM     20  C   UNL     1      -6.633  12.394  22.093  0.00  0.00    +0.000 A 
ATOM     21  C   UNL     1      -7.038  11.345  21.256  0.00  0.00    +0.000 A 
ATOM     22  C   UNL     1      -6.509  11.257  19.961  0.00  0.00    +0.000 A 
ATOM     23  C   UNL     1      -5.439  12.099  19.603  0.00  0.00    +0.000 A 
BRANCH  20  24
ATOM     24  C   UNL     1      -7.088  12.495  23.501  0.00  0.00    +0.000 C 
ATOM     25  O   UNL     1      -7.568  11.537  24.104  0.00  0.00    +0.000 OA
BRANCH  24  26
ATOM     26  O   UNL     1      -6.818  13.722  24.015  0.00  0.00    +0.000 OA
ATOM     27  C   UNL     1      -7.916  14.623  24.139  0.00  0.00    +0.000 C 
ENDBRANCH  24  26
ENDBRANCH  20  24
BRANCH  21  28
ATOM     28  O   UNL     1      -7.915  10.388  21.696  0.00  0.00    +0.000 OA
ATOM     29  H   UNL     1      -7.593   9.502  21.417  0.00  0.00    +0.000 HD
ENDBRANCH  21  28
BRANCH  22  30
ATOM     30  O   UNL     1      -6.872  10.369  18.975  0.00  0.00    +0.000 OA
ATOM     31  C   UNL     1      -7.025   9.013  19.386  0.00  0.00    +0.000 C 
ENDBRANCH  22  30
BRANCH  23  32
ATOM     32  O   UNL     1      -4.893  11.982  18.350  0.00  0.00    +0.000 OA
ATOM     33  H   UNL     1      -4.572  11.060  18.299  0.00  0.00    +0.000 HD
ENDBRANCH  23  32
ENDBRANCH   1  18
TORSDOF 9
ENDMDL
MODEL 3
REMARK VINA RESULT:      -5.6      9.984     12.949
REMARK  Name = 
REMARK  13 active torsions:
REMARK  status: ('A' for Active; 'I' for Inactive)
REMARK    1  A    between atoms: C_7  and  C_8
REMARK    2  A    between atoms: C_11  and  C_12
REMARK    3  A    between atoms: C_13  and  C_14
REMARK    4  A    between atoms: C_13  and  C_16
REMARK    5  A    between atoms: C_14  and  O_15
REMARK    6  A    between atoms: C_16  and  C_17
REMARK    7  A    between atoms: C_19  and  C_20
REMARK    8  A    between atoms: C_20  and  O_22
REMARK    9  A    between atoms: O_22  and  C_23
REMARK   10  A    between atoms: C_24  and  O_25
REMARK   11  A    between atoms: C_26  and  O_27
REMARK   12  A    between atoms: O_27  and  C_28
REMARK   13  A    between atoms: C_29  and  O_30
REMARK                            x       y       z     vdW  Elec       q    Type
REMARK                         _______ _______ _______ _____ _____    ______ ____
ROOT
ATOM      1  C   UNL     1       9.941  12.567  21.393  0.00  0.00    +0.000 C 
ENDROOT
BRANCH   1  14
ATOM      2  C   UNL     1       9.339  17.856  18.072  0.00  0.00    +0.000 C 
ATOM      3  C   UNL     1      10.131  17.139  18.897  0.00  0.00    +0.000 C 
ATOM      4  C   UNL     1      10.753  17.831  20.092  0.00  0.00    +0.000 C 
ATOM      5  C   UNL     1      10.553  17.044  21.377  0.00  0.00    +0.000 C 
ATOM      6  C   UNL     1      10.932  15.565  21.249  0.00  0.00    +0.000 C 
ATOM      7  C   UNL     1      10.217  14.865  20.068  0.00  0.00    +0.000 C 
ATOM      8  C   UNL     1      10.505  15.637  18.715  0.00  0.00    +0.000 C 
ATOM      9  C   UNL     1      12.004  15.622  18.305  0.00  0.00    +0.000 C 
ATOM     10  C   UNL     1       9.644  15.007  17.590  0.00  0.00    +0.000 C 
ATOM     11  C   UNL     1       9.664  13.493  17.479  0.00  0.00    +0.000 C 
ATOM     12  C   UNL     1       9.423  12.775  18.811  0.00  0.00    +0.000 C 
ATOM     13  C   UNL     1       9.451  11.259  18.534  0.00  0.00    +0.000 C 
ATOM     14  C   UNL     1      10.353  13.259  19.999  0.00  0.00    +0.000 C 
BRANCH  14  15
ATOM     15  C   UNL     1      11.788  12.713  19.704  0.00  0.00    +0.000 C 
BRANCH  15  16
ATOM     16  O   UNL     1      12.166  11.561  20.438  0.00  0.00    +0.000 OA
ATOM     17  H   UNL     1      12.898  11.109  19.990  0.00  0.00    +0.000 HD
ENDBRANCH  15  16
ENDBRANCH  14  15
ENDBRANCH   1  14
BRANCH   1  18
ATOM     18  C   UNL     1       8.524  12.731  21.894  0.00  0.00    +0.000 A 
ATOM     19  C   UNL     1       7.729  13.760  21.393  0.00  0.00    +0.000 A 
ATOM     20  C   UNL     1       6.574  14.188  22.059  0.00  0.00    +0.000 A 
ATOM     21  C   UNL     1       6.063  13.410  23.107  0.00  0.00    +0.000 A 
ATOM     22  C   UNL     1       6.698  12.206  23.440  0.00  0.00    +0.000 A 
ATOM     23  C   UNL     1       7.943  11.906  22.855  0.00  0.00    +0.000 A 
BRANCH  20  24
ATOM     24  C   UNL     1       6.003  15.512  21.713  0.00  0.00    +0.000 C 
ATOM     25  O   UNL     1       4.829  15.797  21.941  0.00  0.00    +0.000 OA
BRANCH  24  26
ATOM     26  O   UNL     1       6.956  16.341  21.216  0.00  0.00    +0.000 OA
ATOM     27  C   UNL     1       6.510  17.412  20.389  0.00  0.00    +0.000 C 
ENDBRANCH  24  26
ENDBRANCH  20  24
BRANCH  21  28
ATOM     28  O   UNL     1       4.976  13.825  23.830  0.00  0.00    +0.000 OA
ATOM     29  H   UNL     1       5.194  13.797  24.787  0.00  0.00    +0.000 HD
ENDBRANCH  21  28
BRANCH  22  30
ATOM     30  O   UNL     1       6.274  11.271  24.357  0.00  0.00    +0.000 OA
ATOM     31  C   UNL     1       6.602  11.540  25.717  0.00  0.00    +0.000 C 
ENDBRANCH  22  30
BRANCH  23  32
ATOM     32  O   UNL     1       8.584  10.748  23.216  0.00  0.00    +0.000 OA
ATOM     33  H   UNL     1       8.122  10.039  22.726  0.00  0.00    +0.000 HD
ENDBRANCH  23  32
ENDBRANCH   1  18
TORSDOF 9
ENDMDL
MODEL 4
REMARK VINA RESULT:      -5.5      2.184      4.805
REMARK  Name = 
REMARK  13 active torsions:
REMARK  status: ('A' for Active; 'I' for Inactive)
REMARK    1  A    between atoms: C_7  and  C_8
REMARK    2  A    between atoms: C_11  and  C_12
REMARK    3  A    between atoms: C_13  and  C_14
REMARK    4  A    between atoms: C_13  and  C_16
REMARK    5  A    between atoms: C_14  and  O_15
REMARK    6  A    between atoms: C_16  and  C_17
REMARK    7  A    between atoms: C_19  and  C_20
REMARK    8  A    between atoms: C_20  and  O_22
REMARK    9  A    between atoms: O_22  and  C_23
REMARK   10  A    between atoms: C_24  and  O_25
REMARK   11  A    between atoms: C_26  and  O_27
REMARK   12  A    between atoms: O_27  and  C_28
REMARK   13  A    between atoms: C_29  and  O_30
REMARK                            x       y       z     vdW  Elec       q    Type
REMARK                         _______ _______ _______ _____ _____    ______ ____
ROOT
ATOM      1  C   UNL     1      -2.908  12.632  21.962  0.00  0.00    +0.000 C 
ENDROOT
BRANCH   1  14
ATOM      2  C   UNL     1      -7.107  15.264  18.113  0.00  0.00    +0.000 C 
ATOM      3  C   UNL     1      -6.921  14.477  19.195  0.00  0.00    +0.000 C 
ATOM      4  C   UNL     1      -7.654  13.154  19.266  0.00  0.00    +0.000 C 
ATOM      5  C   UNL     1      -6.725  12.006  19.628  0.00  0.00    +0.000 C 
ATOM      6  C   UNL     1      -5.846  12.295  20.849  0.00  0.00    +0.000 C 
ATOM      7  C   UNL     1      -5.048  13.614  20.710  0.00  0.00    +0.000 C 
ATOM      8  C   UNL     1      -6.029  14.825  20.425  0.00  0.00    +0.000 C 
ATOM      9  C   UNL     1      -7.015  15.106  21.594  0.00  0.00    +0.000 C 
ATOM     10  C   UNL     1      -5.185  16.091  20.131  0.00  0.00    +0.000 C 
ATOM     11  C   UNL     1      -4.054  16.399  21.094  0.00  0.00    +0.000 C 
ATOM     12  C   UNL     1      -3.145  15.198  21.381  0.00  0.00    +0.000 C 
ATOM     13  C   UNL     1      -2.043  15.670  22.349  0.00  0.00    +0.000 C 
ATOM     14  C   UNL     1      -3.911  13.883  21.823  0.00  0.00    +0.000 C 
BRANCH  14  15
ATOM     15  C   UNL     1      -4.431  14.127  23.277  0.00  0.00    +0.000 C 
BRANCH  15  16
ATOM     16  O   UNL     1      -3.912  13.254  24.266  0.00  0.00    +0.000 OA
ATOM     17  H   UNL     1      -4.023  12.332  23.983  0.00  0.00    +0.000 HD
ENDBRANCH  15  16
ENDBRANCH  14  15
ENDBRANCH   1  14
BRANCH   1  18
ATOM     18  C   UNL     1      -2.004  12.293  20.798  0.00  0.00    +0.000 A 
ATOM     19  C   UNL     1      -2.562  11.927  19.575  0.00  0.00    +0.000 A 
ATOM     20  C   UNL     1      -1.815  11.261  18.595  0.00  0.00    +0.000 A 
ATOM     21  C   UNL     1      -0.422  11.185  18.734  0.00  0.00    +0.000 A 
ATOM     22  C   UNL     1       0.193  11.806  19.830  0.00  0.00    +0.000 A 
ATOM     23  C   UNL     1      -0.612  12.316  20.866  0.00  0.00    +0.000 A 
BRANCH  20  24
ATOM     24  C   UNL     1      -2.535  10.554  17.509  0.00  0.00    +0.000 C 
ATOM     25  O   UNL     1      -3.316   9.632  17.735  0.00  0.00    +0.000 OA
BRANCH  24  26
ATOM     26  O   UNL     1      -2.276  11.119  16.302  0.00  0.00    +0.000 OA
ATOM     27  C   UNL     1      -3.005  10.614  15.186  0.00  0.00    +0.000 C 
ENDBRANCH  24  26
ENDBRANCH  20  24
BRANCH  21  28
ATOM     28  O   UNL     1       0.341  10.485  17.836  0.00  0.00    +0.000 OA
ATOM     29  H   UNL     1      -0.234  10.158  17.110  0.00  0.00    +0.000 HD
ENDBRANCH  21  28
BRANCH  22  30
ATOM     30  O   UNL     1       1.543  11.927  20.064  0.00  0.00    +0.000 OA
ATOM     31  C   UNL     1       2.205  12.977  19.363  0.00  0.00    +0.000 C 
ENDBRANCH  22  30
BRANCH  23  32
ATOM     32  O   UNL     1      -0.007  12.884  21.958  0.00  0.00    +0.000 OA
ATOM     33  H   UNL     1       0.501  12.159  22.372  0.00  0.00    +0.000 HD
ENDBRANCH  23  32
ENDBRANCH   1  18
TORSDOF 9
ENDMDL
MODEL 5
REMARK VINA RESULT:      -5.5      2.198      3.468
REMARK  Name = 
REMARK  13 active torsions:
REMARK  status: ('A' for Active; 'I' for Inactive)
REMARK    1  A    between atoms: C_7  and  C_8
REMARK    2  A    between atoms: C_11  and  C_12
REMARK    3  A    between atoms: C_13  and  C_14
REMARK    4  A    between atoms: C_13  and  C_16
REMARK    5  A    between atoms: C_14  and  O_15
REMARK    6  A    between atoms: C_16  and  C_17
REMARK    7  A    between atoms: C_19  and  C_20
REMARK    8  A    between atoms: C_20  and  O_22
REMARK    9  A    between atoms: O_22  and  C_23
REMARK   10  A    between atoms: C_24  and  O_25
REMARK   11  A    between atoms: C_26  and  O_27
REMARK   12  A    between atoms: O_27  and  C_28
REMARK   13  A    between atoms: C_29  and  O_30
REMARK                            x       y       z     vdW  Elec       q    Type
REMARK                         _______ _______ _______ _____ _____    ______ ____
ROOT
ATOM      1  C   UNL     1      -0.810  11.045  19.919  0.00  0.00    +0.000 C 
ENDROOT
BRANCH   1  14
ATOM      2  C   UNL     1       0.517  16.982  18.385  0.00  0.00    +0.000 C 
ATOM      3  C   UNL     1       0.271  16.116  19.391  0.00  0.00    +0.000 C 
ATOM      4  C   UNL     1      -0.741  16.501  20.450  0.00  0.00    +0.000 C 
ATOM      5  C   UNL     1      -1.750  15.393  20.707  0.00  0.00    +0.000 C 
ATOM      6  C   UNL     1      -1.103  14.023  20.935  0.00  0.00    +0.000 C 
ATOM      7  C   UNL     1      -0.137  13.622  19.794  0.00  0.00    +0.000 C 
ATOM      8  C   UNL     1       0.970  14.738  19.592  0.00  0.00    +0.000 C 
ATOM      9  C   UNL     1       1.900  14.913  20.825  0.00  0.00    +0.000 C 
ATOM     10  C   UNL     1       1.813  14.381  18.341  0.00  0.00    +0.000 C 
ATOM     11  C   UNL     1       2.320  12.954  18.241  0.00  0.00    +0.000 C 
ATOM     12  C   UNL     1       1.235  11.898  18.481  0.00  0.00    +0.000 C 
ATOM     13  C   UNL     1       1.893  10.513  18.326  0.00  0.00    +0.000 C 
ATOM     14  C   UNL     1       0.400  12.101  19.813  0.00  0.00    +0.000 C 
BRANCH  14  15
ATOM     15  C   UNL     1       1.345  11.730  21.002  0.00  0.00    +0.000 C 
BRANCH  15  16
ATOM     16  O   UNL     1       0.821  10.796  21.930  0.00  0.00    +0.000 OA
ATOM     17  H   UNL     1       0.082  10.312  21.529  0.00  0.00    +0.000 HD
ENDBRANCH  15  16
ENDBRANCH  14  15
ENDBRANCH   1  14
BRANCH   1  18
ATOM     18  C   UNL     1      -1.990  11.196  18.986  0.00  0.00    +0.000 A 
ATOM     19  C   UNL     1      -3.018  12.077  19.310  0.00  0.00    +0.000 A 
ATOM     20  C   UNL     1      -4.277  11.996  18.701  0.00  0.00    +0.000 A 
ATOM     21  C   UNL     1      -4.434  11.186  17.567  0.00  0.00    +0.000 A 
ATOM     22  C   UNL     1      -3.324  10.506  17.050  0.00  0.00    +0.000 A 
ATOM     23  C   UNL     1      -2.127  10.489  17.792  0.00  0.00    +0.000 A 
BRANCH  20  24
ATOM     24  C   UNL     1      -5.426  12.672  19.349  0.00  0.00    +0.000 C 
ATOM     25  O   UNL     1      -6.102  13.517  18.765  0.00  0.00    +0.000 OA
BRANCH  24  26
ATOM     26  O   UNL     1      -5.653  12.169  20.589  0.00  0.00    +0.000 OA
ATOM     27  C   UNL     1      -6.995  11.802  20.899  0.00  0.00    +0.000 C 
ENDBRANCH  24  26
ENDBRANCH  20  24
BRANCH  21  28
ATOM     28  O   UNL     1      -5.662  11.023  16.981  0.00  0.00    +0.000 OA
ATOM     29  H   UNL     1      -6.299  11.654  17.382  0.00  0.00    +0.000 HD
ENDBRANCH  21  28
BRANCH  22  30
ATOM     30  O   UNL     1      -3.271   9.764  15.893  0.00  0.00    +0.000 OA
ATOM     31  C   UNL     1      -3.158  10.507  14.682  0.00  0.00    +0.000 C 
ENDBRANCH  22  30
BRANCH  23  32
ATOM     32  O   UNL     1      -1.054   9.786  17.305  0.00  0.00    +0.000 OA
ATOM     33  H   UNL     1      -0.545  10.434  16.779  0.00  0.00    +0.000 HD
ENDBRANCH  23  32
ENDBRANCH   1  18
TORSDOF 9
ENDMDL
MODEL 6
REMARK VINA RESULT:      -5.5      2.267      4.906
REMARK  Name = 
REMARK  13 active torsions:
REMARK  status: ('A' for Active; 'I' for Inactive)
REMARK    1  A    between atoms: C_7  and  C_8
REMARK    2  A    between atoms: C_11  and  C_12
REMARK    3  A    between atoms: C_13  and  C_14
REMARK    4  A    between atoms: C_13  and  C_16
REMARK    5  A    between atoms: C_14  and  O_15
REMARK    6  A    between atoms: C_16  and  C_17
REMARK    7  A    between atoms: C_19  and  C_20
REMARK    8  A    between atoms: C_20  and  O_22
REMARK    9  A    between atoms: O_22  and  C_23
REMARK   10  A    between atoms: C_24  and  O_25
REMARK   11  A    between atoms: C_26  and  O_27
REMARK   12  A    between atoms: O_27  and  C_28
REMARK   13  A    between atoms: C_29  and  O_30
REMARK                            x       y       z     vdW  Elec       q    Type
REMARK                         _______ _______ _______ _____ _____    ______ ____
ROOT
ATOM      1  C   UNL     1      -3.293  12.734  22.665  0.00  0.00    +0.000 C 
ENDROOT
BRANCH   1  14
ATOM      2  C   UNL     1      -6.886  15.278  18.195  0.00  0.00    +0.000 C 
ATOM      3  C   UNL     1      -6.865  14.558  19.337  0.00  0.00    +0.000 C 
ATOM      4  C   UNL     1      -7.665  13.273  19.401  0.00  0.00    +0.000 C 
ATOM      5  C   UNL     1      -6.842  12.114  19.939  0.00  0.00    +0.000 C 
ATOM      6  C   UNL     1      -6.096  12.447  21.236  0.00  0.00    +0.000 C 
ATOM      7  C   UNL     1      -5.224  13.719  21.112  0.00  0.00    +0.000 C 
ATOM      8  C   UNL     1      -6.106  14.948  20.640  0.00  0.00    +0.000 C 
ATOM      9  C   UNL     1      -7.204  15.347  21.666  0.00  0.00    +0.000 C 
ATOM     10  C   UNL     1      -5.172  16.156  20.371  0.00  0.00    +0.000 C 
ATOM     11  C   UNL     1      -4.145  16.480  21.441  0.00  0.00    +0.000 C 
ATOM     12  C   UNL     1      -3.336  15.264  21.906  0.00  0.00    +0.000 C 
ATOM     13  C   UNL     1      -2.331  15.752  22.967  0.00  0.00    +0.000 C 
ATOM     14  C   UNL     1      -4.211  14.014  22.333  0.00  0.00    +0.000 C 
BRANCH  14  15
ATOM     15  C   UNL     1      -4.883  14.375  23.698  0.00  0.00    +0.000 C 
BRANCH  15  16
ATOM     16  O   UNL     1      -5.023  13.300  24.612  0.00  0.00    +0.000 OA
ATOM     17  H   UNL     1      -5.194  13.645  25.503  0.00  0.00    +0.000 HD
ENDBRANCH  15  16
ENDBRANCH  14  15
ENDBRANCH   1  14
BRANCH   1  18
ATOM     18  C   UNL     1      -2.288  12.275  21.633  0.00  0.00    +0.000 A 
ATOM     19  C   UNL     1      -2.598  12.367  20.278  0.00  0.00    +0.000 A 
ATOM     20  C   UNL     1      -1.893  11.640  19.311  0.00  0.00    +0.000 A 
ATOM     21  C   UNL     1      -0.695  11.007  19.673  0.00  0.00    +0.000 A 
ATOM     22  C   UNL     1      -0.214  11.146  20.981  0.00  0.00    +0.000 A 
ATOM     23  C   UNL     1      -1.039  11.744  21.952  0.00  0.00    +0.000 A 
BRANCH  20  24
ATOM     24  C   UNL     1      -2.501  11.463  17.971  0.00  0.00    +0.000 C 
ATOM     25  O   UNL     1      -1.830  11.480  16.940  0.00  0.00    +0.000 OA
BRANCH  24  26
ATOM     26  O   UNL     1      -3.830  11.203  18.068  0.00  0.00    +0.000 OA
ATOM     27  C   UNL     1      -4.649  11.628  16.982  0.00  0.00    +0.000 C 
ENDBRANCH  24  26
ENDBRANCH  20  24
BRANCH  21  28
ATOM     28  O   UNL     1      -0.009  10.230  18.777  0.00  0.00    +0.000 OA
ATOM     29  H   UNL     1      -0.053   9.291  19.062  0.00  0.00    +0.000 HD
ENDBRANCH  21  28
BRANCH  22  30
ATOM     30  O   UNL     1       0.988  10.692  21.475  0.00  0.00    +0.000 OA
ATOM     31  C   UNL     1       1.025   9.319  21.858  0.00  0.00    +0.000 C 
ENDBRANCH  22  30
BRANCH  23  32
ATOM     32  O   UNL     1      -0.583  11.839  23.243  0.00  0.00    +0.000 OA
ATOM     33  H   UNL     1       0.317  11.457  23.222  0.00  0.00    +0.000 HD
ENDBRANCH  23  32
ENDBRANCH   1  18
TORSDOF 9
ENDMDL
MODEL 7
REMARK VINA RESULT:      -5.5      7.973     11.462
REMARK  Name = 
REMARK  13 active torsions:
REMARK  status: ('A' for Active; 'I' for Inactive)
REMARK    1  A    between atoms: C_7  and  C_8
REMARK    2  A    between atoms: C_11  and  C_12
REMARK    3  A    between atoms: C_13  and  C_14
REMARK    4  A    between atoms: C_13  and  C_16
REMARK    5  A    between atoms: C_14  and  O_15
REMARK    6  A    between atoms: C_16  and  C_17
REMARK    7  A    between atoms: C_19  and  C_20
REMARK    8  A    between atoms: C_20  and  O_22
REMARK    9  A    between atoms: O_22  and  C_23
REMARK   10  A    between atoms: C_24  and  O_25
REMARK   11  A    between atoms: C_26  and  O_27
REMARK   12  A    between atoms: O_27  and  C_28
REMARK   13  A    between atoms: C_29  and  O_30
REMARK                            x       y       z     vdW  Elec       q    Type
REMARK                         _______ _______ _______ _____ _____    ______ ____
ROOT
ATOM      1  C   UNL     1       8.237  15.764  20.603  0.00  0.00    +0.000 C 
ENDROOT
BRANCH   1  14
ATOM      2  C   UNL     1       9.164   9.747  19.083  0.00  0.00    +0.000 C 
ATOM      3  C   UNL     1       9.659  11.002  19.031  0.00  0.00    +0.000 C 
ATOM      4  C   UNL     1      10.168  11.528  17.705  0.00  0.00    +0.000 C 
ATOM      5  C   UNL     1       9.607  12.905  17.384  0.00  0.00    +0.000 C 
ATOM      6  C   UNL     1       9.741  13.901  18.540  0.00  0.00    +0.000 C 
ATOM      7  C   UNL     1       9.139  13.366  19.862  0.00  0.00    +0.000 C 
ATOM      8  C   UNL     1       9.793  11.974  20.241  0.00  0.00    +0.000 C 
ATOM      9  C   UNL     1      11.317  12.071  20.537  0.00  0.00    +0.000 C 
ATOM     10  C   UNL     1       9.052  11.396  21.474  0.00  0.00    +0.000 C 
ATOM     11  C   UNL     1       8.830  12.337  22.643  0.00  0.00    +0.000 C 
ATOM     12  C   UNL     1       8.233  13.690  22.239  0.00  0.00    +0.000 C 
ATOM     13  C   UNL     1       8.047  14.519  23.525  0.00  0.00    +0.000 C 
ATOM     14  C   UNL     1       9.005  14.428  21.068  0.00  0.00    +0.000 C 
BRANCH  14  15
ATOM     15  C   UNL     1      10.353  14.945  21.669  0.00  0.00    +0.000 C 
BRANCH  15  16
ATOM     16  O   UNL     1      10.545  16.348  21.619  0.00  0.00    +0.000 OA
ATOM     17  H   UNL     1      11.491  16.549  21.544  0.00  0.00    +0.000 HD
ENDBRANCH  15  16
ENDBRANCH  14  15
ENDBRANCH   1  14
BRANCH   1  18
ATOM     18  C   UNL     1       6.743  15.701  20.378  0.00  0.00    +0.000 A 
ATOM     19  C   UNL     1       5.874  15.928  21.444  0.00  0.00    +0.000 A 
ATOM     20  C   UNL     1       4.532  15.532  21.396  0.00  0.00    +0.000 A 
ATOM     21  C   UNL     1       3.982  15.132  20.169  0.00  0.00    +0.000 A 
ATOM     22  C   UNL     1       4.777  15.172  19.016  0.00  0.00    +0.000 A 
ATOM     23  C   UNL     1       6.157  15.417  19.146  0.00  0.00    +0.000 A 
BRANCH  20  24
ATOM     24  C   UNL     1       3.774  15.432  22.666  0.00  0.00    +0.000 C 
ATOM     25  O   UNL     1       4.192  14.790  23.628  0.00  0.00    +0.000 OA
BRANCH  24  26
ATOM     26  O   UNL     1       2.652  16.195  22.627  0.00  0.00    +0.000 OA
ATOM     27  C   UNL     1       2.486  17.149  23.673  0.00  0.00    +0.000 C 
ENDBRANCH  24  26
ENDBRANCH  20  24
BRANCH  21  28
ATOM     28  O   UNL     1       2.694  14.672  20.089  0.00  0.00    +0.000 OA
ATOM     29  H   UNL     1       2.461  14.522  19.147  0.00  0.00    +0.000 HD
ENDBRANCH  21  28
BRANCH  22  30
ATOM     30  O   UNL     1       4.375  14.924  17.723  0.00  0.00    +0.000 OA
ATOM     31  C   UNL     1       3.531  15.910  17.134  0.00  0.00    +0.000 C 
ENDBRANCH  22  30
BRANCH  23  32
ATOM     32  O   UNL     1       6.941  15.411  18.019  0.00  0.00    +0.000 OA
ATOM     33  H   UNL     1       7.324  16.310  17.974  0.00  0.00    +0.000 HD
ENDBRANCH  23  32
ENDBRANCH   1  18
TORSDOF 9
ENDMDL
MODEL 8
REMARK VINA RESULT:      -5.5      2.172      4.511
REMARK  Name = 
REMARK  13 active torsions:
REMARK  status: ('A' for Active; 'I' for Inactive)
REMARK    1  A    between atoms: C_7  and  C_8
REMARK    2  A    between atoms: C_11  and  C_12
REMARK    3  A    between atoms: C_13  and  C_14
REMARK    4  A    between atoms: C_13  and  C_16
REMARK    5  A    between atoms: C_14  and  O_15
REMARK    6  A    between atoms: C_16  and  C_17
REMARK    7  A    between atoms: C_19  and  C_20
REMARK    8  A    between atoms: C_20  and  O_22
REMARK    9  A    between atoms: O_22  and  C_23
REMARK   10  A    between atoms: C_24  and  O_25
REMARK   11  A    between atoms: C_26  and  O_27
REMARK   12  A    between atoms: O_27  and  C_28
REMARK   13  A    between atoms: C_29  and  O_30
REMARK                            x       y       z     vdW  Elec       q    Type
REMARK                         _______ _______ _______ _____ _____    ______ ____
ROOT
ATOM      1  C   UNL     1      -2.916  12.148  22.790  0.00  0.00    +0.000 C 
ENDROOT
BRANCH   1  14
ATOM      2  C   UNL     1      -6.752  16.539  20.471  0.00  0.00    +0.000 C 
ATOM      3  C   UNL     1      -6.665  15.388  21.171  0.00  0.00    +0.000 C 
ATOM      4  C   UNL     1      -7.577  14.238  20.796  0.00  0.00    +0.000 C 
ATOM      5  C   UNL     1      -6.816  12.931  20.646  0.00  0.00    +0.000 C 
ATOM      6  C   UNL     1      -5.888  12.627  21.827  0.00  0.00    +0.000 C 
ATOM      7  C   UNL     1      -4.912  13.790  22.133  0.00  0.00    +0.000 C 
ATOM      8  C   UNL     1      -5.716  15.133  22.381  0.00  0.00    +0.000 C 
ATOM      9  C   UNL     1      -6.636  15.077  23.633  0.00  0.00    +0.000 C 
ATOM     10  C   UNL     1      -4.705  16.299  22.521  0.00  0.00    +0.000 C 
ATOM     11  C   UNL     1      -3.528  16.078  23.453  0.00  0.00    +0.000 C 
ATOM     12  C   UNL     1      -2.795  14.752  23.215  0.00  0.00    +0.000 C 
ATOM     13  C   UNL     1      -1.624  14.683  24.214  0.00  0.00    +0.000 C 
ATOM     14  C   UNL     1      -3.734  13.475  23.189  0.00  0.00    +0.000 C 
BRANCH  14  15
ATOM     15  C   UNL     1      -4.194  13.220  24.661  0.00  0.00    +0.000 C 
BRANCH  15  16
ATOM     16  O   UNL     1      -4.580  11.888  24.958  0.00  0.00    +0.000 OA
ATOM     17  H   UNL     1      -5.383  11.660  24.464  0.00  0.00    +0.000 HD
ENDBRANCH  15  16
ENDBRANCH  14  15
ENDBRANCH   1  14
BRANCH   1  18
ATOM     18  C   UNL     1      -2.124  12.143  21.501  0.00  0.00    +0.000 A 
ATOM     19  C   UNL     1      -2.793  12.197  20.280  0.00  0.00    +0.000 A 
ATOM     20  C   UNL     1      -2.166  11.832  19.082  0.00  0.00    +0.000 A 
ATOM     21  C   UNL     1      -0.775  11.653  19.066  0.00  0.00    +0.000 A 
ATOM     22  C   UNL     1      -0.042  11.878  20.239  0.00  0.00    +0.000 A 
ATOM     23  C   UNL     1      -0.733  12.080  21.449  0.00  0.00    +0.000 A 
BRANCH  20  24
ATOM     24  C   UNL     1      -3.010  11.527  17.902  0.00  0.00    +0.000 C 
ATOM     25  O   UNL     1      -4.225  11.363  17.992  0.00  0.00    +0.000 OA
BRANCH  24  26
ATOM     26  O   UNL     1      -2.278  11.549  16.759  0.00  0.00    +0.000 OA
ATOM     27  C   UNL     1      -2.804  10.833  15.644  0.00  0.00    +0.000 C 
ENDBRANCH  24  26
ENDBRANCH  20  24
BRANCH  21  28
ATOM     28  O   UNL     1      -0.130  11.230  17.934  0.00  0.00    +0.000 OA
ATOM     29  H   UNL     1      -0.782  11.140  17.205  0.00  0.00    +0.000 HD
ENDBRANCH  21  28
BRANCH  22  30
ATOM     30  O   UNL     1       1.327  11.859  20.377  0.00  0.00    +0.000 OA
ATOM     31  C   UNL     1       2.013  13.032  19.945  0.00  0.00    +0.000 C 
ENDBRANCH  22  30
BRANCH  23  32
ATOM     32  O   UNL     1      -0.013  12.256  22.603  0.00  0.00    +0.000 OA
ATOM     33  H   UNL     1      -0.244  13.155  22.911  0.00  0.00    +0.000 HD
ENDBRANCH  23  32
ENDBRANCH   1  18
TORSDOF 9
ENDMDL
MODEL 9
REMARK VINA RESULT:      -5.4      1.597      2.106
REMARK  Name = 
REMARK  13 active torsions:
REMARK  status: ('A' for Active; 'I' for Inactive)
REMARK    1  A    between atoms: C_7  and  C_8
REMARK    2  A    between atoms: C_11  and  C_12
REMARK    3  A    between atoms: C_13  and  C_14
REMARK    4  A    between atoms: C_13  and  C_16
REMARK    5  A    between atoms: C_14  and  O_15
REMARK    6  A    between atoms: C_16  and  C_17
REMARK    7  A    between atoms: C_19  and  C_20
REMARK    8  A    between atoms: C_20  and  O_22
REMARK    9  A    between atoms: O_22  and  C_23
REMARK   10  A    between atoms: C_24  and  O_25
REMARK   11  A    between atoms: C_26  and  O_27
REMARK   12  A    between atoms: O_27  and  C_28
REMARK   13  A    between atoms: C_29  and  O_30
REMARK                            x       y       z     vdW  Elec       q    Type
REMARK                         _______ _______ _______ _____ _____    ______ ____
ROOT
ATOM      1  C   UNL     1      -2.748  12.675  21.477  0.00  0.00    +0.000 C 
ENDROOT
BRANCH   1  14
ATOM      2  C   UNL     1      -7.203  16.858  22.902  0.00  0.00    +0.000 C 
ATOM      3  C   UNL     1      -6.438  15.841  23.355  0.00  0.00    +0.000 C 
ATOM      4  C   UNL     1      -7.105  14.710  24.110  0.00  0.00    +0.000 C 
ATOM      5  C   UNL     1      -6.688  13.347  23.583  0.00  0.00    +0.000 C 
ATOM      6  C   UNL     1      -5.171  13.188  23.440  0.00  0.00    +0.000 C 
ATOM      7  C   UNL     1      -4.530  14.314  22.593  0.00  0.00    +0.000 C 
ATOM      8  C   UNL     1      -4.891  15.732  23.201  0.00  0.00    +0.000 C 
ATOM      9  C   UNL     1      -4.309  15.958  24.625  0.00  0.00    +0.000 C 
ATOM     10  C   UNL     1      -4.373  16.832  22.239  0.00  0.00    +0.000 C 
ATOM     11  C   UNL     1      -2.944  16.693  21.746  0.00  0.00    +0.000 C 
ATOM     12  C   UNL     1      -2.614  15.298  21.202  0.00  0.00    +0.000 C 
ATOM     13  C   UNL     1      -1.149  15.321  20.724  0.00  0.00    +0.000 C 
ATOM     14  C   UNL     1      -2.986  14.105  22.176  0.00  0.00    +0.000 C 
BRANCH  14  15
ATOM     15  C   UNL     1      -1.956  14.140  23.350  0.00  0.00    +0.000 C 
BRANCH  15  16
ATOM     16  O   UNL     1      -1.139  12.989  23.480  0.00  0.00    +0.000 OA
ATOM     17  H   UNL     1      -0.635  13.033  24.308  0.00  0.00    +0.000 HD
ENDBRANCH  15  16
ENDBRANCH  14  15
ENDBRANCH   1  14
BRANCH   1  18
ATOM     18  C   UNL     1      -3.309  12.441  20.092  0.00  0.00    +0.000 A 
ATOM     19  C   UNL     1      -4.665  12.650  19.852  0.00  0.00    +0.000 A 
ATOM     20  C   UNL     1      -5.304  12.113  18.727  0.00  0.00    +0.000 A 
ATOM     21  C   UNL     1      -4.525  11.574  17.692  0.00  0.00    +0.000 A 
ATOM     22  C   UNL     1      -3.128  11.617  17.792  0.00  0.00    +0.000 A 
ATOM     23  C   UNL     1      -2.542  12.013  19.009  0.00  0.00    +0.000 A 
BRANCH  20  24
ATOM     24  C   UNL     1      -6.784  12.023  18.725  0.00  0.00    +0.000 C 
ATOM     25  O   UNL     1      -7.467  12.501  17.821  0.00  0.00    +0.000 OA
BRANCH  24  26
ATOM     26  O   UNL     1      -7.230  11.290  19.776  0.00  0.00    +0.000 OA
ATOM     27  C   UNL     1      -7.146   9.872  19.654  0.00  0.00    +0.000 C 
ENDBRANCH  24  26
ENDBRANCH  20  24
BRANCH  21  28
ATOM     28  O   UNL     1      -5.110  10.978  16.606  0.00  0.00    +0.000 OA
ATOM     29  H   UNL     1      -4.892  10.020  16.607  0.00  0.00    +0.000 HD
ENDBRANCH  21  28
BRANCH  22  30
ATOM     30  O   UNL     1      -2.217  11.240  16.832  0.00  0.00    +0.000 OA
ATOM     31  C   UNL     1      -1.982   9.839  16.714  0.00  0.00    +0.000 C 
ENDBRANCH  22  30
BRANCH  23  32
ATOM     32  O   UNL     1      -1.175  12.011  19.119  0.00  0.00    +0.000 OA
ATOM     33  H   UNL     1      -0.991  12.390  20.001  0.00  0.00    +0.000 HD
ENDBRANCH  23  32
ENDBRANCH   1  18
TORSDOF 9
ENDMDL
