MODEL 1
REMARK VINA RESULT:      -6.9      0.000      0.000
REMARK  Name = 
REMARK  2 active torsions:
REMARK  status: ('A' for Active; 'I' for Inactive)
REMARK    1  A    between atoms: C_1  and  C_2
REMARK    2  A    between atoms: C_7  and  C_8
REMARK                            x       y       z     vdW  Elec       q    Type
REMARK                         _______ _______ _______ _____ _____    ______ ____
ROOT
ATOM      1  C   UNL     1       5.123   4.045  13.619  0.00  0.00    +0.000 C 
ATOM      2  C   UNL     1       6.010   4.289  14.777  0.00  0.00    +0.000 A 
ATOM      3  N   UNL     1       7.325   4.462  14.591  0.00  0.00    +0.000 NA
ATOM      4  O   UNL     1       7.857   4.652  15.854  0.00  0.00    +0.000 OA
ATOM      5  C   UNL     1       6.873   4.546  16.784  0.00  0.00    +0.000 A 
ATOM      6  C   UNL     1       5.664   4.366  16.154  0.00  0.00    +0.000 A 
ATOM      7  C   UNL     1       4.327   4.210  16.755  0.00  0.00    +0.000 C 
ATOM      8  S   UNL     1       4.495   2.878  18.011  0.00  0.00    +0.000 S 
ATOM      9  C   UNL     1       5.265   3.770  19.373  0.00  0.00    +0.000 C 
ATOM     10  C   UNL     1       6.474   4.670  19.184  0.00  0.00    +0.000 C 
ATOM     11  O   UNL     1       6.856   5.338  20.159  0.00  0.00    +0.000 OA
ATOM     12  N   UNL     1       7.257   4.715  18.081  0.00  0.00    +0.000 N 
ATOM     13  H   UNL     1       8.144   5.188  18.204  0.00  0.00    +0.000 HD
ENDROOT
BRANCH   7  14
ATOM     14  C   UNL     1       3.679   5.501  17.261  0.00  0.00    +0.000 A 
ATOM     15  C   UNL     1       4.405   6.688  16.956  0.00  0.00    +0.000 A 
ATOM     16  C   UNL     1       3.944   7.965  17.284  0.00  0.00    +0.000 A 
ATOM     17  C   UNL     1       2.736   8.111  17.941  0.00  0.00    +0.000 A 
ATOM     18  C   UNL     1       2.033   6.976  18.322  0.00  0.00    +0.000 A 
ATOM     19  C   UNL     1       2.509   5.684  18.025  0.00  0.00    +0.000 A 
ATOM     20 CL   UNL     1       1.572   4.430  18.755  0.00  0.00    +0.000 Cl
ENDBRANCH   7  14
TORSDOF 1
ENDMDL
MODEL 2
REMARK VINA RESULT:      -6.8      2.222      2.916
REMARK  Name = 
REMARK  2 active torsions:
REMARK  status: ('A' for Active; 'I' for Inactive)
REMARK    1  A    between atoms: C_1  and  C_2
REMARK    2  A    between atoms: C_7  and  C_8
REMARK                            x       y       z     vdW  Elec       q    Type
REMARK                         _______ _______ _______ _____ _____    ______ ____
ROOT
ATOM      1  C   UNL     1       5.215   6.314  15.502  0.00  0.00    +0.000 C 
ATOM      2  C   UNL     1       5.572   5.402  16.611  0.00  0.00    +0.000 A 
ATOM      3  N   UNL     1       6.859   5.149  16.884  0.00  0.00    +0.000 NA
ATOM      4  O   UNL     1       6.844   4.265  17.949  0.00  0.00    +0.000 OA
ATOM      5  C   UNL     1       5.561   3.962  18.274  0.00  0.00    +0.000 A 
ATOM      6  C   UNL     1       4.704   4.696  17.488  0.00  0.00    +0.000 A 
ATOM      7  C   UNL     1       3.230   4.704  17.492  0.00  0.00    +0.000 C 
ATOM      8  S   UNL     1       2.721   2.942  17.361  0.00  0.00    +0.000 S 
ATOM      9  C   UNL     1       2.960   2.376  19.054  0.00  0.00    +0.000 C 
ATOM     10  C   UNL     1       4.231   2.650  19.838  0.00  0.00    +0.000 C 
ATOM     11  O   UNL     1       4.252   2.329  21.037  0.00  0.00    +0.000 OA
ATOM     12  N   UNL     1       5.397   3.098  19.315  0.00  0.00    +0.000 N 
ATOM     13  H   UNL     1       6.203   3.006  19.923  0.00  0.00    +0.000 HD
ENDROOT
BRANCH   7  14
ATOM     14  C   UNL     1       2.579   5.484  18.637  0.00  0.00    +0.000 A 
ATOM     15  C   UNL     1       1.834   4.685  19.551  0.00  0.00    +0.000 A 
ATOM     16  C   UNL     1       1.218   5.210  20.689  0.00  0.00    +0.000 A 
ATOM     17  C   UNL     1       1.312   6.562  20.959  0.00  0.00    +0.000 A 
ATOM     18  C   UNL     1       1.967   7.388  20.055  0.00  0.00    +0.000 A 
ATOM     19  C   UNL     1       2.561   6.872  18.887  0.00  0.00    +0.000 A 
ATOM     20 CL   UNL     1       3.150   8.099  17.824  0.00  0.00    +0.000 Cl
ENDBRANCH   7  14
TORSDOF 1
ENDMDL
MODEL 3
REMARK VINA RESULT:      -6.3      1.295      1.680
REMARK  Name = 
REMARK  2 active torsions:
REMARK  status: ('A' for Active; 'I' for Inactive)
REMARK    1  A    between atoms: C_1  and  C_2
REMARK    2  A    between atoms: C_7  and  C_8
REMARK                            x       y       z     vdW  Elec       q    Type
REMARK                         _______ _______ _______ _____ _____    ______ ____
ROOT
ATOM      1  C   UNL     1       5.024   3.988  13.672  0.00  0.00    +0.000 C 
ATOM      2  C   UNL     1       5.934   4.207  14.818  0.00  0.00    +0.000 A 
ATOM      3  N   UNL     1       7.251   4.346  14.613  0.00  0.00    +0.000 NA
ATOM      4  O   UNL     1       7.805   4.519  15.869  0.00  0.00    +0.000 OA
ATOM      5  C   UNL     1       6.832   4.436  16.813  0.00  0.00    +0.000 A 
ATOM      6  C   UNL     1       5.610   4.289  16.200  0.00  0.00    +0.000 A 
ATOM      7  C   UNL     1       4.278   4.167  16.820  0.00  0.00    +0.000 C 
ATOM      8  S   UNL     1       4.430   2.828  18.070  0.00  0.00    +0.000 S 
ATOM      9  C   UNL     1       5.242   3.696  19.424  0.00  0.00    +0.000 C 
ATOM     10  C   UNL     1       6.470   4.565  19.219  0.00  0.00    +0.000 C 
ATOM     11  O   UNL     1       6.884   5.220  20.189  0.00  0.00    +0.000 OA
ATOM     12  N   UNL     1       7.239   4.592  18.104  0.00  0.00    +0.000 N 
ATOM     13  H   UNL     1       8.140   5.042  18.215  0.00  0.00    +0.000 HD
ENDROOT
BRANCH   7  14
ATOM     14  C   UNL     1       3.671   5.473  17.337  0.00  0.00    +0.000 A 
ATOM     15  C   UNL     1       2.620   5.304  18.283  0.00  0.00    +0.000 A 
ATOM     16  C   UNL     1       1.984   6.379  18.910  0.00  0.00    +0.000 A 
ATOM     17  C   UNL     1       2.367   7.673  18.610  0.00  0.00    +0.000 A 
ATOM     18  C   UNL     1       3.337   7.883  17.639  0.00  0.00    +0.000 A 
ATOM     19  C   UNL     1       3.958   6.806  16.978  0.00  0.00    +0.000 A 
ATOM     20 CL   UNL     1       4.990   7.305  15.685  0.00  0.00    +0.000 Cl
ENDBRANCH   7  14
TORSDOF 1
ENDMDL
MODEL 4
REMARK VINA RESULT:      -6.3      3.540      5.044
REMARK  Name = 
REMARK  2 active torsions:
REMARK  status: ('A' for Active; 'I' for Inactive)
REMARK    1  A    between atoms: C_1  and  C_2
REMARK    2  A    between atoms: C_7  and  C_8
REMARK                            x       y       z     vdW  Elec       q    Type
REMARK                         _______ _______ _______ _____ _____    ______ ____
ROOT
ATOM      1  C   UNL     1       4.682   1.012  19.911  0.00  0.00    +0.000 C 
ATOM      2  C   UNL     1       3.966   2.236  20.332  0.00  0.00    +0.000 A 
ATOM      3  N   UNL     1       3.390   2.296  21.540  0.00  0.00    +0.000 NA
ATOM      4  O   UNL     1       2.807   3.548  21.610  0.00  0.00    +0.000 OA
ATOM      5  C   UNL     1       2.996   4.208  20.438  0.00  0.00    +0.000 A 
ATOM      6  C   UNL     1       3.773   3.441  19.602  0.00  0.00    +0.000 A 
ATOM      7  C   UNL     1       4.239   3.751  18.238  0.00  0.00    +0.000 C 
ATOM      8  S   UNL     1       2.739   4.242  17.296  0.00  0.00    +0.000 S 
ATOM      9  C   UNL     1       2.506   5.937  17.858  0.00  0.00    +0.000 C 
ATOM     10  C   UNL     1       2.533   6.325  19.326  0.00  0.00    +0.000 C 
ATOM     11  O   UNL     1       2.487   7.534  19.606  0.00  0.00    +0.000 OA
ATOM     12  N   UNL     1       2.472   5.463  20.369  0.00  0.00    +0.000 N 
ATOM     13  H   UNL     1       2.267   5.889  21.265  0.00  0.00    +0.000 HD
ENDROOT
BRANCH   7  14
ATOM     14  C   UNL     1       5.411   4.732  18.151  0.00  0.00    +0.000 A 
ATOM     15  C   UNL     1       6.052   5.002  19.394  0.00  0.00    +0.000 A 
ATOM     16  C   UNL     1       7.175   5.826  19.504  0.00  0.00    +0.000 A 
ATOM     17  C   UNL     1       7.702   6.424  18.375  0.00  0.00    +0.000 A 
ATOM     18  C   UNL     1       7.063   6.245  17.155  0.00  0.00    +0.000 A 
ATOM     19  C   UNL     1       5.910   5.444  17.041  0.00  0.00    +0.000 A 
ATOM     20 CL   UNL     1       5.183   5.518  15.476  0.00  0.00    +0.000 Cl
ENDBRANCH   7  14
TORSDOF 1
ENDMDL
MODEL 5
REMARK VINA RESULT:      -6.2      2.052      3.930
REMARK  Name = 
REMARK  2 active torsions:
REMARK  status: ('A' for Active; 'I' for Inactive)
REMARK    1  A    between atoms: C_1  and  C_2
REMARK    2  A    between atoms: C_7  and  C_8
REMARK                            x       y       z     vdW  Elec       q    Type
REMARK                         _______ _______ _______ _____ _____    ______ ____
ROOT
ATOM      1  C   UNL     1       7.608   5.474  20.076  0.00  0.00    +0.000 C 
ATOM      2  C   UNL     1       7.615   4.993  18.677  0.00  0.00    +0.000 A 
ATOM      3  N   UNL     1       8.657   4.289  18.214  0.00  0.00    +0.000 NA
ATOM      4  O   UNL     1       8.357   4.011  16.892  0.00  0.00    +0.000 OA
ATOM      5  C   UNL     1       7.169   4.582  16.562  0.00  0.00    +0.000 A 
ATOM      6  C   UNL     1       6.624   5.180  17.674  0.00  0.00    +0.000 A 
ATOM      7  C   UNL     1       5.350   5.911  17.794  0.00  0.00    +0.000 C 
ATOM      8  S   UNL     1       5.364   7.164  16.450  0.00  0.00    +0.000 S 
ATOM      9  C   UNL     1       4.926   6.157  15.021  0.00  0.00    +0.000 C 
ATOM     10  C   UNL     1       5.604   4.835  14.713  0.00  0.00    +0.000 C 
ATOM     11  O   UNL     1       5.149   4.155  13.778  0.00  0.00    +0.000 OA
ATOM     12  N   UNL     1       6.748   4.384  15.282  0.00  0.00    +0.000 N 
ATOM     13  H   UNL     1       7.187   3.606  14.804  0.00  0.00    +0.000 HD
ENDROOT
BRANCH   7  14
ATOM     14  C   UNL     1       4.094   5.038  17.856  0.00  0.00    +0.000 A 
ATOM     15  C   UNL     1       4.332   3.645  17.682  0.00  0.00    +0.000 A 
ATOM     16  C   UNL     1       3.318   2.686  17.764  0.00  0.00    +0.000 A 
ATOM     17  C   UNL     1       2.018   3.082  18.016  0.00  0.00    +0.000 A 
ATOM     18  C   UNL     1       1.732   4.437  18.118  0.00  0.00    +0.000 A 
ATOM     19  C   UNL     1       2.742   5.411  18.002  0.00  0.00    +0.000 A 
ATOM     20 CL   UNL     1       2.131   7.026  17.974  0.00  0.00    +0.000 Cl
ENDBRANCH   7  14
TORSDOF 1
ENDMDL
MODEL 6
REMARK VINA RESULT:      -5.8      2.036      2.649
REMARK  Name = 
REMARK  2 active torsions:
REMARK  status: ('A' for Active; 'I' for Inactive)
REMARK    1  A    between atoms: C_1  and  C_2
REMARK    2  A    between atoms: C_7  and  C_8
REMARK                            x       y       z     vdW  Elec       q    Type
REMARK                         _______ _______ _______ _____ _____    ______ ____
ROOT
ATOM      1  C   UNL     1       4.872   6.591  15.689  0.00  0.00    +0.000 C 
ATOM      2  C   UNL     1       5.421   5.708  16.741  0.00  0.00    +0.000 A 
ATOM      3  N   UNL     1       6.730   5.737  17.027  0.00  0.00    +0.000 NA
ATOM      4  O   UNL     1       6.911   4.799  18.028  0.00  0.00    +0.000 OA
ATOM      5  C   UNL     1       5.729   4.187  18.300  0.00  0.00    +0.000 A 
ATOM      6  C   UNL     1       4.732   4.759  17.546  0.00  0.00    +0.000 A 
ATOM      7  C   UNL     1       3.297   4.428  17.515  0.00  0.00    +0.000 C 
ATOM      8  S   UNL     1       3.209   2.611  17.250  0.00  0.00    +0.000 S 
ATOM      9  C   UNL     1       3.559   1.993  18.905  0.00  0.00    +0.000 C 
ATOM     10  C   UNL     1       4.726   2.495  19.737  0.00  0.00    +0.000 C 
ATOM     11  O   UNL     1       4.812   2.100  20.911  0.00  0.00    +0.000 OA
ATOM     12  N   UNL     1       5.762   3.235  19.275  0.00  0.00    +0.000 N 
ATOM     13  H   UNL     1       6.562   3.287  19.894  0.00  0.00    +0.000 HD
ENDROOT
BRANCH   7  14
ATOM     14  C   UNL     1       2.474   4.952  18.694  0.00  0.00    +0.000 A 
ATOM     15  C   UNL     1       2.966   6.159  19.269  0.00  0.00    +0.000 A 
ATOM     16  C   UNL     1       2.316   6.820  20.315  0.00  0.00    +0.000 A 
ATOM     17  C   UNL     1       1.149   6.297  20.839  0.00  0.00    +0.000 A 
ATOM     18  C   UNL     1       0.676   5.083  20.356  0.00  0.00    +0.000 A 
ATOM     19  C   UNL     1       1.344   4.394  19.325  0.00  0.00    +0.000 A 
ATOM     20 CL   UNL     1       0.685   2.827  19.018  0.00  0.00    +0.000 Cl
ENDBRANCH   7  14
TORSDOF 1
ENDMDL
MODEL 7
REMARK VINA RESULT:      -5.8      2.741      3.528
REMARK  Name = 
REMARK  2 active torsions:
REMARK  status: ('A' for Active; 'I' for Inactive)
REMARK    1  A    between atoms: C_1  and  C_2
REMARK    2  A    between atoms: C_7  and  C_8
REMARK                            x       y       z     vdW  Elec       q    Type
REMARK                         _______ _______ _______ _____ _____    ______ ____
ROOT
ATOM      1  C   UNL     1       6.459   3.655  14.917  0.00  0.00    +0.000 C 
ATOM      2  C   UNL     1       5.725   4.853  15.382  0.00  0.00    +0.000 A 
ATOM      3  N   UNL     1       5.552   5.896  14.560  0.00  0.00    +0.000 NA
ATOM      4  O   UNL     1       4.851   6.835  15.295  0.00  0.00    +0.000 OA
ATOM      5  C   UNL     1       4.650   6.372  16.556  0.00  0.00    +0.000 A 
ATOM      6  C   UNL     1       5.141   5.092  16.657  0.00  0.00    +0.000 A 
ATOM      7  C   UNL     1       5.138   4.195  17.826  0.00  0.00    +0.000 C 
ATOM      8  S   UNL     1       5.862   5.170  19.206  0.00  0.00    +0.000 S 
ATOM      9  C   UNL     1       4.461   6.194  19.690  0.00  0.00    +0.000 C 
ATOM     10  C   UNL     1       3.628   6.970  18.685  0.00  0.00    +0.000 C 
ATOM     11  O   UNL     1       2.610   7.547  19.100  0.00  0.00    +0.000 OA
ATOM     12  N   UNL     1       3.965   7.200  17.393  0.00  0.00    +0.000 N 
ATOM     13  H   UNL     1       3.424   7.921  16.931  0.00  0.00    +0.000 HD
ENDROOT
BRANCH   7  14
ATOM     14  C   UNL     1       3.798   3.524  18.138  0.00  0.00    +0.000 A 
ATOM     15  C   UNL     1       2.694   4.033  17.395  0.00  0.00    +0.000 A 
ATOM     16  C   UNL     1       1.403   3.509  17.500  0.00  0.00    +0.000 A 
ATOM     17  C   UNL     1       1.158   2.455  18.360  0.00  0.00    +0.000 A 
ATOM     18  C   UNL     1       2.191   1.978  19.157  0.00  0.00    +0.000 A 
ATOM     19  C   UNL     1       3.487   2.525  19.082  0.00  0.00    +0.000 A 
ATOM     20 CL   UNL     1       4.556   1.907  20.290  0.00  0.00    +0.000 Cl
ENDBRANCH   7  14
TORSDOF 1
ENDMDL
MODEL 8
REMARK VINA RESULT:      -5.7      2.633      4.287
REMARK  Name = 
REMARK  2 active torsions:
REMARK  status: ('A' for Active; 'I' for Inactive)
REMARK    1  A    between atoms: C_1  and  C_2
REMARK    2  A    between atoms: C_7  and  C_8
REMARK                            x       y       z     vdW  Elec       q    Type
REMARK                         _______ _______ _______ _____ _____    ______ ____
ROOT
ATOM      1  C   UNL     1       7.712   5.843  19.450  0.00  0.00    +0.000 C 
ATOM      2  C   UNL     1       6.952   5.138  18.395  0.00  0.00    +0.000 A 
ATOM      3  N   UNL     1       7.599   4.546  17.382  0.00  0.00    +0.000 NA
ATOM      4  O   UNL     1       6.612   4.001  16.581  0.00  0.00    +0.000 OA
ATOM      5  C   UNL     1       5.389   4.307  17.088  0.00  0.00    +0.000 A 
ATOM      6  C   UNL     1       5.543   4.988  18.272  0.00  0.00    +0.000 A 
ATOM      7  C   UNL     1       4.501   5.511  19.174  0.00  0.00    +0.000 C 
ATOM      8  S   UNL     1       3.374   6.503  18.114  0.00  0.00    +0.000 S 
ATOM      9  C   UNL     1       2.388   5.210  17.338  0.00  0.00    +0.000 C 
ATOM     10  C   UNL     1       3.007   3.983  16.695  0.00  0.00    +0.000 C 
ATOM     11  O   UNL     1       2.242   3.089  16.297  0.00  0.00    +0.000 OA
ATOM     12  N   UNL     1       4.319   3.828  16.394  0.00  0.00    +0.000 N 
ATOM     13  H   UNL     1       4.527   3.062  15.765  0.00  0.00    +0.000 HD
ENDROOT
BRANCH   7  14
ATOM     14  C   UNL     1       3.812   4.469  20.058  0.00  0.00    +0.000 A 
ATOM     15  C   UNL     1       4.410   3.177  20.028  0.00  0.00    +0.000 A 
ATOM     16  C   UNL     1       3.958   2.113  20.812  0.00  0.00    +0.000 A 
ATOM     17  C   UNL     1       2.879   2.293  21.657  0.00  0.00    +0.000 A 
ATOM     18  C   UNL     1       2.221   3.516  21.662  0.00  0.00    +0.000 A 
ATOM     19  C   UNL     1       2.650   4.583  20.849  0.00  0.00    +0.000 A 
ATOM     20 CL   UNL     1       1.577   5.936  20.880  0.00  0.00    +0.000 Cl
ENDBRANCH   7  14
TORSDOF 1
ENDMDL
MODEL 9
REMARK VINA RESULT:      -5.6      8.147      9.769
REMARK  Name = 
REMARK  2 active torsions:
REMARK  status: ('A' for Active; 'I' for Inactive)
REMARK    1  A    between atoms: C_1  and  C_2
REMARK    2  A    between atoms: C_7  and  C_8
REMARK                            x       y       z     vdW  Elec       q    Type
REMARK                         _______ _______ _______ _____ _____    ______ ____
ROOT
ATOM      1  C   UNL     1       3.328  14.061  21.180  0.00  0.00    +0.000 C 
ATOM      2  C   UNL     1       2.517  13.716  19.991  0.00  0.00    +0.000 A 
ATOM      3  N   UNL     1       3.002  13.933  18.761  0.00  0.00    +0.000 NA
ATOM      4  O   UNL     1       2.007  13.520  17.893  0.00  0.00    +0.000 OA
ATOM      5  C   UNL     1       0.924  13.106  18.602  0.00  0.00    +0.000 A 
ATOM      6  C   UNL     1       1.209  13.160  19.946  0.00  0.00    +0.000 A 
ATOM      7  C   UNL     1       0.345  12.801  21.084  0.00  0.00    +0.000 C 
ATOM      8  S   UNL     1      -1.231  13.708  20.822  0.00  0.00    +0.000 S 
ATOM      9  C   UNL     1      -2.033  12.676  19.581  0.00  0.00    +0.000 C 
ATOM     10  C   UNL     1      -1.319  12.196  18.331  0.00  0.00    +0.000 C 
ATOM     11  O   UNL     1      -1.914  11.388  17.599  0.00  0.00    +0.000 OA
ATOM     12  N   UNL     1      -0.137  12.668  17.868  0.00  0.00    +0.000 N 
ATOM     13  H   UNL     1       0.083  12.411  16.913  0.00  0.00    +0.000 HD
ENDROOT
BRANCH   7  14
ATOM     14  C   UNL     1       0.194  11.300  21.349  0.00  0.00    +0.000 A 
ATOM     15  C   UNL     1       0.930  10.466  20.460  0.00  0.00    +0.000 A 
ATOM     16  C   UNL     1       0.964   9.074  20.580  0.00  0.00    +0.000 A 
ATOM     17  C   UNL     1       0.254   8.454  21.592  0.00  0.00    +0.000 A 
ATOM     18  C   UNL     1      -0.535   9.227  22.434  0.00  0.00    +0.000 A 
ATOM     19  C   UNL     1      -0.602  10.627  22.298  0.00  0.00    +0.000 A 
ATOM     20 CL   UNL     1      -1.783  11.355  23.326  0.00  0.00    +0.000 Cl
ENDBRANCH   7  14
TORSDOF 1
ENDMDL
