MODEL 1
REMARK VINA RESULT:      -7.7      0.000      0.000
REMARK  Name = 
REMARK  4 active torsions:
REMARK  status: ('A' for Active; 'I' for Inactive)
REMARK    1  A    between atoms: C_1  and  C_2
REMARK    2  A    between atoms: C_2  and  C_3
REMARK    3  A    between atoms: C_2  and  C_4
REMARK    4  A    between atoms: N_8  and  C_9
REMARK                            x       y       z     vdW  Elec       q    Type
REMARK                         _______ _______ _______ _____ _____    ______ ____
ROOT
ATOM      1  C   UNL     1       6.921   4.975  16.712  0.00  0.00    +0.000 C 
ATOM      2  C   UNL     1       7.470   5.840  17.864  0.00  0.00    +0.000 C 
ATOM      3  C   UNL     1       6.941   5.392  19.224  0.00  0.00    +0.000 C 
ATOM      4  C   UNL     1       5.419   5.314  19.229  0.00  0.00    +0.000 C 
ATOM      5  N   UNL     1       4.949   4.457  18.136  0.00  0.00    +0.000 N 
ATOM      6  C   UNL     1       4.284   3.294  18.456  0.00  0.00    +0.000 C 
ATOM      7  N   UNL     1       3.948   2.480  17.432  0.00  0.00    +0.000 N 
ATOM      8  O   UNL     1       4.006   2.947  19.600  0.00  0.00    +0.000 OA
ATOM      9  C   UNL     1       5.382   4.875  16.799  0.00  0.00    +0.000 C 
ATOM     10  H   UNL     1       3.680   2.889  16.551  0.00  0.00    +0.000 HD
ATOM     11  H   UNL     1       3.369   1.702  17.724  0.00  0.00    +0.000 HD
ENDROOT
BRANCH   1  16
ATOM     12  C   UNL     1       6.341   3.636  12.714  0.00  0.00    +0.000 A 
ATOM     13  N   UNL     1       7.192   4.264  11.899  0.00  0.00    +0.000 NA
ATOM     14  S   UNL     1       7.983   5.397  12.832  0.00  0.00    +0.000 S 
ATOM     15  C   UNL     1       7.150   4.954  14.281  0.00  0.00    +0.000 A 
ATOM     16  N   UNL     1       7.367   5.578  15.458  0.00  0.00    +0.000 N 
ATOM     17  N   UNL     1       6.308   3.971  14.066  0.00  0.00    +0.000 NA
ATOM     18  H   UNL     1       7.370   6.595  15.432  0.00  0.00    +0.000 HD
BRANCH  12  20
ATOM     19  C   UNL     1       4.249   3.254  11.399  0.00  0.00    +0.000 C 
ATOM     20  C   UNL     1       5.397   2.605  12.172  0.00  0.00    +0.000 C 
ATOM     21  C   UNL     1       6.135   1.594  11.291  0.00  0.00    +0.000 C 
ENDBRANCH  12  20
ENDBRANCH   1  16
TORSDOF 2
ENDMDL
MODEL 2
REMARK VINA RESULT:      -7.5      3.012      5.120
REMARK  Name = 
REMARK  4 active torsions:
REMARK  status: ('A' for Active; 'I' for Inactive)
REMARK    1  A    between atoms: C_1  and  C_2
REMARK    2  A    between atoms: C_2  and  C_3
REMARK    3  A    between atoms: C_2  and  C_4
REMARK    4  A    between atoms: N_8  and  C_9
REMARK                            x       y       z     vdW  Elec       q    Type
REMARK                         _______ _______ _______ _____ _____    ______ ____
ROOT
ATOM      1  C   UNL     1       3.471   3.529  17.881  0.00  0.00    +0.000 C 
ATOM      2  C   UNL     1       2.103   3.984  17.334  0.00  0.00    +0.000 C 
ATOM      3  C   UNL     1       1.040   4.058  18.427  0.00  0.00    +0.000 C 
ATOM      4  C   UNL     1       0.950   2.750  19.204  0.00  0.00    +0.000 C 
ATOM      5  N   UNL     1       2.268   2.377  19.728  0.00  0.00    +0.000 N 
ATOM      6  C   UNL     1       2.439   2.332  21.094  0.00  0.00    +0.000 C 
ATOM      7  N   UNL     1       3.686   2.080  21.546  0.00  0.00    +0.000 N 
ATOM      8  O   UNL     1       1.545   2.531  21.912  0.00  0.00    +0.000 OA
ATOM      9  C   UNL     1       3.316   2.237  18.712  0.00  0.00    +0.000 C 
ATOM     10  H   UNL     1       4.275   1.447  21.028  0.00  0.00    +0.000 HD
ATOM     11  H   UNL     1       3.721   1.952  22.550  0.00  0.00    +0.000 HD
ENDROOT
BRANCH   1  16
ATOM     12  C   UNL     1       7.014   5.654  16.863  0.00  0.00    +0.000 A 
ATOM     13  N   UNL     1       7.327   5.425  15.585  0.00  0.00    +0.000 NA
ATOM     14  S   UNL     1       6.246   4.281  15.036  0.00  0.00    +0.000 S 
ATOM     15  C   UNL     1       5.407   4.184  16.545  0.00  0.00    +0.000 A 
ATOM     16  N   UNL     1       4.363   3.349  16.739  0.00  0.00    +0.000 N 
ATOM     17  N   UNL     1       5.923   5.002  17.432  0.00  0.00    +0.000 NA
ATOM     18  H   UNL     1       4.492   2.391  16.423  0.00  0.00    +0.000 HD
BRANCH  12  20
ATOM     19  C   UNL     1       7.396   8.027  17.551  0.00  0.00    +0.000 C 
ATOM     20  C   UNL     1       7.856   6.577  17.693  0.00  0.00    +0.000 C 
ATOM     21  C   UNL     1       7.849   6.151  19.163  0.00  0.00    +0.000 C 
ENDBRANCH  12  20
ENDBRANCH   1  16
TORSDOF 2
ENDMDL
MODEL 3
REMARK VINA RESULT:      -7.0      4.239      7.173
REMARK  Name = 
REMARK  4 active torsions:
REMARK  status: ('A' for Active; 'I' for Inactive)
REMARK    1  A    between atoms: C_1  and  C_2
REMARK    2  A    between atoms: C_2  and  C_3
REMARK    3  A    between atoms: C_2  and  C_4
REMARK    4  A    between atoms: N_8  and  C_9
REMARK                            x       y       z     vdW  Elec       q    Type
REMARK                         _______ _______ _______ _____ _____    ______ ____
ROOT
ATOM      1  C   UNL     1       4.905   5.097  18.179  0.00  0.00    +0.000 C 
ATOM      2  C   UNL     1       6.083   5.290  19.155  0.00  0.00    +0.000 C 
ATOM      3  C   UNL     1       7.390   5.595  18.428  0.00  0.00    +0.000 C 
ATOM      4  C   UNL     1       7.686   4.553  17.356  0.00  0.00    +0.000 C 
ATOM      5  N   UNL     1       6.550   4.430  16.437  0.00  0.00    +0.000 N 
ATOM      6  C   UNL     1       6.736   4.780  15.118  0.00  0.00    +0.000 C 
ATOM      7  N   UNL     1       5.648   4.747  14.319  0.00  0.00    +0.000 N 
ATOM      8  O   UNL     1       7.808   5.140  14.640  0.00  0.00    +0.000 OA
ATOM      9  C   UNL     1       5.278   4.081  17.077  0.00  0.00    +0.000 C 
ATOM     10  H   UNL     1       4.951   4.036  14.471  0.00  0.00    +0.000 HD
ATOM     11  H   UNL     1       5.873   4.908  13.344  0.00  0.00    +0.000 HD
ENDROOT
BRANCH   1  16
ATOM     12  C   UNL     1       1.882   7.437  20.050  0.00  0.00    +0.000 A 
ATOM     13  N   UNL     1       1.226   6.695  20.946  0.00  0.00    +0.000 NA
ATOM     14  S   UNL     1       1.818   5.144  20.793  0.00  0.00    +0.000 S 
ATOM     15  C   UNL     1       2.939   5.572  19.547  0.00  0.00    +0.000 A 
ATOM     16  N   UNL     1       3.751   4.665  18.963  0.00  0.00    +0.000 N 
ATOM     17  N   UNL     1       2.875   6.852  19.266  0.00  0.00    +0.000 NA
ATOM     18  H   UNL     1       3.311   3.798  18.664  0.00  0.00    +0.000 HD
BRANCH  12  20
ATOM     19  C   UNL     1       1.349   9.217  18.378  0.00  0.00    +0.000 C 
ATOM     20  C   UNL     1       1.526   8.881  19.858  0.00  0.00    +0.000 C 
ATOM     21  C   UNL     1       0.266   9.244  20.647  0.00  0.00    +0.000 C 
ENDBRANCH  12  20
ENDBRANCH   1  16
TORSDOF 2
ENDMDL
MODEL 4
REMARK VINA RESULT:      -6.9      4.776      6.777
REMARK  Name = 
REMARK  4 active torsions:
REMARK  status: ('A' for Active; 'I' for Inactive)
REMARK    1  A    between atoms: C_1  and  C_2
REMARK    2  A    between atoms: C_2  and  C_3
REMARK    3  A    between atoms: C_2  and  C_4
REMARK    4  A    between atoms: N_8  and  C_9
REMARK                            x       y       z     vdW  Elec       q    Type
REMARK                         _______ _______ _______ _____ _____    ______ ____
ROOT
ATOM      1  C   UNL     1       2.433   7.536  19.005  0.00  0.00    +0.000 C 
ATOM      2  C   UNL     1       2.021   8.357  17.766  0.00  0.00    +0.000 C 
ATOM      3  C   UNL     1       1.636   9.789  18.126  0.00  0.00    +0.000 C 
ATOM      4  C   UNL     1       0.580   9.822  19.224  0.00  0.00    +0.000 C 
ATOM      5  N   UNL     1       1.032   9.055  20.389  0.00  0.00    +0.000 N 
ATOM      6  C   UNL     1       1.239   9.726  21.574  0.00  0.00    +0.000 C 
ATOM      7  N   UNL     1       1.745   9.010  22.601  0.00  0.00    +0.000 N 
ATOM      8  O   UNL     1       1.019  10.922  21.741  0.00  0.00    +0.000 OA
ATOM      9  C   UNL     1       1.361   7.653  20.110  0.00  0.00    +0.000 C 
ATOM     10  H   UNL     1       1.473   8.046  22.706  0.00  0.00    +0.000 HD
ATOM     11  H   UNL     1       1.770   9.533  23.468  0.00  0.00    +0.000 HD
ENDROOT
BRANCH   1  16
ATOM     12  C   UNL     1       5.999   5.592  17.732  0.00  0.00    +0.000 A 
ATOM     13  N   UNL     1       5.693   4.459  17.095  0.00  0.00    +0.000 NA
ATOM     14  S   UNL     1       4.042   4.273  17.237  0.00  0.00    +0.000 S 
ATOM     15  C   UNL     1       3.838   5.743  18.125  0.00  0.00    +0.000 A 
ATOM     16  N   UNL     1       2.632   6.155  18.571  0.00  0.00    +0.000 N 
ATOM     17  N   UNL     1       4.983   6.360  18.297  0.00  0.00    +0.000 NA
ATOM     18  H   UNL     1       2.067   5.455  19.046  0.00  0.00    +0.000 HD
BRANCH  12  20
ATOM     19  C   UNL     1       7.609   7.492  17.521  0.00  0.00    +0.000 C 
ATOM     20  C   UNL     1       7.430   6.017  17.875  0.00  0.00    +0.000 C 
ATOM     21  C   UNL     1       7.947   5.734  19.288  0.00  0.00    +0.000 C 
ENDBRANCH  12  20
ENDBRANCH   1  16
TORSDOF 2
ENDMDL
MODEL 5
REMARK VINA RESULT:      -6.8      2.885      4.987
REMARK  Name = 
REMARK  4 active torsions:
REMARK  status: ('A' for Active; 'I' for Inactive)
REMARK    1  A    between atoms: C_1  and  C_2
REMARK    2  A    between atoms: C_2  and  C_3
REMARK    3  A    between atoms: C_2  and  C_4
REMARK    4  A    between atoms: N_8  and  C_9
REMARK                            x       y       z     vdW  Elec       q    Type
REMARK                         _______ _______ _______ _____ _____    ______ ____
ROOT
ATOM      1  C   UNL     1       3.309   3.656  17.251  0.00  0.00    +0.000 C 
ATOM      2  C   UNL     1       2.578   2.312  17.447  0.00  0.00    +0.000 C 
ATOM      3  C   UNL     1       1.574   2.364  18.595  0.00  0.00    +0.000 C 
ATOM      4  C   UNL     1       2.224   2.866  19.879  0.00  0.00    +0.000 C 
ATOM      5  N   UNL     1       2.877   4.158  19.649  0.00  0.00    +0.000 N 
ATOM      6  C   UNL     1       2.399   5.262  20.320  0.00  0.00    +0.000 C 
ATOM      7  N   UNL     1       2.959   6.452  20.015  0.00  0.00    +0.000 N 
ATOM      8  O   UNL     1       1.491   5.231  21.146  0.00  0.00    +0.000 OA
ATOM      9  C   UNL     1       3.894   4.152  18.592  0.00  0.00    +0.000 C 
ATOM     10  H   UNL     1       3.941   6.488  19.794  0.00  0.00    +0.000 HD
ATOM     11  H   UNL     1       2.640   7.200  20.618  0.00  0.00    +0.000 HD
ENDROOT
BRANCH   1  16
ATOM     12  C   UNL     1       7.026   5.665  16.740  0.00  0.00    +0.000 A 
ATOM     13  N   UNL     1       7.501   5.431  15.514  0.00  0.00    +0.000 NA
ATOM     14  S   UNL     1       6.467   4.326  14.814  0.00  0.00    +0.000 S 
ATOM     15  C   UNL     1       5.429   4.251  16.195  0.00  0.00    +0.000 A 
ATOM     16  N   UNL     1       4.342   3.451  16.238  0.00  0.00    +0.000 N 
ATOM     17  N   UNL     1       5.847   5.047  17.151  0.00  0.00    +0.000 NA
ATOM     18  H   UNL     1       4.481   2.490  15.935  0.00  0.00    +0.000 HD
BRANCH  12  20
ATOM     19  C   UNL     1       7.292   8.001  17.589  0.00  0.00    +0.000 C 
ATOM     20  C   UNL     1       7.777   6.555  17.685  0.00  0.00    +0.000 C 
ATOM     21  C   UNL     1       7.668   6.044  19.123  0.00  0.00    +0.000 C 
ENDBRANCH  12  20
ENDBRANCH   1  16
TORSDOF 2
ENDMDL
MODEL 6
REMARK VINA RESULT:      -6.8      1.681      2.061
REMARK  Name = 
REMARK  4 active torsions:
REMARK  status: ('A' for Active; 'I' for Inactive)
REMARK    1  A    between atoms: C_1  and  C_2
REMARK    2  A    between atoms: C_2  and  C_3
REMARK    3  A    between atoms: C_2  and  C_4
REMARK    4  A    between atoms: N_8  and  C_9
REMARK                            x       y       z     vdW  Elec       q    Type
REMARK                         _______ _______ _______ _____ _____    ______ ____
ROOT
ATOM      1  C   UNL     1       5.390   5.441  16.416  0.00  0.00    +0.000 C 
ATOM      2  C   UNL     1       6.070   4.364  17.286  0.00  0.00    +0.000 C 
ATOM      3  C   UNL     1       5.250   4.025  18.528  0.00  0.00    +0.000 C 
ATOM      4  C   UNL     1       4.900   5.278  19.322  0.00  0.00    +0.000 C 
ATOM      5  N   UNL     1       4.230   6.256  18.459  0.00  0.00    +0.000 N 
ATOM      6  C   UNL     1       2.924   6.593  18.744  0.00  0.00    +0.000 C 
ATOM      7  N   UNL     1       2.305   7.422  17.877  0.00  0.00    +0.000 N 
ATOM      8  O   UNL     1       2.293   6.169  19.708  0.00  0.00    +0.000 OA
ATOM      9  C   UNL     1       4.998   6.661  17.278  0.00  0.00    +0.000 C 
ATOM     10  H   UNL     1       2.839   8.150  17.431  0.00  0.00    +0.000 HD
ATOM     11  H   UNL     1       1.391   7.714  18.200  0.00  0.00    +0.000 HD
ENDROOT
BRANCH   1  16
ATOM     12  C   UNL     1       6.030   3.547  12.659  0.00  0.00    +0.000 A 
ATOM     13  N   UNL     1       7.190   3.957  12.139  0.00  0.00    +0.000 NA
ATOM     14  S   UNL     1       7.768   5.143  13.157  0.00  0.00    +0.000 S 
ATOM     15  C   UNL     1       6.433   5.015  14.250  0.00  0.00    +0.000 A 
ATOM     16  N   UNL     1       6.321   5.794  15.347  0.00  0.00    +0.000 N 
ATOM     17  N   UNL     1       5.584   4.093  13.861  0.00  0.00    +0.000 NA
ATOM     18  H   UNL     1       6.479   6.789  15.208  0.00  0.00    +0.000 HD
BRANCH  12  20
ATOM     19  C   UNL     1       4.143   3.214  11.055  0.00  0.00    +0.000 C 
ATOM     20  C   UNL     1       5.192   2.537  11.935  0.00  0.00    +0.000 C 
ATOM     21  C   UNL     1       6.066   1.594  11.104  0.00  0.00    +0.000 C 
ENDBRANCH  12  20
ENDBRANCH   1  16
TORSDOF 2
ENDMDL
MODEL 7
REMARK VINA RESULT:      -6.7      6.219      7.940
REMARK  Name = 
REMARK  4 active torsions:
REMARK  status: ('A' for Active; 'I' for Inactive)
REMARK    1  A    between atoms: C_1  and  C_2
REMARK    2  A    between atoms: C_2  and  C_3
REMARK    3  A    between atoms: C_2  and  C_4
REMARK    4  A    between atoms: N_8  and  C_9
REMARK                            x       y       z     vdW  Elec       q    Type
REMARK                         _______ _______ _______ _____ _____    ______ ____
ROOT
ATOM      1  C   UNL     1       1.592   7.967  19.376  0.00  0.00    +0.000 C 
ATOM      2  C   UNL     1       1.628   8.100  20.912  0.00  0.00    +0.000 C 
ATOM      3  C   UNL     1       0.443   8.897  21.450  0.00  0.00    +0.000 C 
ATOM      4  C   UNL     1       0.317  10.246  20.752  0.00  0.00    +0.000 C 
ATOM      5  N   UNL     1       0.255  10.063  19.298  0.00  0.00    +0.000 N 
ATOM      6  C   UNL     1      -0.897  10.435  18.641  0.00  0.00    +0.000 C 
ATOM      7  N   UNL     1      -0.959  10.167  17.319  0.00  0.00    +0.000 N 
ATOM      8  O   UNL     1      -1.864  10.962  19.182  0.00  0.00    +0.000 OA
ATOM      9  C   UNL     1       1.400   9.352  18.720  0.00  0.00    +0.000 C 
ATOM     10  H   UNL     1      -0.120  10.235  16.767  0.00  0.00    +0.000 HD
ATOM     11  H   UNL     1      -1.781  10.562  16.878  0.00  0.00    +0.000 HD
ENDROOT
BRANCH   1  16
ATOM     12  C   UNL     1       2.759   3.886  19.683  0.00  0.00    +0.000 A 
ATOM     13  N   UNL     1       4.080   3.781  19.520  0.00  0.00    +0.000 NA
ATOM     14  S   UNL     1       4.626   5.305  19.120  0.00  0.00    +0.000 S 
ATOM     15  C   UNL     1       3.053   6.018  19.217  0.00  0.00    +0.000 A 
ATOM     16  N   UNL     1       2.837   7.326  18.961  0.00  0.00    +0.000 N 
ATOM     17  N   UNL     1       2.147   5.131  19.553  0.00  0.00    +0.000 NA
ATOM     18  H   UNL     1       3.263   7.693  18.114  0.00  0.00    +0.000 HD
BRANCH  12  20
ATOM     19  C   UNL     1       1.340   2.710  21.371  0.00  0.00    +0.000 C 
ATOM     20  C   UNL     1       1.932   2.667  19.963  0.00  0.00    +0.000 C 
ATOM     21  C   UNL     1       0.826   2.503  18.917  0.00  0.00    +0.000 C 
ENDBRANCH  12  20
ENDBRANCH   1  16
TORSDOF 2
ENDMDL
MODEL 8
REMARK VINA RESULT:      -6.7      5.124      6.801
REMARK  Name = 
REMARK  4 active torsions:
REMARK  status: ('A' for Active; 'I' for Inactive)
REMARK    1  A    between atoms: C_1  and  C_2
REMARK    2  A    between atoms: C_2  and  C_3
REMARK    3  A    between atoms: C_2  and  C_4
REMARK    4  A    between atoms: N_8  and  C_9
REMARK                            x       y       z     vdW  Elec       q    Type
REMARK                         _______ _______ _______ _____ _____    ______ ____
ROOT
ATOM      1  C   UNL     1       2.039   7.852  18.508  0.00  0.00    +0.000 C 
ATOM      2  C   UNL     1       2.248   7.578  20.011  0.00  0.00    +0.000 C 
ATOM      3  C   UNL     1       1.118   8.150  20.864  0.00  0.00    +0.000 C 
ATOM      4  C   UNL     1       0.892   9.627  20.567  0.00  0.00    +0.000 C 
ATOM      5  N   UNL     1       0.668   9.831  19.132  0.00  0.00    +0.000 N 
ATOM      6  C   UNL     1      -0.558  10.308  18.723  0.00  0.00    +0.000 C 
ATOM      7  N   UNL     1      -0.766  10.394  17.391  0.00  0.00    +0.000 N 
ATOM      8  O   UNL     1      -1.466  10.630  19.483  0.00  0.00    +0.000 OA
ATOM      9  C   UNL     1       1.750   9.350  18.268  0.00  0.00    +0.000 C 
ATOM     10  H   UNL     1       0.004  10.643  16.792  0.00  0.00    +0.000 HD
ATOM     11  H   UNL     1      -1.639  10.852  17.160  0.00  0.00    +0.000 HD
ENDROOT
BRANCH   1  16
ATOM     12  C   UNL     1       3.343   3.889  17.668  0.00  0.00    +0.000 A 
ATOM     13  N   UNL     1       4.636   3.900  17.333  0.00  0.00    +0.000 NA
ATOM     14  S   UNL     1       5.087   5.503  17.261  0.00  0.00    +0.000 S 
ATOM     15  C   UNL     1       3.520   6.083  17.709  0.00  0.00    +0.000 A 
ATOM     16  N   UNL     1       3.239   7.400  17.808  0.00  0.00    +0.000 N 
ATOM     17  N   UNL     1       2.687   5.092  17.919  0.00  0.00    +0.000 NA
ATOM     18  H   UNL     1       3.547   7.983  17.034  0.00  0.00    +0.000 HD
BRANCH  12  20
ATOM     19  C   UNL     1       3.435   1.492  18.372  0.00  0.00    +0.000 C 
ATOM     20  C   UNL     1       2.590   2.594  17.732  0.00  0.00    +0.000 C 
ATOM     21  C   UNL     1       1.268   2.765  18.485  0.00  0.00    +0.000 C 
ENDBRANCH  12  20
ENDBRANCH   1  16
TORSDOF 2
ENDMDL
MODEL 9
REMARK VINA RESULT:      -6.5      2.832      4.149
REMARK  Name = 
REMARK  4 active torsions:
REMARK  status: ('A' for Active; 'I' for Inactive)
REMARK    1  A    between atoms: C_1  and  C_2
REMARK    2  A    between atoms: C_2  and  C_3
REMARK    3  A    between atoms: C_2  and  C_4
REMARK    4  A    between atoms: N_8  and  C_9
REMARK                            x       y       z     vdW  Elec       q    Type
REMARK                         _______ _______ _______ _____ _____    ______ ____
ROOT
ATOM      1  C   UNL     1       3.915   5.126  19.405  0.00  0.00    +0.000 C 
ATOM      2  C   UNL     1       3.297   5.489  18.039  0.00  0.00    +0.000 C 
ATOM      3  C   UNL     1       1.837   5.057  17.934  0.00  0.00    +0.000 C 
ATOM      4  C   UNL     1       1.669   3.581  18.275  0.00  0.00    +0.000 C 
ATOM      5  N   UNL     1       2.243   3.294  19.593  0.00  0.00    +0.000 N 
ATOM      6  C   UNL     1       1.399   2.874  20.597  0.00  0.00    +0.000 C 
ATOM      7  N   UNL     1       1.941   2.709  21.822  0.00  0.00    +0.000 N 
ATOM      8  O   UNL     1       0.197   2.669  20.451  0.00  0.00    +0.000 OA
ATOM      9  C   UNL     1       3.662   3.638  19.732  0.00  0.00    +0.000 C 
ATOM     10  H   UNL     1       2.885   2.367  21.896  0.00  0.00    +0.000 HD
ATOM     11  H   UNL     1       1.295   2.297  22.484  0.00  0.00    +0.000 HD
ENDROOT
BRANCH   1  16
ATOM     12  C   UNL     1       6.698   4.447  16.257  0.00  0.00    +0.000 A 
ATOM     13  N   UNL     1       7.944   4.556  16.725  0.00  0.00    +0.000 NA
ATOM     14  S   UNL     1       7.808   5.060  18.308  0.00  0.00    +0.000 S 
ATOM     15  C   UNL     1       6.079   5.075  18.274  0.00  0.00    +0.000 A 
ATOM     16  N   UNL     1       5.339   5.445  19.342  0.00  0.00    +0.000 N 
ATOM     17  N   UNL     1       5.620   4.698  17.104  0.00  0.00    +0.000 NA
ATOM     18  H   UNL     1       5.622   6.304  19.806  0.00  0.00    +0.000 HD
BRANCH  12  20
ATOM     19  C   UNL     1       4.991   4.292  14.437  0.00  0.00    +0.000 C 
ATOM     20  C   UNL     1       6.458   4.096  14.819  0.00  0.00    +0.000 C 
ATOM     21  C   UNL     1       7.369   4.910  13.897  0.00  0.00    +0.000 C 
ENDBRANCH  12  20
ENDBRANCH   1  16
TORSDOF 2
ENDMDL
