MODEL 1
REMARK VINA RESULT:      -7.9      0.000      0.000
REMARK  Name = 
REMARK  9 active torsions:
REMARK  status: ('A' for Active; 'I' for Inactive)
REMARK    1  A    between atoms: C_1  and  O_2
REMARK    2  A    between atoms: O_2  and  C_3
REMARK    3  A    between atoms: C_11  and  C_12
REMARK    4  A    between atoms: N_14  and  C_15
REMARK    5  A    between atoms: C_15  and  C_16
REMARK    6  A    between atoms: C_16  and  O_17
REMARK    7  A    between atoms: O_17  and  C_18
REMARK    8  A    between atoms: C_31  and  O_32
REMARK    9  A    between atoms: O_32  and  C_33
REMARK                            x       y       z     vdW  Elec       q    Type
REMARK                         _______ _______ _______ _____ _____    ______ ____
ROOT
ATOM      1  C   UNL     1       2.635   4.469  20.539  0.00  0.00    +0.000 A 
ATOM      2  C   UNL     1       1.883   5.522  21.073  0.00  0.00    +0.000 A 
ATOM      3  C   UNL     1       1.778   6.746  20.434  0.00  0.00    +0.000 A 
ATOM      4  N   UNL     1       1.020   7.689  20.992  0.00  0.00    +0.000 NA
ATOM      5  C   UNL     1       0.888   8.872  20.377  0.00  0.00    +0.000 A 
ATOM      6  N   UNL     1       0.162   9.854  21.010  0.00  0.00    +0.000 N 
ATOM      7  C   UNL     1      -0.106  11.117  20.348  0.00  0.00    +0.000 C 
ATOM      8  C   UNL     1       0.033  12.232  21.390  0.00  0.00    +0.000 C 
ATOM      9  C   UNL     1      -0.839  11.987  22.632  0.00  0.00    +0.000 C 
ATOM     10  C   UNL     1      -0.636  10.562  23.179  0.00  0.00    +0.000 C 
ATOM     11  C   UNL     1      -0.749   9.494  22.089  0.00  0.00    +0.000 C 
ATOM     12  N   UNL     1       1.496   9.144  19.213  0.00  0.00    +0.000 NA
ATOM     13  C   UNL     1       2.263   8.191  18.662  0.00  0.00    +0.000 A 
ATOM     14  N   UNL     1       2.822   8.520  17.419  0.00  0.00    +0.000 N 
ATOM     15  C   UNL     1       2.458   6.936  19.238  0.00  0.00    +0.000 A 
ATOM     16  C   UNL     1       3.260   5.897  18.705  0.00  0.00    +0.000 A 
ATOM     17  C   UNL     1       3.362   4.666  19.356  0.00  0.00    +0.000 A 
ATOM     18  H   UNL     1       2.587   9.493  17.236  0.00  0.00    +0.000 HD
ATOM     19  H   UNL     1       3.822   8.360  17.396  0.00  0.00    +0.000 HD
ENDROOT
BRANCH   9  20
ATOM     20  C   UNL     1      -2.317  12.266  22.365  0.00  0.00    +0.000 C 
ATOM     21  O   UNL     1      -3.210  11.909  23.128  0.00  0.00    +0.000 OA
ATOM     22  N   UNL     1      -2.571  12.994  21.223  0.00  0.00    +0.000 N 
ATOM     23  H   UNL     1      -1.833  13.114  20.542  0.00  0.00    +0.000 HD
BRANCH  22  24
ATOM     24  C   UNL     1      -3.940  13.304  20.835  0.00  0.00    +0.000 C 
BRANCH  24  25
ATOM     25  C   UNL     1      -4.428  12.454  19.663  0.00  0.00    +0.000 C 
BRANCH  25  26
ATOM     26  O   UNL     1      -3.388  11.551  19.287  0.00  0.00    +0.000 OA
BRANCH  26  27
ATOM     27  C   UNL     1      -3.382  11.165  17.974  0.00  0.00    +0.000 A 
ATOM     28  C   UNL     1      -2.386  10.250  17.624  0.00  0.00    +0.000 A 
ATOM     29  C   UNL     1      -2.277   9.791  16.310  0.00  0.00    +0.000 A 
ATOM     30  C   UNL     1      -3.177  10.229  15.343  0.00  0.00    +0.000 A 
ATOM     31  C   UNL     1      -4.191  11.120  15.693  0.00  0.00    +0.000 A 
ATOM     32  C   UNL     1      -4.297  11.585  17.006  0.00  0.00    +0.000 A 
ENDBRANCH  26  27
ENDBRANCH  25  26
ENDBRANCH  24  25
ENDBRANCH  22  24
ENDBRANCH   9  20
BRANCH   1  34
ATOM     33  C   UNL     1       1.489   2.541  21.270  0.00  0.00    +0.000 C 
ATOM     34  O   UNL     1       2.726   3.243  21.153  0.00  0.00    +0.000 OA
ENDBRANCH   1  34
BRANCH  17  35
ATOM     35  O   UNL     1       4.116   3.612  18.906  0.00  0.00    +0.000 OA
ATOM     36  C   UNL     1       3.875   3.155  17.581  0.00  0.00    +0.000 C 
ENDBRANCH  17  35
TORSDOF 7
ENDMDL
MODEL 2
REMARK VINA RESULT:      -7.4      1.983      3.937
REMARK  Name = 
REMARK  9 active torsions:
REMARK  status: ('A' for Active; 'I' for Inactive)
REMARK    1  A    between atoms: C_1  and  O_2
REMARK    2  A    between atoms: O_2  and  C_3
REMARK    3  A    between atoms: C_11  and  C_12
REMARK    4  A    between atoms: N_14  and  C_15
REMARK    5  A    between atoms: C_15  and  C_16
REMARK    6  A    between atoms: C_16  and  O_17
REMARK    7  A    between atoms: O_17  and  C_18
REMARK    8  A    between atoms: C_31  and  O_32
REMARK    9  A    between atoms: O_32  and  C_33
REMARK                            x       y       z     vdW  Elec       q    Type
REMARK                         _______ _______ _______ _____ _____    ______ ____
ROOT
ATOM      1  C   UNL     1       2.870   3.852  20.759  0.00  0.00    +0.000 A 
ATOM      2  C   UNL     1       2.266   5.114  20.784  0.00  0.00    +0.000 A 
ATOM      3  C   UNL     1       2.526   6.070  19.817  0.00  0.00    +0.000 A 
ATOM      4  N   UNL     1       1.890   7.239  19.894  0.00  0.00    +0.000 NA
ATOM      5  C   UNL     1       2.112   8.168  18.955  0.00  0.00    +0.000 A 
ATOM      6  N   UNL     1       1.501   9.393  19.099  0.00  0.00    +0.000 N 
ATOM      7  C   UNL     1       1.617  10.402  18.062  0.00  0.00    +0.000 C 
ATOM      8  C   UNL     1       1.794  11.761  18.748  0.00  0.00    +0.000 C 
ATOM      9  C   UNL     1       0.685  12.051  19.772  0.00  0.00    +0.000 C 
ATOM     10  C   UNL     1       0.495  10.862  20.733  0.00  0.00    +0.000 C 
ATOM     11  C   UNL     1       0.360   9.528  19.995  0.00  0.00    +0.000 C 
ATOM     12  N   UNL     1       2.958   7.966  17.935  0.00  0.00    +0.000 NA
ATOM     13  C   UNL     1       3.600   6.790  17.869  0.00  0.00    +0.000 A 
ATOM     14  N   UNL     1       4.424   6.621  16.748  0.00  0.00    +0.000 N 
ATOM     15  C   UNL     1       3.430   5.771  18.807  0.00  0.00    +0.000 A 
ATOM     16  C   UNL     1       4.086   4.515  18.790  0.00  0.00    +0.000 A 
ATOM     17  C   UNL     1       3.819   3.555  19.770  0.00  0.00    +0.000 A 
ATOM     18  H   UNL     1       4.428   7.507  16.247  0.00  0.00    +0.000 HD
ATOM     19  H   UNL     1       5.359   6.325  17.002  0.00  0.00    +0.000 HD
ENDROOT
BRANCH   9  20
ATOM     20  C   UNL     1      -0.634  12.432  19.104  0.00  0.00    +0.000 C 
ATOM     21  O   UNL     1      -0.691  13.100  18.075  0.00  0.00    +0.000 OA
ATOM     22  N   UNL     1      -1.760  11.926  19.716  0.00  0.00    +0.000 N 
ATOM     23  H   UNL     1      -1.680  11.535  20.646  0.00  0.00    +0.000 HD
BRANCH  22  24
ATOM     24  C   UNL     1      -3.085  12.237  19.199  0.00  0.00    +0.000 C 
BRANCH  24  25
ATOM     25  C   UNL     1      -3.822  13.271  20.048  0.00  0.00    +0.000 C 
BRANCH  25  26
ATOM     26  O   UNL     1      -3.170  13.373  21.315  0.00  0.00    +0.000 OA
BRANCH  26  27
ATOM     27  C   UNL     1      -3.944  13.083  22.407  0.00  0.00    +0.000 A 
ATOM     28  C   UNL     1      -5.322  13.185  22.206  0.00  0.00    +0.000 A 
ATOM     29  C   UNL     1      -6.211  12.922  23.250  0.00  0.00    +0.000 A 
ATOM     30  C   UNL     1      -5.725  12.534  24.496  0.00  0.00    +0.000 A 
ATOM     31  C   UNL     1      -4.351  12.402  24.693  0.00  0.00    +0.000 A 
ATOM     32  C   UNL     1      -3.461  12.673  23.650  0.00  0.00    +0.000 A 
ENDBRANCH  26  27
ENDBRANCH  25  26
ENDBRANCH  24  25
ENDBRANCH  22  24
ENDBRANCH   9  20
BRANCH   1  34
ATOM     33  C   UNL     1       1.235   2.474  21.756  0.00  0.00    +0.000 C 
ATOM     34  O   UNL     1       2.600   2.887  21.699  0.00  0.00    +0.000 OA
ENDBRANCH   1  34
BRANCH  17  35
ATOM     35  O   UNL     1       4.410   2.319  19.823  0.00  0.00    +0.000 OA
ATOM     36  C   UNL     1       3.969   1.342  18.887  0.00  0.00    +0.000 C 
ENDBRANCH  17  35
TORSDOF 7
ENDMDL
MODEL 3
REMARK VINA RESULT:      -7.4      1.851      2.412
REMARK  Name = 
REMARK  9 active torsions:
REMARK  status: ('A' for Active; 'I' for Inactive)
REMARK    1  A    between atoms: C_1  and  O_2
REMARK    2  A    between atoms: O_2  and  C_3
REMARK    3  A    between atoms: C_11  and  C_12
REMARK    4  A    between atoms: N_14  and  C_15
REMARK    5  A    between atoms: C_15  and  C_16
REMARK    6  A    between atoms: C_16  and  O_17
REMARK    7  A    between atoms: O_17  and  C_18
REMARK    8  A    between atoms: C_31  and  O_32
REMARK    9  A    between atoms: O_32  and  C_33
REMARK                            x       y       z     vdW  Elec       q    Type
REMARK                         _______ _______ _______ _____ _____    ______ ____
ROOT
ATOM      1  C   UNL     1       2.664   4.667  20.207  0.00  0.00    +0.000 A 
ATOM      2  C   UNL     1       1.918   5.660  20.852  0.00  0.00    +0.000 A 
ATOM      3  C   UNL     1       1.712   6.906  20.285  0.00  0.00    +0.000 A 
ATOM      4  N   UNL     1       0.966   7.789  20.949  0.00  0.00    +0.000 NA
ATOM      5  C   UNL     1       0.737   8.991  20.405  0.00  0.00    +0.000 A 
ATOM      6  N   UNL     1       0.029   9.912  21.144  0.00  0.00    +0.000 N 
ATOM      7  C   UNL     1      -0.344  11.191  20.569  0.00  0.00    +0.000 C 
ATOM      8  C   UNL     1      -0.162  12.261  21.650  0.00  0.00    +0.000 C 
ATOM      9  C   UNL     1      -0.917  11.922  22.945  0.00  0.00    +0.000 C 
ATOM     10  C   UNL     1      -0.612  10.484  23.403  0.00  0.00    +0.000 C 
ATOM     11  C   UNL     1      -0.774   9.463  22.274  0.00  0.00    +0.000 C 
ATOM     12  N   UNL     1       1.234   9.343  19.210  0.00  0.00    +0.000 NA
ATOM     13  C   UNL     1       1.989   8.451  18.552  0.00  0.00    +0.000 A 
ATOM     14  N   UNL     1       2.429   8.860  17.285  0.00  0.00    +0.000 N 
ATOM     15  C   UNL     1       2.281   7.181  19.048  0.00  0.00    +0.000 A 
ATOM     16  C   UNL     1       3.076   6.203  18.400  0.00  0.00    +0.000 A 
ATOM     17  C   UNL     1       3.281   4.948  18.979  0.00  0.00    +0.000 A 
ATOM     18  H   UNL     1       2.141   9.829  17.171  0.00  0.00    +0.000 HD
ATOM     19  H   UNL     1       3.429   8.745  17.173  0.00  0.00    +0.000 HD
ENDROOT
BRANCH   9  20
ATOM     20  C   UNL     1      -2.421  12.148  22.814  0.00  0.00    +0.000 C 
ATOM     21  O   UNL     1      -3.241  11.623  23.563  0.00  0.00    +0.000 OA
ATOM     22  N   UNL     1      -2.790  13.028  21.820  0.00  0.00    +0.000 N 
ATOM     23  H   UNL     1      -2.107  13.296  21.124  0.00  0.00    +0.000 HD
BRANCH  22  24
ATOM     24  C   UNL     1      -4.196  13.310  21.568  0.00  0.00    +0.000 C 
BRANCH  24  25
ATOM     25  C   UNL     1      -4.549  13.273  20.082  0.00  0.00    +0.000 C 
BRANCH  25  26
ATOM     26  O   UNL     1      -5.970  13.222  19.949  0.00  0.00    +0.000 OA
BRANCH  26  27
ATOM     27  C   UNL     1      -6.535  11.983  20.078  0.00  0.00    +0.000 A 
ATOM     28  C   UNL     1      -6.159  11.051  19.107  0.00  0.00    +0.000 A 
ATOM     29  C   UNL     1      -6.678   9.755  19.131  0.00  0.00    +0.000 A 
ATOM     30  C   UNL     1      -7.561   9.378  20.140  0.00  0.00    +0.000 A 
ATOM     31  C   UNL     1      -7.916  10.295  21.127  0.00  0.00    +0.000 A 
ATOM     32  C   UNL     1      -7.403  11.594  21.100  0.00  0.00    +0.000 A 
ENDBRANCH  26  27
ENDBRANCH  25  26
ENDBRANCH  24  25
ENDBRANCH  22  24
ENDBRANCH   9  20
BRANCH   1  34
ATOM     33  C   UNL     1       1.745   2.915  21.493  0.00  0.00    +0.000 C 
ATOM     34  O   UNL     1       2.854   3.418  20.750  0.00  0.00    +0.000 OA
ENDBRANCH   1  34
BRANCH  17  35
ATOM     35  O   UNL     1       4.036   3.950  18.417  0.00  0.00    +0.000 OA
ATOM     36  C   UNL     1       5.440   4.164  18.327  0.00  0.00    +0.000 C 
ENDBRANCH  17  35
TORSDOF 7
ENDMDL
MODEL 4
REMARK VINA RESULT:      -7.3      2.806      9.041
REMARK  Name = 
REMARK  9 active torsions:
REMARK  status: ('A' for Active; 'I' for Inactive)
REMARK    1  A    between atoms: C_1  and  O_2
REMARK    2  A    between atoms: O_2  and  C_3
REMARK    3  A    between atoms: C_11  and  C_12
REMARK    4  A    between atoms: N_14  and  C_15
REMARK    5  A    between atoms: C_15  and  C_16
REMARK    6  A    between atoms: C_16  and  O_17
REMARK    7  A    between atoms: O_17  and  C_18
REMARK    8  A    between atoms: C_31  and  O_32
REMARK    9  A    between atoms: O_32  and  C_33
REMARK                            x       y       z     vdW  Elec       q    Type
REMARK                         _______ _______ _______ _____ _____    ______ ____
ROOT
ATOM      1  C   UNL     1      -0.712  11.907  22.341  0.00  0.00    +0.000 A 
ATOM      2  C   UNL     1      -0.254  10.602  22.125  0.00  0.00    +0.000 A 
ATOM      3  C   UNL     1       0.424  10.245  20.972  0.00  0.00    +0.000 A 
ATOM      4  N   UNL     1       0.853   8.989  20.853  0.00  0.00    +0.000 NA
ATOM      5  C   UNL     1       1.530   8.630  19.754  0.00  0.00    +0.000 A 
ATOM      6  N   UNL     1       1.896   7.310  19.621  0.00  0.00    +0.000 N 
ATOM      7  C   UNL     1       2.722   6.882  18.508  0.00  0.00    +0.000 C 
ATOM      8  C   UNL     1       2.190   5.530  18.022  0.00  0.00    +0.000 C 
ATOM      9  C   UNL     1       2.094   4.495  19.155  0.00  0.00    +0.000 C 
ATOM     10  C   UNL     1       1.358   5.078  20.376  0.00  0.00    +0.000 C 
ATOM     11  C   UNL     1       1.908   6.445  20.793  0.00  0.00    +0.000 C 
ATOM     12  N   UNL     1       1.792   9.494  18.762  0.00  0.00    +0.000 NA
ATOM     13  C   UNL     1       1.350  10.754  18.886  0.00  0.00    +0.000 A 
ATOM     14  N   UNL     1       1.707  11.618  17.842  0.00  0.00    +0.000 N 
ATOM     15  C   UNL     1       0.634  11.208  19.994  0.00  0.00    +0.000 A 
ATOM     16  C   UNL     1       0.138  12.523  20.175  0.00  0.00    +0.000 A 
ATOM     17  C   UNL     1      -0.546  12.876  21.341  0.00  0.00    +0.000 A 
ATOM     18  H   UNL     1       2.171  11.052  17.135  0.00  0.00    +0.000 HD
ATOM     19  H   UNL     1       0.907  12.113  17.466  0.00  0.00    +0.000 HD
ENDROOT
BRANCH   9  20
ATOM     20  C   UNL     1       3.462   3.943  19.551  0.00  0.00    +0.000 C 
ATOM     21  O   UNL     1       3.598   2.930  20.232  0.00  0.00    +0.000 OA
ATOM     22  N   UNL     1       4.536   4.640  19.044  0.00  0.00    +0.000 N 
ATOM     23  H   UNL     1       4.382   5.555  18.642  0.00  0.00    +0.000 HD
BRANCH  22  24
ATOM     24  C   UNL     1       5.897   4.238  19.370  0.00  0.00    +0.000 C 
BRANCH  24  25
ATOM     25  C   UNL     1       6.876   5.411  19.370  0.00  0.00    +0.000 C 
BRANCH  25  26
ATOM     26  O   UNL     1       7.646   5.366  18.168  0.00  0.00    +0.000 OA
BRANCH  26  27
ATOM     27  C   UNL     1       6.930   5.382  17.002  0.00  0.00    +0.000 A 
ATOM     28  C   UNL     1       7.174   4.313  16.137  0.00  0.00    +0.000 A 
ATOM     29  C   UNL     1       6.508   4.227  14.912  0.00  0.00    +0.000 A 
ATOM     30  C   UNL     1       5.578   5.200  14.557  0.00  0.00    +0.000 A 
ATOM     31  C   UNL     1       5.309   6.253  15.430  0.00  0.00    +0.000 A 
ATOM     32  C   UNL     1       5.981   6.343  16.652  0.00  0.00    +0.000 A 
ENDBRANCH  26  27
ENDBRANCH  25  26
ENDBRANCH  24  25
ENDBRANCH  22  24
ENDBRANCH   9  20
BRANCH   1  34
ATOM     33  C   UNL     1      -2.761  11.994  23.506  0.00  0.00    +0.000 C 
ATOM     34  O   UNL     1      -1.363  12.279  23.492  0.00  0.00    +0.000 OA
ENDBRANCH   1  34
BRANCH  17  35
ATOM     35  O   UNL     1      -1.055  14.125  21.591  0.00  0.00    +0.000 OA
ATOM     36  C   UNL     1      -2.119  14.575  20.760  0.00  0.00    +0.000 C 
ENDBRANCH  17  35
TORSDOF 7
ENDMDL
MODEL 5
REMARK VINA RESULT:      -7.2      1.910      2.468
REMARK  Name = 
REMARK  9 active torsions:
REMARK  status: ('A' for Active; 'I' for Inactive)
REMARK    1  A    between atoms: C_1  and  O_2
REMARK    2  A    between atoms: O_2  and  C_3
REMARK    3  A    between atoms: C_11  and  C_12
REMARK    4  A    between atoms: N_14  and  C_15
REMARK    5  A    between atoms: C_15  and  C_16
REMARK    6  A    between atoms: C_16  and  O_17
REMARK    7  A    between atoms: O_17  and  C_18
REMARK    8  A    between atoms: C_31  and  O_32
REMARK    9  A    between atoms: O_32  and  C_33
REMARK                            x       y       z     vdW  Elec       q    Type
REMARK                         _______ _______ _______ _____ _____    ______ ____
ROOT
ATOM      1  C   UNL     1       2.671   3.757  20.414  0.00  0.00    +0.000 A 
ATOM      2  C   UNL     1       2.032   4.961  20.732  0.00  0.00    +0.000 A 
ATOM      3  C   UNL     1       2.199   6.103  19.967  0.00  0.00    +0.000 A 
ATOM      4  N   UNL     1       1.534   7.203  20.318  0.00  0.00    +0.000 NA
ATOM      5  C   UNL     1       1.665   8.311  19.577  0.00  0.00    +0.000 A 
ATOM      6  N   UNL     1       1.029   9.455  20.003  0.00  0.00    +0.000 N 
ATOM      7  C   UNL     1       1.044  10.656  19.189  0.00  0.00    +0.000 C 
ATOM      8  C   UNL     1       1.226  11.855  20.126  0.00  0.00    +0.000 C 
ATOM      9  C   UNL     1       0.179  11.884  21.251  0.00  0.00    +0.000 C 
ATOM     10  C   UNL     1       0.089  10.520  21.959  0.00  0.00    +0.000 C 
ATOM     11  C   UNL     1      -0.054   9.357  20.974  0.00  0.00    +0.000 C 
ATOM     12  N   UNL     1       2.447   8.355  18.489  0.00  0.00    +0.000 NA
ATOM     13  C   UNL     1       3.118   7.246  18.146  0.00  0.00    +0.000 A 
ATOM     14  N   UNL     1       3.871   7.343  16.968  0.00  0.00    +0.000 N 
ATOM     15  C   UNL     1       3.042   6.053  18.865  0.00  0.00    +0.000 A 
ATOM     16  C   UNL     1       3.733   4.855  18.554  0.00  0.00    +0.000 A 
ATOM     17  C   UNL     1       3.561   3.707  19.331  0.00  0.00    +0.000 A 
ATOM     18  H   UNL     1       3.815   8.311  16.660  0.00  0.00    +0.000 HD
ATOM     19  H   UNL     1       4.829   7.042  17.101  0.00  0.00    +0.000 HD
ENDROOT
BRANCH   9  20
ATOM     20  C   UNL     1      -1.193  12.335  20.754  0.00  0.00    +0.000 C 
ATOM     21  O   UNL     1      -1.757  11.815  19.796  0.00  0.00    +0.000 OA
ATOM     22  N   UNL     1      -1.775  13.340  21.495  0.00  0.00    +0.000 N 
ATOM     23  H   UNL     1      -1.209  13.853  22.158  0.00  0.00    +0.000 HD
BRANCH  22  24
ATOM     24  C   UNL     1      -3.070  13.884  21.112  0.00  0.00    +0.000 C 
BRANCH  24  25
ATOM     25  C   UNL     1      -4.235  13.168  21.793  0.00  0.00    +0.000 C 
BRANCH  25  26
ATOM     26  O   UNL     1      -5.420  13.388  21.026  0.00  0.00    +0.000 OA
BRANCH  26  27
ATOM     27  C   UNL     1      -5.974  12.274  20.456  0.00  0.00    +0.000 A 
ATOM     28  C   UNL     1      -5.407  11.880  19.241  0.00  0.00    +0.000 A 
ATOM     29  C   UNL     1      -5.896  10.763  18.561  0.00  0.00    +0.000 A 
ATOM     30  C   UNL     1      -6.941  10.020  19.105  0.00  0.00    +0.000 A 
ATOM     31  C   UNL     1      -7.490  10.392  20.331  0.00  0.00    +0.000 A 
ATOM     32  C   UNL     1      -7.006  11.514  21.008  0.00  0.00    +0.000 A 
ENDBRANCH  26  27
ENDBRANCH  25  26
ENDBRANCH  24  25
ENDBRANCH  22  24
ENDBRANCH   9  20
BRANCH   1  34
ATOM     33  C   UNL     1       1.327   2.606  21.975  0.00  0.00    +0.000 C 
ATOM     34  O   UNL     1       2.493   2.611  21.152  0.00  0.00    +0.000 OA
ENDBRANCH   1  34
BRANCH  17  35
ATOM     35  O   UNL     1       4.191   2.512  19.097  0.00  0.00    +0.000 OA
ATOM     36  C   UNL     1       3.614   1.647  18.125  0.00  0.00    +0.000 C 
ENDBRANCH  17  35
TORSDOF 7
ENDMDL
MODEL 6
REMARK VINA RESULT:      -7.2      3.023      9.512
REMARK  Name = 
REMARK  9 active torsions:
REMARK  status: ('A' for Active; 'I' for Inactive)
REMARK    1  A    between atoms: C_1  and  O_2
REMARK    2  A    between atoms: O_2  and  C_3
REMARK    3  A    between atoms: C_11  and  C_12
REMARK    4  A    between atoms: N_14  and  C_15
REMARK    5  A    between atoms: C_15  and  C_16
REMARK    6  A    between atoms: C_16  and  O_17
REMARK    7  A    between atoms: O_17  and  C_18
REMARK    8  A    between atoms: C_31  and  O_32
REMARK    9  A    between atoms: O_32  and  C_33
REMARK                            x       y       z     vdW  Elec       q    Type
REMARK                         _______ _______ _______ _____ _____    ______ ____
ROOT
ATOM      1  C   UNL     1      -1.997  12.344  22.479  0.00  0.00    +0.000 A 
ATOM      2  C   UNL     1      -1.157  11.273  22.151  0.00  0.00    +0.000 A 
ATOM      3  C   UNL     1      -0.733  11.046  20.853  0.00  0.00    +0.000 A 
ATOM      4  N   UNL     1       0.090  10.022  20.626  0.00  0.00    +0.000 NA
ATOM      5  C   UNL     1       0.529   9.800  19.380  0.00  0.00    +0.000 A 
ATOM      6  N   UNL     1       1.315   8.692  19.158  0.00  0.00    +0.000 N 
ATOM      7  C   UNL     1       1.909   8.457  17.855  0.00  0.00    +0.000 C 
ATOM      8  C   UNL     1       1.817   6.955  17.562  0.00  0.00    +0.000 C 
ATOM      9  C   UNL     1       2.428   6.100  18.684  0.00  0.00    +0.000 C 
ATOM     10  C   UNL     1       1.885   6.524  20.061  0.00  0.00    +0.000 C 
ATOM     11  C   UNL     1       1.968   8.036  20.284  0.00  0.00    +0.000 C 
ATOM     12  N   UNL     1       0.167  10.573  18.345  0.00  0.00    +0.000 NA
ATOM     13  C   UNL     1      -0.666  11.597  18.582  0.00  0.00    +0.000 A 
ATOM     14  N   UNL     1      -0.958  12.398  17.469  0.00  0.00    +0.000 N 
ATOM     15  C   UNL     1      -1.174  11.894  19.846  0.00  0.00    +0.000 A 
ATOM     16  C   UNL     1      -2.061  12.957  20.152  0.00  0.00    +0.000 A 
ATOM     17  C   UNL     1      -2.486  13.180  21.464  0.00  0.00    +0.000 A 
ATOM     18  H   UNL     1      -0.524  11.955  16.663  0.00  0.00    +0.000 HD
ATOM     19  H   UNL     1      -1.955  12.526  17.341  0.00  0.00    +0.000 HD
ENDROOT
BRANCH   9  20
ATOM     20  C   UNL     1       3.955   6.126  18.665  0.00  0.00    +0.000 C 
ATOM     21  O   UNL     1       4.639   5.727  19.603  0.00  0.00    +0.000 OA
ATOM     22  N   UNL     1       4.511   6.586  17.491  0.00  0.00    +0.000 N 
ATOM     23  H   UNL     1       3.921   7.062  16.822  0.00  0.00    +0.000 HD
BRANCH  22  24
ATOM     24  C   UNL     1       5.956   6.690  17.351  0.00  0.00    +0.000 C 
BRANCH  24  25
ATOM     25  C   UNL     1       6.595   5.396  16.850  0.00  0.00    +0.000 C 
BRANCH  25  26
ATOM     26  O   UNL     1       7.363   5.686  15.681  0.00  0.00    +0.000 OA
BRANCH  26  27
ATOM     27  C   UNL     1       7.001   5.006  14.549  0.00  0.00    +0.000 A 
ATOM     28  C   UNL     1       7.775   5.274  13.418  0.00  0.00    +0.000 A 
ATOM     29  C   UNL     1       7.495   4.647  12.203  0.00  0.00    +0.000 A 
ATOM     30  C   UNL     1       6.450   3.730  12.119  0.00  0.00    +0.000 A 
ATOM     31  C   UNL     1       5.693   3.437  13.252  0.00  0.00    +0.000 A 
ATOM     32  C   UNL     1       5.969   4.070  14.466  0.00  0.00    +0.000 A 
ENDBRANCH  26  27
ENDBRANCH  25  26
ENDBRANCH  24  25
ENDBRANCH  22  24
ENDBRANCH   9  20
BRANCH   1  34
ATOM     33  C   UNL     1      -3.737  12.177  24.064  0.00  0.00    +0.000 C 
ATOM     34  O   UNL     1      -2.405  12.594  23.767  0.00  0.00    +0.000 OA
ENDBRANCH   1  34
BRANCH  17  35
ATOM     35  O   UNL     1      -3.341  14.183  21.840  0.00  0.00    +0.000 OA
ATOM     36  C   UNL     1      -2.851  15.518  21.779  0.00  0.00    +0.000 C 
ENDBRANCH  17  35
TORSDOF 7
ENDMDL
MODEL 7
REMARK VINA RESULT:      -7.1      2.193      4.259
REMARK  Name = 
REMARK  9 active torsions:
REMARK  status: ('A' for Active; 'I' for Inactive)
REMARK    1  A    between atoms: C_1  and  O_2
REMARK    2  A    between atoms: O_2  and  C_3
REMARK    3  A    between atoms: C_11  and  C_12
REMARK    4  A    between atoms: N_14  and  C_15
REMARK    5  A    between atoms: C_15  and  C_16
REMARK    6  A    between atoms: C_16  and  O_17
REMARK    7  A    between atoms: O_17  and  C_18
REMARK    8  A    between atoms: C_31  and  O_32
REMARK    9  A    between atoms: O_32  and  C_33
REMARK                            x       y       z     vdW  Elec       q    Type
REMARK                         _______ _______ _______ _____ _____    ______ ____
ROOT
ATOM      1  C   UNL     1       2.825   3.844  20.359  0.00  0.00    +0.000 A 
ATOM      2  C   UNL     1       2.227   5.100  20.514  0.00  0.00    +0.000 A 
ATOM      3  C   UNL     1       2.469   6.141  19.633  0.00  0.00    +0.000 A 
ATOM      4  N   UNL     1       1.840   7.298  19.832  0.00  0.00    +0.000 NA
ATOM      5  C   UNL     1       2.044   8.309  18.977  0.00  0.00    +0.000 A 
ATOM      6  N   UNL     1       1.442   9.517  19.247  0.00  0.00    +0.000 N 
ATOM      7  C   UNL     1       1.537  10.617  18.305  0.00  0.00    +0.000 C 
ATOM      8  C   UNL     1       1.737  11.907  19.108  0.00  0.00    +0.000 C 
ATOM      9  C   UNL     1       0.654  12.104  20.180  0.00  0.00    +0.000 C 
ATOM     10  C   UNL     1       0.481  10.833  21.033  0.00  0.00    +0.000 C 
ATOM     11  C   UNL     1       0.323   9.572  20.179  0.00  0.00    +0.000 C 
ATOM     12  N   UNL     1       2.865   8.200  17.923  0.00  0.00    +0.000 NA
ATOM     13  C   UNL     1       3.499   7.033  17.734  0.00  0.00    +0.000 A 
ATOM     14  N   UNL     1       4.297   6.967  16.583  0.00  0.00    +0.000 N 
ATOM     15  C   UNL     1       3.348   5.934  18.578  0.00  0.00    +0.000 A 
ATOM     16  C   UNL     1       3.997   4.682  18.430  0.00  0.00    +0.000 A 
ATOM     17  C   UNL     1       3.749   3.638  19.324  0.00  0.00    +0.000 A 
ATOM     18  H   UNL     1       4.293   7.895  16.166  0.00  0.00    +0.000 HD
ATOM     19  H   UNL     1       5.236   6.646  16.787  0.00  0.00    +0.000 HD
ENDROOT
BRANCH   9  20
ATOM     20  C   UNL     1      -0.679  12.548  19.582  0.00  0.00    +0.000 C 
ATOM     21  O   UNL     1      -0.761  13.165  18.524  0.00  0.00    +0.000 OA
ATOM     22  N   UNL     1      -1.791  12.158  20.295  0.00  0.00    +0.000 N 
ATOM     23  H   UNL     1      -1.674  11.810  21.237  0.00  0.00    +0.000 HD
BRANCH  22  24
ATOM     24  C   UNL     1      -3.124  12.541  19.851  0.00  0.00    +0.000 C 
BRANCH  24  25
ATOM     25  C   UNL     1      -3.955  13.182  20.961  0.00  0.00    +0.000 C 
BRANCH  25  26
ATOM     26  O   UNL     1      -3.433  14.483  21.232  0.00  0.00    +0.000 OA
BRANCH  26  27
ATOM     27  C   UNL     1      -3.026  14.704  22.520  0.00  0.00    +0.000 A 
ATOM     28  C   UNL     1      -4.001  15.228  23.373  0.00  0.00    +0.000 A 
ATOM     29  C   UNL     1      -3.699  15.503  24.708  0.00  0.00    +0.000 A 
ATOM     30  C   UNL     1      -2.425  15.234  25.203  0.00  0.00    +0.000 A 
ATOM     31  C   UNL     1      -1.458  14.684  24.364  0.00  0.00    +0.000 A 
ATOM     32  C   UNL     1      -1.757  14.415  23.025  0.00  0.00    +0.000 A 
ENDBRANCH  26  27
ENDBRANCH  25  26
ENDBRANCH  24  25
ENDBRANCH  22  24
ENDBRANCH   9  20
BRANCH   1  34
ATOM     33  C   UNL     1       1.229   2.725  21.688  0.00  0.00    +0.000 C 
ATOM     34  O   UNL     1       2.573   2.798  21.213  0.00  0.00    +0.000 OA
ENDBRANCH   1  34
BRANCH  17  35
ATOM     35  O   UNL     1       4.336   2.400  19.250  0.00  0.00    +0.000 OA
ATOM     36  C   UNL     1       3.710   1.428  18.420  0.00  0.00    +0.000 C 
ENDBRANCH  17  35
TORSDOF 7
ENDMDL
MODEL 8
REMARK VINA RESULT:      -7.0      1.939      3.847
REMARK  Name = 
REMARK  9 active torsions:
REMARK  status: ('A' for Active; 'I' for Inactive)
REMARK    1  A    between atoms: C_1  and  O_2
REMARK    2  A    between atoms: O_2  and  C_3
REMARK    3  A    between atoms: C_11  and  C_12
REMARK    4  A    between atoms: N_14  and  C_15
REMARK    5  A    between atoms: C_15  and  C_16
REMARK    6  A    between atoms: C_16  and  O_17
REMARK    7  A    between atoms: O_17  and  C_18
REMARK    8  A    between atoms: C_31  and  O_32
REMARK    9  A    between atoms: O_32  and  C_33
REMARK                            x       y       z     vdW  Elec       q    Type
REMARK                         _______ _______ _______ _____ _____    ______ ____
ROOT
ATOM      1  C   UNL     1       2.945   3.821  20.554  0.00  0.00    +0.000 A 
ATOM      2  C   UNL     1       2.358   5.092  20.593  0.00  0.00    +0.000 A 
ATOM      3  C   UNL     1       2.622   6.051  19.630  0.00  0.00    +0.000 A 
ATOM      4  N   UNL     1       2.003   7.227  19.721  0.00  0.00    +0.000 NA
ATOM      5  C   UNL     1       2.229   8.159  18.786  0.00  0.00    +0.000 A 
ATOM      6  N   UNL     1       1.636   9.392  18.944  0.00  0.00    +0.000 N 
ATOM      7  C   UNL     1       1.755  10.406  17.912  0.00  0.00    +0.000 C 
ATOM      8  C   UNL     1       1.958  11.757  18.605  0.00  0.00    +0.000 C 
ATOM      9  C   UNL     1       0.863  12.056  19.642  0.00  0.00    +0.000 C 
ATOM     10  C   UNL     1       0.666  10.864  20.597  0.00  0.00    +0.000 C 
ATOM     11  C   UNL     1       0.506   9.536  19.852  0.00  0.00    +0.000 C 
ATOM     12  N   UNL     1       3.062   7.952  17.756  0.00  0.00    +0.000 NA
ATOM     13  C   UNL     1       3.687   6.768  17.676  0.00  0.00    +0.000 A 
ATOM     14  N   UNL     1       4.498   6.596  16.546  0.00  0.00    +0.000 N 
ATOM     15  C   UNL     1       3.512   5.746  18.609  0.00  0.00    +0.000 A 
ATOM     16  C   UNL     1       4.150   4.481  18.577  0.00  0.00    +0.000 A 
ATOM     17  C   UNL     1       3.880   3.519  19.553  0.00  0.00    +0.000 A 
ATOM     18  H   UNL     1       4.509   7.485  16.051  0.00  0.00    +0.000 HD
ATOM     19  H   UNL     1       5.431   6.286  16.789  0.00  0.00    +0.000 HD
ENDROOT
BRANCH   9  20
ATOM     20  C   UNL     1      -0.457  12.459  18.990  0.00  0.00    +0.000 C 
ATOM     21  O   UNL     1      -0.539  13.349  18.149  0.00  0.00    +0.000 OA
ATOM     22  N   UNL     1      -1.547  11.713  19.381  0.00  0.00    +0.000 N 
ATOM     23  H   UNL     1      -1.468  11.116  20.194  0.00  0.00    +0.000 HD
BRANCH  22  24
ATOM     24  C   UNL     1      -2.873  12.012  18.857  0.00  0.00    +0.000 C 
BRANCH  24  25
ATOM     25  C   UNL     1      -3.852  12.450  19.945  0.00  0.00    +0.000 C 
BRANCH  25  26
ATOM     26  O   UNL     1      -3.565  13.802  20.303  0.00  0.00    +0.000 OA
BRANCH  26  27
ATOM     27  C   UNL     1      -2.804  13.971  21.428  0.00  0.00    +0.000 A 
ATOM     28  C   UNL     1      -3.053  13.063  22.459  0.00  0.00    +0.000 A 
ATOM     29  C   UNL     1      -2.344  13.142  23.659  0.00  0.00    +0.000 A 
ATOM     30  C   UNL     1      -1.364  14.118  23.824  0.00  0.00    +0.000 A 
ATOM     31  C   UNL     1      -1.091  15.008  22.787  0.00  0.00    +0.000 A 
ATOM     32  C   UNL     1      -1.806  14.933  21.589  0.00  0.00    +0.000 A 
ENDBRANCH  26  27
ENDBRANCH  25  26
ENDBRANCH  24  25
ENDBRANCH  22  24
ENDBRANCH   9  20
BRANCH   1  34
ATOM     33  C   UNL     1       1.282   2.592  21.690  0.00  0.00    +0.000 C 
ATOM     34  O   UNL     1       2.671   2.854  21.490  0.00  0.00    +0.000 OA
ENDBRANCH   1  34
BRANCH  17  35
ATOM     35  O   UNL     1       4.455   2.274  19.593  0.00  0.00    +0.000 OA
ATOM     36  C   UNL     1       3.902   1.271  18.748  0.00  0.00    +0.000 C 
ENDBRANCH  17  35
TORSDOF 7
ENDMDL
MODEL 9
REMARK VINA RESULT:      -6.9      2.284      4.190
REMARK  Name = 
REMARK  9 active torsions:
REMARK  status: ('A' for Active; 'I' for Inactive)
REMARK    1  A    between atoms: C_1  and  O_2
REMARK    2  A    between atoms: O_2  and  C_3
REMARK    3  A    between atoms: C_11  and  C_12
REMARK    4  A    between atoms: N_14  and  C_15
REMARK    5  A    between atoms: C_15  and  C_16
REMARK    6  A    between atoms: C_16  and  O_17
REMARK    7  A    between atoms: O_17  and  C_18
REMARK    8  A    between atoms: C_31  and  O_32
REMARK    9  A    between atoms: O_32  and  C_33
REMARK                            x       y       z     vdW  Elec       q    Type
REMARK                         _______ _______ _______ _____ _____    ______ ____
ROOT
ATOM      1  C   UNL     1       2.765   4.382  20.173  0.00  0.00    +0.000 A 
ATOM      2  C   UNL     1       2.019   5.381  20.809  0.00  0.00    +0.000 A 
ATOM      3  C   UNL     1       1.854   6.638  20.253  0.00  0.00    +0.000 A 
ATOM      4  N   UNL     1       1.105   7.526  20.906  0.00  0.00    +0.000 NA
ATOM      5  C   UNL     1       0.915   8.740  20.373  0.00  0.00    +0.000 A 
ATOM      6  N   UNL     1       0.202   9.664  21.101  0.00  0.00    +0.000 N 
ATOM      7  C   UNL     1      -0.128  10.958  20.533  0.00  0.00    +0.000 C 
ATOM      8  C   UNL     1       0.040  12.010  21.635  0.00  0.00    +0.000 C 
ATOM      9  C   UNL     1      -0.762  11.668  22.901  0.00  0.00    +0.000 C 
ATOM     10  C   UNL     1      -0.499  10.218  23.347  0.00  0.00    +0.000 C 
ATOM     11  C   UNL     1      -0.645   9.216  22.199  0.00  0.00    +0.000 C 
ATOM     12  N   UNL     1       1.457   9.099  19.199  0.00  0.00    +0.000 NA
ATOM     13  C   UNL     1       2.215   8.201  18.552  0.00  0.00    +0.000 A 
ATOM     14  N   UNL     1       2.703   8.619  17.306  0.00  0.00    +0.000 N 
ATOM     15  C   UNL     1       2.467   6.919  19.039  0.00  0.00    +0.000 A 
ATOM     16  C   UNL     1       3.264   5.934  18.402  0.00  0.00    +0.000 A 
ATOM     17  C   UNL     1       3.427   4.668  18.970  0.00  0.00    +0.000 A 
ATOM     18  H   UNL     1       2.437   9.595  17.196  0.00  0.00    +0.000 HD
ATOM     19  H   UNL     1       3.704   8.486  17.224  0.00  0.00    +0.000 HD
ENDROOT
BRANCH   9  20
ATOM     20  C   UNL     1      -2.257  11.925  22.725  0.00  0.00    +0.000 C 
ATOM     21  O   UNL     1      -3.100  11.521  23.522  0.00  0.00    +0.000 OA
ATOM     22  N   UNL     1      -2.588  12.690  21.629  0.00  0.00    +0.000 N 
ATOM     23  H   UNL     1      -1.892  12.851  20.913  0.00  0.00    +0.000 HD
BRANCH  22  24
ATOM     24  C   UNL     1      -3.982  12.985  21.328  0.00  0.00    +0.000 C 
BRANCH  24  25
ATOM     25  C   UNL     1      -4.332  14.458  21.535  0.00  0.00    +0.000 C 
BRANCH  25  26
ATOM     26  O   UNL     1      -4.599  14.675  22.921  0.00  0.00    +0.000 OA
BRANCH  26  27
ATOM     27  C   UNL     1      -3.551  15.155  23.660  0.00  0.00    +0.000 A 
ATOM     28  C   UNL     1      -2.762  16.115  23.023  0.00  0.00    +0.000 A 
ATOM     29  C   UNL     1      -1.659  16.671  23.676  0.00  0.00    +0.000 A 
ATOM     30  C   UNL     1      -1.353  16.282  24.978  0.00  0.00    +0.000 A 
ATOM     31  C   UNL     1      -2.155  15.346  25.628  0.00  0.00    +0.000 A 
ATOM     32  C   UNL     1      -3.254  14.785  24.973  0.00  0.00    +0.000 A 
ENDBRANCH  26  27
ENDBRANCH  25  26
ENDBRANCH  24  25
ENDBRANCH  22  24
ENDBRANCH   9  20
BRANCH   1  34
ATOM     33  C   UNL     1       1.872   2.722  21.592  0.00  0.00    +0.000 C 
ATOM     34  O   UNL     1       2.915   3.123  20.704  0.00  0.00    +0.000 OA
ENDBRANCH   1  34
BRANCH  17  35
ATOM     35  O   UNL     1       4.180   3.664  18.418  0.00  0.00    +0.000 OA
ATOM     36  C   UNL     1       4.931   3.976  17.251  0.00  0.00    +0.000 C 
ENDBRANCH  17  35
TORSDOF 7
ENDMDL
