MODEL 1
REMARK VINA RESULT:      -8.0      0.000      0.000
REMARK  Name = 
REMARK  6 active torsions:
REMARK  status: ('A' for Active; 'I' for Inactive)
REMARK    1  A    between atoms: C_5  and  C_6
REMARK    2  A    between atoms: C_6  and  C_7
REMARK    3  A    between atoms: C_6  and  C_14
REMARK    4  A    between atoms: C_7  and  C_8
REMARK    5  A    between atoms: C_8  and  N_9
REMARK    6  A    between atoms: C_14  and  C_15
REMARK                            x       y       z     vdW  Elec       q    Type
REMARK                         _______ _______ _______ _____ _____    ______ ____
ROOT
ATOM      1  C   UNL     1       3.145   6.753  17.986  0.00  0.00    +0.000 C 
ENDROOT
BRANCH   1   6
ATOM      2 CL   UNL     1      -0.190  11.289  20.275  0.00  0.00    +0.000 Cl
ATOM      3  C   UNL     1       0.782  10.026  19.627  0.00  0.00    +0.000 A 
ATOM      4  C   UNL     1       1.093   8.917  20.406  0.00  0.00    +0.000 A 
ATOM      5  C   UNL     1       1.876   7.888  19.872  0.00  0.00    +0.000 A 
ATOM      6  C   UNL     1       2.335   7.935  18.541  0.00  0.00    +0.000 A 
ATOM      7  C   UNL     1       2.007   9.069  17.780  0.00  0.00    +0.000 A 
ATOM      8  C   UNL     1       1.246  10.112  18.321  0.00  0.00    +0.000 A 
ENDBRANCH   1   6
BRANCH   1   9
ATOM      9  C   UNL     1       4.387   7.312  17.220  0.00  0.00    +0.000 C 
BRANCH   9  10
ATOM     10  C   UNL     1       5.051   6.293  16.276  0.00  0.00    +0.000 C 
BRANCH  10  11
ATOM     11  N   UNL     1       6.524   6.343  16.259  0.00  0.00    +0.000 NA
ATOM     12  C   UNL     1       7.075   4.973  16.346  0.00  0.00    +0.000 C 
ATOM     13  C   UNL     1       7.158   4.675  17.831  0.00  0.00    +0.000 C 
ATOM     14  C   UNL     1       7.604   6.002  18.409  0.00  0.00    +0.000 C 
ATOM     15  C   UNL     1       7.086   7.050  17.428  0.00  0.00    +0.000 C 
ENDBRANCH  10  11
ENDBRANCH   9  10
ENDBRANCH   1   9
BRANCH   1  16
ATOM     16  C   UNL     1       3.596   5.694  19.036  0.00  0.00    +0.000 C 
BRANCH  16  17
ATOM     17  C   UNL     1       2.663   4.560  19.396  0.00  0.00    +0.000 A 
ATOM     18  C   UNL     1       2.268   4.297  20.711  0.00  0.00    +0.000 A 
ATOM     19  C   UNL     1       1.363   3.269  20.984  0.00  0.00    +0.000 A 
ATOM     20  C   UNL     1       0.836   2.503  19.946  0.00  0.00    +0.000 A 
ATOM     21  C   UNL     1       1.206   2.767  18.631  0.00  0.00    +0.000 A 
ATOM     22  C   UNL     1       2.108   3.793  18.356  0.00  0.00    +0.000 A 
ENDBRANCH  16  17
ENDBRANCH   1  16
TORSDOF 6
ENDMDL
MODEL 2
REMARK VINA RESULT:      -7.9      0.532      1.193
REMARK  Name = 
REMARK  6 active torsions:
REMARK  status: ('A' for Active; 'I' for Inactive)
REMARK    1  A    between atoms: C_5  and  C_6
REMARK    2  A    between atoms: C_6  and  C_7
REMARK    3  A    between atoms: C_6  and  C_14
REMARK    4  A    between atoms: C_7  and  C_8
REMARK    5  A    between atoms: C_8  and  N_9
REMARK    6  A    between atoms: C_14  and  C_15
REMARK                            x       y       z     vdW  Elec       q    Type
REMARK                         _______ _______ _______ _____ _____    ______ ____
ROOT
ATOM      1  C   UNL     1       3.232   6.659  17.892  0.00  0.00    +0.000 C 
ENDROOT
BRANCH   1   6
ATOM      2 CL   UNL     1      -0.018  11.149  20.384  0.00  0.00    +0.000 Cl
ATOM      3  C   UNL     1       0.874   9.857  19.681  0.00  0.00    +0.000 A 
ATOM      4  C   UNL     1       1.242   9.913  18.341  0.00  0.00    +0.000 A 
ATOM      5  C   UNL     1       1.976   8.864  17.777  0.00  0.00    +0.000 A 
ATOM      6  C   UNL     1       2.380   7.757  18.548  0.00  0.00    +0.000 A 
ATOM      7  C   UNL     1       1.991   7.728  19.897  0.00  0.00    +0.000 A 
ATOM      8  C   UNL     1       1.234   8.763  20.458  0.00  0.00    +0.000 A 
ENDBRANCH   1   6
BRANCH   1   9
ATOM      9  C   UNL     1       4.493   7.320  17.248  0.00  0.00    +0.000 C 
BRANCH   9  10
ATOM     10  C   UNL     1       5.186   6.445  16.188  0.00  0.00    +0.000 C 
BRANCH  10  11
ATOM     11  N   UNL     1       6.657   6.427  16.275  0.00  0.00    +0.000 NA
ATOM     12  C   UNL     1       7.144   5.031  16.286  0.00  0.00    +0.000 C 
ATOM     13  C   UNL     1       7.108   4.612  17.743  0.00  0.00    +0.000 C 
ATOM     14  C   UNL     1       7.567   5.866  18.457  0.00  0.00    +0.000 C 
ATOM     15  C   UNL     1       7.163   7.012  17.534  0.00  0.00    +0.000 C 
ENDBRANCH  10  11
ENDBRANCH   9  10
ENDBRANCH   1   9
BRANCH   1  16
ATOM     16  C   UNL     1       3.660   5.490  18.829  0.00  0.00    +0.000 C 
BRANCH  16  17
ATOM     17  C   UNL     1       2.789   4.259  18.927  0.00  0.00    +0.000 A 
ATOM     18  C   UNL     1       1.707   4.169  19.809  0.00  0.00    +0.000 A 
ATOM     19  C   UNL     1       0.901   3.028  19.823  0.00  0.00    +0.000 A 
ATOM     20  C   UNL     1       1.160   1.974  18.949  0.00  0.00    +0.000 A 
ATOM     21  C   UNL     1       2.221   2.059  18.054  0.00  0.00    +0.000 A 
ATOM     22  C   UNL     1       3.026   3.197  18.036  0.00  0.00    +0.000 A 
ENDBRANCH  16  17
ENDBRANCH   1  16
TORSDOF 6
ENDMDL
MODEL 3
REMARK VINA RESULT:      -7.9      0.156      1.035
REMARK  Name = 
REMARK  6 active torsions:
REMARK  status: ('A' for Active; 'I' for Inactive)
REMARK    1  A    between atoms: C_5  and  C_6
REMARK    2  A    between atoms: C_6  and  C_7
REMARK    3  A    between atoms: C_6  and  C_14
REMARK    4  A    between atoms: C_7  and  C_8
REMARK    5  A    between atoms: C_8  and  N_9
REMARK    6  A    between atoms: C_14  and  C_15
REMARK                            x       y       z     vdW  Elec       q    Type
REMARK                         _______ _______ _______ _____ _____    ______ ____
ROOT
ATOM      1  C   UNL     1       3.138   6.720  18.017  0.00  0.00    +0.000 C 
ENDROOT
BRANCH   1   6
ATOM      2 CL   UNL     1      -0.262  11.209  20.301  0.00  0.00    +0.000 Cl
ATOM      3  C   UNL     1       0.728   9.960  19.653  0.00  0.00    +0.000 A 
ATOM      4  C   UNL     1       1.103   8.885  20.451  0.00  0.00    +0.000 A 
ATOM      5  C   UNL     1       1.900   7.867  19.916  0.00  0.00    +0.000 A 
ATOM      6  C   UNL     1       2.309   7.890  18.569  0.00  0.00    +0.000 A 
ATOM      7  C   UNL     1       1.916   8.991  17.790  0.00  0.00    +0.000 A 
ATOM      8  C   UNL     1       1.142  10.024  18.328  0.00  0.00    +0.000 A 
ENDBRANCH   1   6
BRANCH   1   9
ATOM      9  C   UNL     1       4.393   7.295  17.284  0.00  0.00    +0.000 C 
BRANCH   9  10
ATOM     10  C   UNL     1       5.059   6.304  16.313  0.00  0.00    +0.000 C 
BRANCH  10  11
ATOM     11  N   UNL     1       6.531   6.369  16.286  0.00  0.00    +0.000 NA
ATOM     12  C   UNL     1       7.098   5.006  16.378  0.00  0.00    +0.000 C 
ATOM     13  C   UNL     1       7.193   4.719  17.865  0.00  0.00    +0.000 C 
ATOM     14  C   UNL     1       7.629   6.054  18.430  0.00  0.00    +0.000 C 
ATOM     15  C   UNL     1       7.094   7.091  17.446  0.00  0.00    +0.000 C 
ENDBRANCH  10  11
ENDBRANCH   9  10
ENDBRANCH   1   9
BRANCH   1  16
ATOM     16  C   UNL     1       3.573   5.651  19.064  0.00  0.00    +0.000 C 
BRANCH  16  17
ATOM     17  C   UNL     1       2.605   4.557  19.454  0.00  0.00    +0.000 A 
ATOM     18  C   UNL     1       1.930   3.776  18.510  0.00  0.00    +0.000 A 
ATOM     19  C   UNL     1       1.086   2.742  18.924  0.00  0.00    +0.000 A 
ATOM     20  C   UNL     1       0.919   2.472  20.280  0.00  0.00    +0.000 A 
ATOM     21  C   UNL     1       1.600   3.227  21.228  0.00  0.00    +0.000 A 
ATOM     22  C   UNL     1       2.444   4.259  20.819  0.00  0.00    +0.000 A 
ENDBRANCH  16  17
ENDBRANCH   1  16
TORSDOF 6
ENDMDL
MODEL 4
REMARK VINA RESULT:      -7.8      0.436      1.483
REMARK  Name = 
REMARK  6 active torsions:
REMARK  status: ('A' for Active; 'I' for Inactive)
REMARK    1  A    between atoms: C_5  and  C_6
REMARK    2  A    between atoms: C_6  and  C_7
REMARK    3  A    between atoms: C_6  and  C_14
REMARK    4  A    between atoms: C_7  and  C_8
REMARK    5  A    between atoms: C_8  and  N_9
REMARK    6  A    between atoms: C_14  and  C_15
REMARK                            x       y       z     vdW  Elec       q    Type
REMARK                         _______ _______ _______ _____ _____    ______ ____
ROOT
ATOM      1  C   UNL     1       3.193   6.682  17.927  0.00  0.00    +0.000 C 
ENDROOT
BRANCH   1   6
ATOM      2 CL   UNL     1       0.015  11.297  20.278  0.00  0.00    +0.000 Cl
ATOM      3  C   UNL     1       0.886   9.971  19.614  0.00  0.00    +0.000 A 
ATOM      4  C   UNL     1       1.299  10.003  18.286  0.00  0.00    +0.000 A 
ATOM      5  C   UNL     1       2.016   8.926  17.754  0.00  0.00    +0.000 A 
ATOM      6  C   UNL     1       2.358   7.813  18.546  0.00  0.00    +0.000 A 
ATOM      7  C   UNL     1       1.925   7.808  19.882  0.00  0.00    +0.000 A 
ATOM      8  C   UNL     1       1.185   8.872  20.410  0.00  0.00    +0.000 A 
ENDBRANCH   1   6
BRANCH   1   9
ATOM      9  C   UNL     1       4.470   7.302  17.271  0.00  0.00    +0.000 C 
BRANCH   9  10
ATOM     10  C   UNL     1       5.143   6.392  16.228  0.00  0.00    +0.000 C 
BRANCH  10  11
ATOM     11  N   UNL     1       6.616   6.400  16.268  0.00  0.00    +0.000 NA
ATOM     12  C   UNL     1       7.126   5.014  16.342  0.00  0.00    +0.000 C 
ATOM     13  C   UNL     1       7.143   4.680  17.822  0.00  0.00    +0.000 C 
ATOM     14  C   UNL     1       7.604   5.979  18.448  0.00  0.00    +0.000 C 
ATOM     15  C   UNL     1       7.153   7.064  17.474  0.00  0.00    +0.000 C 
ENDBRANCH  10  11
ENDBRANCH   9  10
ENDBRANCH   1   9
BRANCH   1  16
ATOM     16  C   UNL     1       3.596   5.533  18.898  0.00  0.00    +0.000 C 
BRANCH  16  17
ATOM     17  C   UNL     1       2.728   4.298  18.989  0.00  0.00    +0.000 A 
ATOM     18  C   UNL     1       2.766   3.278  18.034  0.00  0.00    +0.000 A 
ATOM     19  C   UNL     1       1.981   2.133  18.192  0.00  0.00    +0.000 A 
ATOM     20  C   UNL     1       1.161   1.993  19.309  0.00  0.00    +0.000 A 
ATOM     21  C   UNL     1       1.128   2.991  20.276  0.00  0.00    +0.000 A 
ATOM     22  C   UNL     1       1.912   4.134  20.122  0.00  0.00    +0.000 A 
ENDBRANCH  16  17
ENDBRANCH   1  16
TORSDOF 6
ENDMDL
MODEL 5
REMARK VINA RESULT:      -7.8      1.922      4.950
REMARK  Name = 
REMARK  6 active torsions:
REMARK  status: ('A' for Active; 'I' for Inactive)
REMARK    1  A    between atoms: C_5  and  C_6
REMARK    2  A    between atoms: C_6  and  C_7
REMARK    3  A    between atoms: C_6  and  C_14
REMARK    4  A    between atoms: C_7  and  C_8
REMARK    5  A    between atoms: C_8  and  N_9
REMARK    6  A    between atoms: C_14  and  C_15
REMARK                            x       y       z     vdW  Elec       q    Type
REMARK                         _______ _______ _______ _____ _____    ______ ____
ROOT
ATOM      1  C   UNL     1       3.124   5.378  18.200  0.00  0.00    +0.000 C 
ENDROOT
BRANCH   1   6
ATOM      2 CL   UNL     1       0.765  10.707  19.924  0.00  0.00    +0.000 Cl
ATOM      3  C   UNL     1       1.401   9.183  19.441  0.00  0.00    +0.000 A 
ATOM      4  C   UNL     1       1.759   8.967  18.115  0.00  0.00    +0.000 A 
ATOM      5  C   UNL     1       2.285   7.729  17.729  0.00  0.00    +0.000 A 
ATOM      6  C   UNL     1       2.492   6.699  18.667  0.00  0.00    +0.000 A 
ATOM      7  C   UNL     1       2.119   6.947  19.998  0.00  0.00    +0.000 A 
ATOM      8  C   UNL     1       1.568   8.174  20.381  0.00  0.00    +0.000 A 
ENDBRANCH   1   6
BRANCH   1   9
ATOM      9  C   UNL     1       1.997   4.456  17.631  0.00  0.00    +0.000 C 
BRANCH   9  10
ATOM     10  C   UNL     1       1.163   3.747  18.712  0.00  0.00    +0.000 C 
BRANCH  10  11
ATOM     11  N   UNL     1       1.604   2.377  19.026  0.00  0.00    +0.000 NA
ATOM     12  C   UNL     1       1.850   2.247  20.479  0.00  0.00    +0.000 C 
ATOM     13  C   UNL     1       3.286   2.696  20.677  0.00  0.00    +0.000 C 
ATOM     14  C   UNL     1       3.981   2.121  19.462  0.00  0.00    +0.000 C 
ATOM     15  C   UNL     1       2.895   2.032  18.394  0.00  0.00    +0.000 C 
ENDBRANCH  10  11
ENDBRANCH   9  10
ENDBRANCH   1   9
BRANCH   1  16
ATOM     16  C   UNL     1       4.279   5.514  17.164  0.00  0.00    +0.000 C 
BRANCH  16  17
ATOM     17  C   UNL     1       5.641   5.980  17.626  0.00  0.00    +0.000 A 
ATOM     18  C   UNL     1       6.277   7.103  17.088  0.00  0.00    +0.000 A 
ATOM     19  C   UNL     1       7.513   7.522  17.587  0.00  0.00    +0.000 A 
ATOM     20  C   UNL     1       8.117   6.830  18.635  0.00  0.00    +0.000 A 
ATOM     21  C   UNL     1       7.487   5.723  19.193  0.00  0.00    +0.000 A 
ATOM     22  C   UNL     1       6.253   5.304  18.697  0.00  0.00    +0.000 A 
ENDBRANCH  16  17
ENDBRANCH   1  16
TORSDOF 6
ENDMDL
MODEL 6
REMARK VINA RESULT:      -7.7      1.909      5.041
REMARK  Name = 
REMARK  6 active torsions:
REMARK  status: ('A' for Active; 'I' for Inactive)
REMARK    1  A    between atoms: C_5  and  C_6
REMARK    2  A    between atoms: C_6  and  C_7
REMARK    3  A    between atoms: C_6  and  C_14
REMARK    4  A    between atoms: C_7  and  C_8
REMARK    5  A    between atoms: C_8  and  N_9
REMARK    6  A    between atoms: C_14  and  C_15
REMARK                            x       y       z     vdW  Elec       q    Type
REMARK                         _______ _______ _______ _____ _____    ______ ____
ROOT
ATOM      1  C   UNL     1       3.202   5.263  18.311  0.00  0.00    +0.000 C 
ENDROOT
BRANCH   1   6
ATOM      2 CL   UNL     1       0.763  10.620  19.821  0.00  0.00    +0.000 Cl
ATOM      3  C   UNL     1       1.422   9.089  19.399  0.00  0.00    +0.000 A 
ATOM      4  C   UNL     1       1.790   8.827  18.084  0.00  0.00    +0.000 A 
ATOM      5  C   UNL     1       2.335   7.583  17.748  0.00  0.00    +0.000 A 
ATOM      6  C   UNL     1       2.550   6.591  18.724  0.00  0.00    +0.000 A 
ATOM      7  C   UNL     1       2.166   6.884  20.043  0.00  0.00    +0.000 A 
ATOM      8  C   UNL     1       1.596   8.117  20.378  0.00  0.00    +0.000 A 
ENDBRANCH   1   6
BRANCH   1   9
ATOM      9  C   UNL     1       2.102   4.330  17.709  0.00  0.00    +0.000 C 
BRANCH   9  10
ATOM     10  C   UNL     1       1.083   3.816  18.742  0.00  0.00    +0.000 C 
BRANCH  10  11
ATOM     11  N   UNL     1       1.438   2.527  19.363  0.00  0.00    +0.000 NA
ATOM     12  C   UNL     1       1.280   2.614  20.831  0.00  0.00    +0.000 C 
ATOM     13  C   UNL     1       2.603   3.159  21.337  0.00  0.00    +0.000 C 
ATOM     14  C   UNL     1       3.609   2.455  20.452  0.00  0.00    +0.000 C 
ATOM     15  C   UNL     1       2.855   2.163  19.157  0.00  0.00    +0.000 C 
ENDBRANCH  10  11
ENDBRANCH   9  10
ENDBRANCH   1   9
BRANCH   1  16
ATOM     16  C   UNL     1       4.403   5.380  17.325  0.00  0.00    +0.000 C 
BRANCH  16  17
ATOM     17  C   UNL     1       5.720   5.933  17.821  0.00  0.00    +0.000 A 
ATOM     18  C   UNL     1       6.448   5.335  18.854  0.00  0.00    +0.000 A 
ATOM     19  C   UNL     1       7.685   5.856  19.239  0.00  0.00    +0.000 A 
ATOM     20  C   UNL     1       8.211   6.970  18.589  0.00  0.00    +0.000 A 
ATOM     21  C   UNL     1       7.507   7.563  17.547  0.00  0.00    +0.000 A 
ATOM     22  C   UNL     1       6.272   7.044  17.159  0.00  0.00    +0.000 A 
ENDBRANCH  16  17
ENDBRANCH   1  16
TORSDOF 6
ENDMDL
MODEL 7
REMARK VINA RESULT:      -7.7      1.976      4.538
REMARK  Name = 
REMARK  6 active torsions:
REMARK  status: ('A' for Active; 'I' for Inactive)
REMARK    1  A    between atoms: C_5  and  C_6
REMARK    2  A    between atoms: C_6  and  C_7
REMARK    3  A    between atoms: C_6  and  C_14
REMARK    4  A    between atoms: C_7  and  C_8
REMARK    5  A    between atoms: C_8  and  N_9
REMARK    6  A    between atoms: C_14  and  C_15
REMARK                            x       y       z     vdW  Elec       q    Type
REMARK                         _______ _______ _______ _____ _____    ______ ____
ROOT
ATOM      1  C   UNL     1       3.008   6.226  19.127  0.00  0.00    +0.000 C 
ENDROOT
BRANCH   1   6
ATOM      2 CL   UNL     1      -0.089  11.452  19.289  0.00  0.00    +0.000 Cl
ATOM      3  C   UNL     1       0.817   9.991  19.240  0.00  0.00    +0.000 A 
ATOM      4  C   UNL     1       0.936   9.206  20.382  0.00  0.00    +0.000 A 
ATOM      5  C   UNL     1       1.666   8.014  20.334  0.00  0.00    +0.000 A 
ATOM      6  C   UNL     1       2.264   7.570  19.138  0.00  0.00    +0.000 A 
ATOM      7  C   UNL     1       2.129   8.386  18.003  0.00  0.00    +0.000 A 
ATOM      8  C   UNL     1       1.422   9.592  18.054  0.00  0.00    +0.000 A 
ENDBRANCH   1   6
BRANCH   1   9
ATOM      9  C   UNL     1       2.292   5.248  20.115  0.00  0.00    +0.000 C 
BRANCH   9  10
ATOM     10  C   UNL     1       1.497   4.127  19.421  0.00  0.00    +0.000 C 
BRANCH  10  11
ATOM     11  N   UNL     1       1.801   2.770  19.907  0.00  0.00    +0.000 NA
ATOM     12  C   UNL     1       3.089   2.771  20.634  0.00  0.00    +0.000 C 
ATOM     13  C   UNL     1       4.145   2.565  19.564  0.00  0.00    +0.000 C 
ATOM     14  C   UNL     1       3.488   1.562  18.642  0.00  0.00    +0.000 C 
ATOM     15  C   UNL     1       1.989   1.798  18.810  0.00  0.00    +0.000 C 
ENDBRANCH  10  11
ENDBRANCH   9  10
ENDBRANCH   1   9
BRANCH   1  16
ATOM     16  C   UNL     1       3.164   5.555  17.730  0.00  0.00    +0.000 C 
BRANCH  16  17
ATOM     17  C   UNL     1       4.548   5.248  17.204  0.00  0.00    +0.000 A 
ATOM     18  C   UNL     1       4.797   4.214  16.297  0.00  0.00    +0.000 A 
ATOM     19  C   UNL     1       6.087   4.006  15.801  0.00  0.00    +0.000 A 
ATOM     20  C   UNL     1       7.134   4.835  16.198  0.00  0.00    +0.000 A 
ATOM     21  C   UNL     1       6.896   5.879  17.084  0.00  0.00    +0.000 A 
ATOM     22  C   UNL     1       5.610   6.090  17.579  0.00  0.00    +0.000 A 
ENDBRANCH  16  17
ENDBRANCH   1  16
TORSDOF 6
ENDMDL
MODEL 8
REMARK VINA RESULT:      -7.7      1.997      4.686
REMARK  Name = 
REMARK  6 active torsions:
REMARK  status: ('A' for Active; 'I' for Inactive)
REMARK    1  A    between atoms: C_5  and  C_6
REMARK    2  A    between atoms: C_6  and  C_7
REMARK    3  A    between atoms: C_6  and  C_14
REMARK    4  A    between atoms: C_7  and  C_8
REMARK    5  A    between atoms: C_8  and  N_9
REMARK    6  A    between atoms: C_14  and  C_15
REMARK                            x       y       z     vdW  Elec       q    Type
REMARK                         _______ _______ _______ _____ _____    ______ ____
ROOT
ATOM      1  C   UNL     1       2.993   6.165  19.191  0.00  0.00    +0.000 C 
ENDROOT
BRANCH   1   6
ATOM      2 CL   UNL     1       0.283  11.602  19.008  0.00  0.00    +0.000 Cl
ATOM      3  C   UNL     1       1.019  10.048  19.062  0.00  0.00    +0.000 A 
ATOM      4  C   UNL     1       1.641   9.531  17.930  0.00  0.00    +0.000 A 
ATOM      5  C   UNL     1       2.246   8.271  17.983  0.00  0.00    +0.000 A 
ATOM      6  C   UNL     1       2.267   7.519  19.173  0.00  0.00    +0.000 A 
ATOM      7  C   UNL     1       1.629   8.066  20.298  0.00  0.00    +0.000 A 
ATOM      8  C   UNL     1       0.999   9.315  20.242  0.00  0.00    +0.000 A 
ENDBRANCH   1   6
BRANCH   1   9
ATOM      9  C   UNL     1       2.287   5.231  20.227  0.00  0.00    +0.000 C 
BRANCH   9  10
ATOM     10  C   UNL     1       1.419   4.132  19.589  0.00  0.00    +0.000 C 
BRANCH  10  11
ATOM     11  N   UNL     1       1.748   2.763  20.022  0.00  0.00    +0.000 NA
ATOM     12  C   UNL     1       3.038   2.759  20.745  0.00  0.00    +0.000 C 
ATOM     13  C   UNL     1       4.094   2.612  19.665  0.00  0.00    +0.000 C 
ATOM     14  C   UNL     1       3.450   1.633  18.707  0.00  0.00    +0.000 C 
ATOM     15  C   UNL     1       1.948   1.836  18.888  0.00  0.00    +0.000 C 
ENDBRANCH  10  11
ENDBRANCH   9  10
ENDBRANCH   1   9
BRANCH   1  16
ATOM     16  C   UNL     1       3.109   5.446  17.814  0.00  0.00    +0.000 C 
BRANCH  16  17
ATOM     17  C   UNL     1       4.472   5.262  17.185  0.00  0.00    +0.000 A 
ATOM     18  C   UNL     1       4.757   4.221  16.296  0.00  0.00    +0.000 A 
ATOM     19  C   UNL     1       6.018   4.127  15.701  0.00  0.00    +0.000 A 
ATOM     20  C   UNL     1       6.998   5.077  15.979  0.00  0.00    +0.000 A 
ATOM     21  C   UNL     1       6.721   6.128  16.846  0.00  0.00    +0.000 A 
ATOM     22  C   UNL     1       5.464   6.226  17.440  0.00  0.00    +0.000 A 
ENDBRANCH  16  17
ENDBRANCH   1  16
TORSDOF 6
ENDMDL
MODEL 9
REMARK VINA RESULT:      -7.7      1.282      1.453
REMARK  Name = 
REMARK  6 active torsions:
REMARK  status: ('A' for Active; 'I' for Inactive)
REMARK    1  A    between atoms: C_5  and  C_6
REMARK    2  A    between atoms: C_6  and  C_7
REMARK    3  A    between atoms: C_6  and  C_14
REMARK    4  A    between atoms: C_7  and  C_8
REMARK    5  A    between atoms: C_8  and  N_9
REMARK    6  A    between atoms: C_14  and  C_15
REMARK                            x       y       z     vdW  Elec       q    Type
REMARK                         _______ _______ _______ _____ _____    ______ ____
ROOT
ATOM      1  C   UNL     1       3.314   6.684  18.057  0.00  0.00    +0.000 C 
ENDROOT
BRANCH   1   6
ATOM      2 CL   UNL     1      -0.462  10.920  20.233  0.00  0.00    +0.000 Cl
ATOM      3  C   UNL     1       0.632   9.745  19.614  0.00  0.00    +0.000 A 
ATOM      4  C   UNL     1       1.109   8.734  20.441  0.00  0.00    +0.000 A 
ATOM      5  C   UNL     1       1.991   7.775  19.931  0.00  0.00    +0.000 A 
ATOM      6  C   UNL     1       2.387   7.793  18.579  0.00  0.00    +0.000 A 
ATOM      7  C   UNL     1       1.891   8.828  17.770  0.00  0.00    +0.000 A 
ATOM      8  C   UNL     1       1.030   9.804  18.284  0.00  0.00    +0.000 A 
ENDBRANCH   1   6
BRANCH   1   9
ATOM      9  C   UNL     1       4.526   7.348  17.325  0.00  0.00    +0.000 C 
BRANCH   9  10
ATOM     10  C   UNL     1       4.886   6.686  15.983  0.00  0.00    +0.000 C 
BRANCH  10  11
ATOM     11  N   UNL     1       6.310   6.336  15.834  0.00  0.00    +0.000 NA
ATOM     12  C   UNL     1       6.440   5.044  15.126  0.00  0.00    +0.000 C 
ATOM     13  C   UNL     1       6.351   3.989  16.212  0.00  0.00    +0.000 C 
ATOM     14  C   UNL     1       7.126   4.620  17.349  0.00  0.00    +0.000 C 
ATOM     15  C   UNL     1       6.985   6.124  17.132  0.00  0.00    +0.000 C 
ENDBRANCH  10  11
ENDBRANCH   9  10
ENDBRANCH   1   9
BRANCH   1  16
ATOM     16  C   UNL     1       3.823   5.673  19.126  0.00  0.00    +0.000 C 
BRANCH  16  17
ATOM     17  C   UNL     1       3.714   4.189  18.856  0.00  0.00    +0.000 A 
ATOM     18  C   UNL     1       4.416   3.234  19.599  0.00  0.00    +0.000 A 
ATOM     19  C   UNL     1       4.239   1.872  19.343  0.00  0.00    +0.000 A 
ATOM     20  C   UNL     1       3.354   1.452  18.352  0.00  0.00    +0.000 A 
ATOM     21  C   UNL     1       2.636   2.391  17.619  0.00  0.00    +0.000 A 
ATOM     22  C   UNL     1       2.809   3.751  17.874  0.00  0.00    +0.000 A 
ENDBRANCH  16  17
ENDBRANCH   1  16
TORSDOF 6
ENDMDL
