MODEL 1
REMARK VINA RESULT:      -7.8      0.000      0.000
REMARK  Name = 
REMARK  8 active torsions:
REMARK  status: ('A' for Active; 'I' for Inactive)
REMARK    1  A    between atoms: C_1  and  O_2
REMARK    2  A    between atoms: O_2  and  C_3
REMARK    3  A    between atoms: C_7  and  C_8
REMARK    4  A    between atoms: C_8  and  C_10
REMARK    5  A    between atoms: N_13  and  C_14
REMARK    6  A    between atoms: C_17  and  S_18
REMARK    7  A    between atoms: S_18  and  N_19
REMARK    8  A    between atoms: C_25  and  N_26
REMARK                            x       y       z     vdW  Elec       q    Type
REMARK                         _______ _______ _______ _____ _____    ______ ____
ROOT
ATOM      1  C   UNL     1       2.670   7.131  19.144  0.00  0.00    +0.000 A 
ATOM      2  S   UNL     1       2.535   8.092  17.717  0.00  0.00    +0.000 S 
ATOM      3  C   UNL     1       1.280   9.017  18.458  0.00  0.00    +0.000 A 
ATOM      4  N   UNL     1       0.575   9.926  17.739  0.00  0.00    +0.000 N 
ATOM      5  N   UNL     1       1.101   8.742  19.730  0.00  0.00    +0.000 NA
ATOM      6  C   UNL     1       1.870   7.691  20.115  0.00  0.00    +0.000 A 
ATOM      7  H   UNL     1       0.899  10.141  16.804  0.00  0.00    +0.000 HD
ENDROOT
BRANCH   4   8
ATOM      8  C   UNL     1      -0.746  10.347  18.009  0.00  0.00    +0.000 A 
ATOM      9  C   UNL     1      -1.044  11.433  18.850  0.00  0.00    +0.000 A 
ATOM     10  C   UNL     1      -2.349  11.894  19.020  0.00  0.00    +0.000 A 
ATOM     11  C   UNL     1      -3.384  11.275  18.329  0.00  0.00    +0.000 A 
ATOM     12  C   UNL     1      -3.132  10.172  17.511  0.00  0.00    +0.000 A 
ATOM     13  C   UNL     1      -1.815   9.721  17.347  0.00  0.00    +0.000 A 
BRANCH  11  14
ATOM     14  S   UNL     1      -5.017  11.930  18.475  0.00  0.00    +0.000 S 
ATOM     15  O   UNL     1      -5.963  10.842  18.518  0.00  0.00    +0.000 OA
ATOM     16  O   UNL     1      -5.022  12.999  19.444  0.00  0.00    +0.000 OA
BRANCH  14  17
ATOM     17  N   UNL     1      -5.205  12.655  16.974  0.00  0.00    +0.000 NA
ATOM     18  H   UNL     1      -5.789  12.077  16.371  0.00  0.00    +0.000 HD
ATOM     19  H   UNL     1      -5.527  13.617  17.081  0.00  0.00    +0.000 HD
ENDBRANCH  14  17
ENDBRANCH  11  14
ENDBRANCH   4   8
BRANCH   6  20
ATOM     20  N   UNL     1       1.709   7.304  21.387  0.00  0.00    +0.000 N 
ATOM     21  H   UNL     1       1.680   6.309  21.587  0.00  0.00    +0.000 HD
ATOM     22  H   UNL     1       1.380   7.895  22.141  0.00  0.00    +0.000 HD
ENDBRANCH   6  20
BRANCH   1  23
ATOM     23  C   UNL     1       3.516   5.953  19.137  0.00  0.00    +0.000 C 
ATOM     24  O   UNL     1       3.479   5.084  20.007  0.00  0.00    +0.000 OA
BRANCH  23  29
ATOM     25  C   UNL     1       6.571   6.373  16.911  0.00  0.00    +0.000 A 
ATOM     26  C   UNL     1       6.259   5.486  15.880  0.00  0.00    +0.000 A 
ATOM     27  C   UNL     1       5.092   4.720  15.933  0.00  0.00    +0.000 A 
ATOM     28  C   UNL     1       4.211   4.862  17.003  0.00  0.00    +0.000 A 
ATOM     29  C   UNL     1       4.502   5.766  18.030  0.00  0.00    +0.000 A 
ATOM     30  C   UNL     1       5.712   6.478  18.004  0.00  0.00    +0.000 A 
BRANCH  25  32
ATOM     31  C   UNL     1       7.917   8.213  17.592  0.00  0.00    +0.000 C 
ATOM     32  O   UNL     1       7.724   7.090  16.736  0.00  0.00    +0.000 OA
ENDBRANCH  25  32
ENDBRANCH  23  29
ENDBRANCH   1  23
TORSDOF 7
ENDMDL
MODEL 2
REMARK VINA RESULT:      -7.5      1.464      1.886
REMARK  Name = 
REMARK  8 active torsions:
REMARK  status: ('A' for Active; 'I' for Inactive)
REMARK    1  A    between atoms: C_1  and  O_2
REMARK    2  A    between atoms: O_2  and  C_3
REMARK    3  A    between atoms: C_7  and  C_8
REMARK    4  A    between atoms: C_8  and  C_10
REMARK    5  A    between atoms: N_13  and  C_14
REMARK    6  A    between atoms: C_17  and  S_18
REMARK    7  A    between atoms: S_18  and  N_19
REMARK    8  A    between atoms: C_25  and  N_26
REMARK                            x       y       z     vdW  Elec       q    Type
REMARK                         _______ _______ _______ _____ _____    ______ ____
ROOT
ATOM      1  C   UNL     1       2.789   6.618  18.596  0.00  0.00    +0.000 A 
ATOM      2  S   UNL     1       2.872   7.879  17.421  0.00  0.00    +0.000 S 
ATOM      3  C   UNL     1       1.952   8.906  18.460  0.00  0.00    +0.000 A 
ATOM      4  N   UNL     1       1.501  10.107  18.020  0.00  0.00    +0.000 N 
ATOM      5  N   UNL     1       1.754   8.406  19.658  0.00  0.00    +0.000 NA
ATOM      6  C   UNL     1       2.215   7.131  19.737  0.00  0.00    +0.000 A 
ATOM      7  H   UNL     1       1.835  10.437  17.123  0.00  0.00    +0.000 HD
ENDROOT
BRANCH   4   8
ATOM      8  C   UNL     1       0.360  10.787  18.502  0.00  0.00    +0.000 A 
ATOM      9  C   UNL     1      -0.952  10.411  18.164  0.00  0.00    +0.000 A 
ATOM     10  C   UNL     1      -2.063  11.032  18.734  0.00  0.00    +0.000 A 
ATOM     11  C   UNL     1      -1.873  12.039  19.674  0.00  0.00    +0.000 A 
ATOM     12  C   UNL     1      -0.586  12.461  20.009  0.00  0.00    +0.000 A 
ATOM     13  C   UNL     1       0.522  11.827  19.431  0.00  0.00    +0.000 A 
BRANCH  11  14
ATOM     14  S   UNL     1      -3.285  12.748  20.461  0.00  0.00    +0.000 S 
ATOM     15  O   UNL     1      -4.455  12.492  19.656  0.00  0.00    +0.000 OA
ATOM     16  O   UNL     1      -3.241  12.463  21.875  0.00  0.00    +0.000 OA
BRANCH  14  17
ATOM     17  N   UNL     1      -2.953  14.383  20.299  0.00  0.00    +0.000 NA
ATOM     18  H   UNL     1      -1.947  14.536  20.233  0.00  0.00    +0.000 HD
ATOM     19  H   UNL     1      -3.494  14.783  19.533  0.00  0.00    +0.000 HD
ENDBRANCH  14  17
ENDBRANCH  11  14
ENDBRANCH   4   8
BRANCH   6  20
ATOM     20  N   UNL     1       2.002   6.520  20.909  0.00  0.00    +0.000 N 
ATOM     21  H   UNL     1       1.196   5.910  20.995  0.00  0.00    +0.000 HD
ATOM     22  H   UNL     1       2.426   6.784  21.791  0.00  0.00    +0.000 HD
ENDBRANCH   6  20
BRANCH   1  23
ATOM     23  C   UNL     1       3.275   5.293  18.259  0.00  0.00    +0.000 C 
ATOM     24  O   UNL     1       2.728   4.254  18.627  0.00  0.00    +0.000 OA
BRANCH  23  29
ATOM     25  C   UNL     1       6.692   5.959  16.728  0.00  0.00    +0.000 A 
ATOM     26  C   UNL     1       6.746   4.941  15.775  0.00  0.00    +0.000 A 
ATOM     27  C   UNL     1       5.706   4.015  15.665  0.00  0.00    +0.000 A 
ATOM     28  C   UNL     1       4.586   4.123  16.488  0.00  0.00    +0.000 A 
ATOM     29  C   UNL     1       4.510   5.154  17.431  0.00  0.00    +0.000 A 
ATOM     30  C   UNL     1       5.592   6.035  17.581  0.00  0.00    +0.000 A 
BRANCH  25  32
ATOM     31  C   UNL     1       7.652   7.970  17.561  0.00  0.00    +0.000 C 
ATOM     32  O   UNL     1       7.753   6.823  16.722  0.00  0.00    +0.000 OA
ENDBRANCH  25  32
ENDBRANCH  23  29
ENDBRANCH   1  23
TORSDOF 7
ENDMDL
MODEL 3
REMARK VINA RESULT:      -7.5      1.556      2.259
REMARK  Name = 
REMARK  8 active torsions:
REMARK  status: ('A' for Active; 'I' for Inactive)
REMARK    1  A    between atoms: C_1  and  O_2
REMARK    2  A    between atoms: O_2  and  C_3
REMARK    3  A    between atoms: C_7  and  C_8
REMARK    4  A    between atoms: C_8  and  C_10
REMARK    5  A    between atoms: N_13  and  C_14
REMARK    6  A    between atoms: C_17  and  S_18
REMARK    7  A    between atoms: S_18  and  N_19
REMARK    8  A    between atoms: C_25  and  N_26
REMARK                            x       y       z     vdW  Elec       q    Type
REMARK                         _______ _______ _______ _____ _____    ______ ____
ROOT
ATOM      1  C   UNL     1       2.586   7.188  18.664  0.00  0.00    +0.000 A 
ATOM      2  S   UNL     1       2.645   8.507  17.554  0.00  0.00    +0.000 S 
ATOM      3  C   UNL     1       1.624   9.430  18.596  0.00  0.00    +0.000 A 
ATOM      4  N   UNL     1       1.123  10.624  18.191  0.00  0.00    +0.000 N 
ATOM      5  N   UNL     1       1.404   8.862  19.760  0.00  0.00    +0.000 NA
ATOM      6  C   UNL     1       1.934   7.612  19.801  0.00  0.00    +0.000 A 
ATOM      7  H   UNL     1       1.475  11.014  17.327  0.00  0.00    +0.000 HD
ENDROOT
BRANCH   4   8
ATOM      8  C   UNL     1      -0.075  11.214  18.652  0.00  0.00    +0.000 A 
ATOM      9  C   UNL     1      -1.346  10.803  18.217  0.00  0.00    +0.000 A 
ATOM     10  C   UNL     1      -2.515  11.330  18.762  0.00  0.00    +0.000 A 
ATOM     11  C   UNL     1      -2.427  12.277  19.776  0.00  0.00    +0.000 A 
ATOM     12  C   UNL     1      -1.182  12.735  20.211  0.00  0.00    +0.000 A 
ATOM     13  C   UNL     1      -0.015  12.195  19.656  0.00  0.00    +0.000 A 
BRANCH  11  14
ATOM     14  S   UNL     1      -3.913  12.863  20.527  0.00  0.00    +0.000 S 
ATOM     15  O   UNL     1      -5.032  12.556  19.670  0.00  0.00    +0.000 OA
ATOM     16  O   UNL     1      -3.902  12.537  21.933  0.00  0.00    +0.000 OA
BRANCH  14  17
ATOM     17  N   UNL     1      -3.688  14.522  20.427  0.00  0.00    +0.000 NA
ATOM     18  H   UNL     1      -4.583  15.006  20.483  0.00  0.00    +0.000 HD
ATOM     19  H   UNL     1      -2.995  14.829  21.110  0.00  0.00    +0.000 HD
ENDBRANCH  14  17
ENDBRANCH  11  14
ENDBRANCH   4   8
BRANCH   6  20
ATOM     20  N   UNL     1       1.708   6.935  20.933  0.00  0.00    +0.000 N 
ATOM     21  H   UNL     1       2.153   6.030  21.050  0.00  0.00    +0.000 HD
ATOM     22  H   UNL     1       0.956   7.121  21.586  0.00  0.00    +0.000 HD
ENDBRANCH   6  20
BRANCH   1  23
ATOM     23  C   UNL     1       3.161   5.910  18.290  0.00  0.00    +0.000 C 
ATOM     24  O   UNL     1       2.493   4.897  18.085  0.00  0.00    +0.000 OA
BRANCH  23  29
ATOM     25  C   UNL     1       6.639   5.691  16.766  0.00  0.00    +0.000 A 
ATOM     26  C   UNL     1       7.399   5.422  17.905  0.00  0.00    +0.000 A 
ATOM     27  C   UNL     1       6.796   5.363  19.164  0.00  0.00    +0.000 A 
ATOM     28  C   UNL     1       5.419   5.540  19.286  0.00  0.00    +0.000 A 
ATOM     29  C   UNL     1       4.643   5.787  18.148  0.00  0.00    +0.000 A 
ATOM     30  C   UNL     1       5.269   5.915  16.898  0.00  0.00    +0.000 A 
BRANCH  25  32
ATOM     31  C   UNL     1       6.890   4.790  14.580  0.00  0.00    +0.000 C 
ATOM     32  O   UNL     1       7.334   5.694  15.587  0.00  0.00    +0.000 OA
ENDBRANCH  25  32
ENDBRANCH  23  29
ENDBRANCH   1  23
TORSDOF 7
ENDMDL
MODEL 4
REMARK VINA RESULT:      -7.4      1.815      3.317
REMARK  Name = 
REMARK  8 active torsions:
REMARK  status: ('A' for Active; 'I' for Inactive)
REMARK    1  A    between atoms: C_1  and  O_2
REMARK    2  A    between atoms: O_2  and  C_3
REMARK    3  A    between atoms: C_7  and  C_8
REMARK    4  A    between atoms: C_8  and  C_10
REMARK    5  A    between atoms: N_13  and  C_14
REMARK    6  A    between atoms: C_17  and  S_18
REMARK    7  A    between atoms: S_18  and  N_19
REMARK    8  A    between atoms: C_25  and  N_26
REMARK                            x       y       z     vdW  Elec       q    Type
REMARK                         _______ _______ _______ _____ _____    ______ ____
ROOT
ATOM      1  C   UNL     1       2.632   7.382  18.940  0.00  0.00    +0.000 A 
ATOM      2  S   UNL     1       2.459   8.468  17.611  0.00  0.00    +0.000 S 
ATOM      3  C   UNL     1       1.193   9.291  18.448  0.00  0.00    +0.000 A 
ATOM      4  N   UNL     1       0.460  10.246  17.824  0.00  0.00    +0.000 N 
ATOM      5  N   UNL     1       1.036   8.895  19.691  0.00  0.00    +0.000 NA
ATOM      6  C   UNL     1       1.833   7.830  19.968  0.00  0.00    +0.000 A 
ATOM      7  H   UNL     1       0.767  10.555  16.911  0.00  0.00    +0.000 HD
ENDROOT
BRANCH   4   8
ATOM      8  C   UNL     1      -0.867  10.610  18.147  0.00  0.00    +0.000 A 
ATOM      9  C   UNL     1      -1.178  11.630  19.062  0.00  0.00    +0.000 A 
ATOM     10  C   UNL     1      -2.491  12.040  19.286  0.00  0.00    +0.000 A 
ATOM     11  C   UNL     1      -3.523  11.437  18.575  0.00  0.00    +0.000 A 
ATOM     12  C   UNL     1      -3.256  10.398  17.682  0.00  0.00    +0.000 A 
ATOM     13  C   UNL     1      -1.931   9.998  17.465  0.00  0.00    +0.000 A 
BRANCH  11  14
ATOM     14  S   UNL     1      -5.170  12.033  18.794  0.00  0.00    +0.000 S 
ATOM     15  O   UNL     1      -6.059  10.913  18.988  0.00  0.00    +0.000 OA
ATOM     16  O   UNL     1      -5.156  13.172  19.681  0.00  0.00    +0.000 OA
BRANCH  14  17
ATOM     17  N   UNL     1      -5.499  12.633  17.263  0.00  0.00    +0.000 NA
ATOM     18  H   UNL     1      -4.927  13.455  17.074  0.00  0.00    +0.000 HD
ATOM     19  H   UNL     1      -5.422  11.893  16.566  0.00  0.00    +0.000 HD
ENDBRANCH  14  17
ENDBRANCH  11  14
ENDBRANCH   4   8
BRANCH   6  20
ATOM     20  N   UNL     1       1.696   7.323  21.200  0.00  0.00    +0.000 N 
ATOM     21  H   UNL     1       0.767   7.293  21.608  0.00  0.00    +0.000 HD
ATOM     22  H   UNL     1       2.451   7.180  21.860  0.00  0.00    +0.000 HD
ENDBRANCH   6  20
BRANCH   1  23
ATOM     23  C   UNL     1       3.504   6.230  18.815  0.00  0.00    +0.000 C 
ATOM     24  O   UNL     1       4.732   6.303  18.811  0.00  0.00    +0.000 OA
BRANCH  23  29
ATOM     25  C   UNL     1       1.715   2.968  19.608  0.00  0.00    +0.000 A 
ATOM     26  C   UNL     1       1.909   2.275  18.412  0.00  0.00    +0.000 A 
ATOM     27  C   UNL     1       2.569   2.880  17.340  0.00  0.00    +0.000 A 
ATOM     28  C   UNL     1       3.071   4.173  17.470  0.00  0.00    +0.000 A 
ATOM     29  C   UNL     1       2.904   4.869  18.672  0.00  0.00    +0.000 A 
ATOM     30  C   UNL     1       2.177   4.279  19.718  0.00  0.00    +0.000 A 
BRANCH  25  32
ATOM     31  C   UNL     1       1.514   2.507  21.933  0.00  0.00    +0.000 C 
ATOM     32  O   UNL     1       1.083   2.264  20.596  0.00  0.00    +0.000 OA
ENDBRANCH  25  32
ENDBRANCH  23  29
ENDBRANCH   1  23
TORSDOF 7
ENDMDL
MODEL 5
REMARK VINA RESULT:      -7.4      1.640      2.221
REMARK  Name = 
REMARK  8 active torsions:
REMARK  status: ('A' for Active; 'I' for Inactive)
REMARK    1  A    between atoms: C_1  and  O_2
REMARK    2  A    between atoms: O_2  and  C_3
REMARK    3  A    between atoms: C_7  and  C_8
REMARK    4  A    between atoms: C_8  and  C_10
REMARK    5  A    between atoms: N_13  and  C_14
REMARK    6  A    between atoms: C_17  and  S_18
REMARK    7  A    between atoms: S_18  and  N_19
REMARK    8  A    between atoms: C_25  and  N_26
REMARK                            x       y       z     vdW  Elec       q    Type
REMARK                         _______ _______ _______ _____ _____    ______ ____
ROOT
ATOM      1  C   UNL     1       2.578   7.145  18.627  0.00  0.00    +0.000 A 
ATOM      2  S   UNL     1       2.525   8.501  17.561  0.00  0.00    +0.000 S 
ATOM      3  C   UNL     1       1.552   9.359  18.700  0.00  0.00    +0.000 A 
ATOM      4  N   UNL     1       0.991  10.549  18.372  0.00  0.00    +0.000 N 
ATOM      5  N   UNL     1       1.427   8.747  19.856  0.00  0.00    +0.000 NA
ATOM      6  C   UNL     1       1.994   7.513  19.819  0.00  0.00    +0.000 A 
ATOM      7  H   UNL     1       1.273  10.978  17.500  0.00  0.00    +0.000 HD
ENDROOT
BRANCH   4   8
ATOM      8  C   UNL     1      -0.189  11.088  18.932  0.00  0.00    +0.000 A 
ATOM      9  C   UNL     1      -0.177  12.028  19.977  0.00  0.00    +0.000 A 
ATOM     10  C   UNL     1      -1.349  12.622  20.443  0.00  0.00    +0.000 A 
ATOM     11  C   UNL     1      -2.562  12.291  19.850  0.00  0.00    +0.000 A 
ATOM     12  C   UNL     1      -2.617  11.338  18.833  0.00  0.00    +0.000 A 
ATOM     13  C   UNL     1      -1.431  10.750  18.372  0.00  0.00    +0.000 A 
BRANCH  11  14
ATOM     14  S   UNL     1      -4.025  13.124  20.382  0.00  0.00    +0.000 S 
ATOM     15  O   UNL     1      -3.710  14.501  20.671  0.00  0.00    +0.000 OA
ATOM     16  O   UNL     1      -5.129  12.744  19.533  0.00  0.00    +0.000 OA
BRANCH  14  17
ATOM     17  N   UNL     1      -4.294  12.383  21.862  0.00  0.00    +0.000 NA
ATOM     18  H   UNL     1      -4.529  13.078  22.569  0.00  0.00    +0.000 HD
ATOM     19  H   UNL     1      -4.973  11.629  21.765  0.00  0.00    +0.000 HD
ENDBRANCH  14  17
ENDBRANCH  11  14
ENDBRANCH   4   8
BRANCH   6  20
ATOM     20  N   UNL     1       1.864   6.793  20.940  0.00  0.00    +0.000 N 
ATOM     21  H   UNL     1       2.670   6.274  21.275  0.00  0.00    +0.000 HD
ATOM     22  H   UNL     1       0.983   6.521  21.362  0.00  0.00    +0.000 HD
ENDBRANCH   6  20
BRANCH   1  23
ATOM     23  C   UNL     1       3.161   5.898  18.172  0.00  0.00    +0.000 C 
ATOM     24  O   UNL     1       2.499   4.903  17.879  0.00  0.00    +0.000 OA
BRANCH  23  29
ATOM     25  C   UNL     1       6.663   5.714  16.697  0.00  0.00    +0.000 A 
ATOM     26  C   UNL     1       7.408   5.439  17.845  0.00  0.00    +0.000 A 
ATOM     27  C   UNL     1       6.786   5.365  19.094  0.00  0.00    +0.000 A 
ATOM     28  C   UNL     1       5.407   5.533  19.198  0.00  0.00    +0.000 A 
ATOM     29  C   UNL     1       4.646   5.785  18.051  0.00  0.00    +0.000 A 
ATOM     30  C   UNL     1       5.290   5.928  16.811  0.00  0.00    +0.000 A 
BRANCH  25  32
ATOM     31  C   UNL     1       6.952   4.833  14.507  0.00  0.00    +0.000 C 
ATOM     32  O   UNL     1       7.375   5.732  15.529  0.00  0.00    +0.000 OA
ENDBRANCH  25  32
ENDBRANCH  23  29
ENDBRANCH   1  23
TORSDOF 7
ENDMDL
MODEL 6
REMARK VINA RESULT:      -7.4      1.640      1.840
REMARK  Name = 
REMARK  8 active torsions:
REMARK  status: ('A' for Active; 'I' for Inactive)
REMARK    1  A    between atoms: C_1  and  O_2
REMARK    2  A    between atoms: O_2  and  C_3
REMARK    3  A    between atoms: C_7  and  C_8
REMARK    4  A    between atoms: C_8  and  C_10
REMARK    5  A    between atoms: N_13  and  C_14
REMARK    6  A    between atoms: C_17  and  S_18
REMARK    7  A    between atoms: S_18  and  N_19
REMARK    8  A    between atoms: C_25  and  N_26
REMARK                            x       y       z     vdW  Elec       q    Type
REMARK                         _______ _______ _______ _____ _____    ______ ____
ROOT
ATOM      1  C   UNL     1       2.816   6.398  18.518  0.00  0.00    +0.000 A 
ATOM      2  S   UNL     1       2.863   7.777  17.482  0.00  0.00    +0.000 S 
ATOM      3  C   UNL     1       2.017   8.699  18.671  0.00  0.00    +0.000 A 
ATOM      4  N   UNL     1       1.566   9.946  18.386  0.00  0.00    +0.000 N 
ATOM      5  N   UNL     1       1.870   8.076  19.818  0.00  0.00    +0.000 NA
ATOM      6  C   UNL     1       2.310   6.794  19.736  0.00  0.00    +0.000 A 
ATOM      7  H   UNL     1       1.861  10.366  17.513  0.00  0.00    +0.000 HD
ENDROOT
BRANCH   4   8
ATOM      8  C   UNL     1       0.465  10.586  18.997  0.00  0.00    +0.000 A 
ATOM      9  C   UNL     1       0.585  11.371  20.156  0.00  0.00    +0.000 A 
ATOM     10  C   UNL     1      -0.498  12.075  20.681  0.00  0.00    +0.000 A 
ATOM     11  C   UNL     1      -1.727  12.014  20.036  0.00  0.00    +0.000 A 
ATOM     12  C   UNL     1      -1.893  11.218  18.902  0.00  0.00    +0.000 A 
ATOM     13  C   UNL     1      -0.796  10.517  18.383  0.00  0.00    +0.000 A 
BRANCH  11  14
ATOM     14  S   UNL     1      -3.064  12.988  20.653  0.00  0.00    +0.000 S 
ATOM     15  O   UNL     1      -3.608  12.356  21.831  0.00  0.00    +0.000 OA
ATOM     16  O   UNL     1      -2.696  14.383  20.624  0.00  0.00    +0.000 OA
BRANCH  14  17
ATOM     17  N   UNL     1      -4.201  12.776  19.439  0.00  0.00    +0.000 NA
ATOM     18  H   UNL     1      -4.299  13.630  18.891  0.00  0.00    +0.000 HD
ATOM     19  H   UNL     1      -3.987  11.942  18.892  0.00  0.00    +0.000 HD
ENDBRANCH  14  17
ENDBRANCH  11  14
ENDBRANCH   4   8
BRANCH   6  20
ATOM     20  N   UNL     1       2.146   6.064  20.847  0.00  0.00    +0.000 N 
ATOM     21  H   UNL     1       2.750   6.253  21.641  0.00  0.00    +0.000 HD
ATOM     22  H   UNL     1       1.643   5.186  20.900  0.00  0.00    +0.000 HD
ENDBRANCH   6  20
BRANCH   1  23
ATOM     23  C   UNL     1       3.258   5.110  18.018  0.00  0.00    +0.000 C 
ATOM     24  O   UNL     1       2.644   4.061  18.203  0.00  0.00    +0.000 OA
BRANCH  23  29
ATOM     25  C   UNL     1       6.685   5.944  16.593  0.00  0.00    +0.000 A 
ATOM     26  C   UNL     1       6.838   4.904  15.675  0.00  0.00    +0.000 A 
ATOM     27  C   UNL     1       5.862   3.912  15.557  0.00  0.00    +0.000 A 
ATOM     28  C   UNL     1       4.707   3.973  16.334  0.00  0.00    +0.000 A 
ATOM     29  C   UNL     1       4.531   5.025  17.240  0.00  0.00    +0.000 A 
ATOM     30  C   UNL     1       5.550   5.977  17.402  0.00  0.00    +0.000 A 
BRANCH  25  32
ATOM     31  C   UNL     1       7.737   7.760  17.711  0.00  0.00    +0.000 C 
ATOM     32  O   UNL     1       7.690   6.872  16.598  0.00  0.00    +0.000 OA
ENDBRANCH  25  32
ENDBRANCH  23  29
ENDBRANCH   1  23
TORSDOF 7
ENDMDL
MODEL 7
REMARK VINA RESULT:      -7.4      3.195      9.138
REMARK  Name = 
REMARK  8 active torsions:
REMARK  status: ('A' for Active; 'I' for Inactive)
REMARK    1  A    between atoms: C_1  and  O_2
REMARK    2  A    between atoms: O_2  and  C_3
REMARK    3  A    between atoms: C_7  and  C_8
REMARK    4  A    between atoms: C_8  and  C_10
REMARK    5  A    between atoms: N_13  and  C_14
REMARK    6  A    between atoms: C_17  and  S_18
REMARK    7  A    between atoms: S_18  and  N_19
REMARK    8  A    between atoms: C_25  and  N_26
REMARK                            x       y       z     vdW  Elec       q    Type
REMARK                         _______ _______ _______ _____ _____    ______ ____
ROOT
ATOM      1  C   UNL     1      -0.083  10.413  19.820  0.00  0.00    +0.000 A 
ATOM      2  S   UNL     1      -0.115   9.400  21.217  0.00  0.00    +0.000 S 
ATOM      3  C   UNL     1       1.128   8.418  20.533  0.00  0.00    +0.000 A 
ATOM      4  N   UNL     1       1.490   7.252  21.124  0.00  0.00    +0.000 N 
ATOM      5  N   UNL     1       1.646   8.910  19.431  0.00  0.00    +0.000 NA
ATOM      6  C   UNL     1       0.972  10.019  19.028  0.00  0.00    +0.000 A 
ATOM      7  H   UNL     1       1.112   7.050  22.040  0.00  0.00    +0.000 HD
ENDROOT
BRANCH   4   8
ATOM      8  C   UNL     1       2.055   6.135  20.468  0.00  0.00    +0.000 A 
ATOM      9  C   UNL     1       1.623   4.817  20.696  0.00  0.00    +0.000 A 
ATOM     10  C   UNL     1       2.124   3.743  19.962  0.00  0.00    +0.000 A 
ATOM     11  C   UNL     1       3.064   3.979  18.965  0.00  0.00    +0.000 A 
ATOM     12  C   UNL     1       3.541   5.270  18.732  0.00  0.00    +0.000 A 
ATOM     13  C   UNL     1       3.028   6.341  19.476  0.00  0.00    +0.000 A 
BRANCH  11  14
ATOM     14  S   UNL     1       3.617   2.625  17.977  0.00  0.00    +0.000 S 
ATOM     15  O   UNL     1       2.476   1.848  17.556  0.00  0.00    +0.000 OA
ATOM     16  O   UNL     1       4.624   3.085  17.051  0.00  0.00    +0.000 OA
BRANCH  14  17
ATOM     17  N   UNL     1       4.418   1.699  19.123  0.00  0.00    +0.000 NA
ATOM     18  H   UNL     1       4.216   0.710  18.984  0.00  0.00    +0.000 HD
ATOM     19  H   UNL     1       5.411   1.932  19.138  0.00  0.00    +0.000 HD
ENDBRANCH  14  17
ENDBRANCH  11  14
ENDBRANCH   4   8
BRANCH   6  20
ATOM     20  N   UNL     1       1.397  10.557  17.878  0.00  0.00    +0.000 N 
ATOM     21  H   UNL     1       0.754  10.583  17.093  0.00  0.00    +0.000 HD
ATOM     22  H   UNL     1       2.366  10.729  17.636  0.00  0.00    +0.000 HD
ENDBRANCH   6  20
BRANCH   1  23
ATOM     23  C   UNL     1      -1.090  11.445  19.660  0.00  0.00    +0.000 C 
ATOM     24  O   UNL     1      -1.089  12.500  20.293  0.00  0.00    +0.000 OA
BRANCH  23  29
ATOM     25  C   UNL     1      -3.064  10.292  16.621  0.00  0.00    +0.000 A 
ATOM     26  C   UNL     1      -4.265  10.975  16.824  0.00  0.00    +0.000 A 
ATOM     27  C   UNL     1      -4.450  11.762  17.963  0.00  0.00    +0.000 A 
ATOM     28  C   UNL     1      -3.421  11.897  18.892  0.00  0.00    +0.000 A 
ATOM     29  C   UNL     1      -2.205  11.237  18.687  0.00  0.00    +0.000 A 
ATOM     30  C   UNL     1      -2.054  10.392  17.576  0.00  0.00    +0.000 A 
BRANCH  25  32
ATOM     31  C   UNL     1      -3.536  10.191  14.292  0.00  0.00    +0.000 C 
ATOM     32  O   UNL     1      -2.988   9.578  15.456  0.00  0.00    +0.000 OA
ENDBRANCH  25  32
ENDBRANCH  23  29
ENDBRANCH   1  23
TORSDOF 7
ENDMDL
MODEL 8
REMARK VINA RESULT:      -7.4      1.947      2.449
REMARK  Name = 
REMARK  8 active torsions:
REMARK  status: ('A' for Active; 'I' for Inactive)
REMARK    1  A    between atoms: C_1  and  O_2
REMARK    2  A    between atoms: O_2  and  C_3
REMARK    3  A    between atoms: C_7  and  C_8
REMARK    4  A    between atoms: C_8  and  C_10
REMARK    5  A    between atoms: N_13  and  C_14
REMARK    6  A    between atoms: C_17  and  S_18
REMARK    7  A    between atoms: S_18  and  N_19
REMARK    8  A    between atoms: C_25  and  N_26
REMARK                            x       y       z     vdW  Elec       q    Type
REMARK                         _______ _______ _______ _____ _____    ______ ____
ROOT
ATOM      1  C   UNL     1       2.917   6.092  18.758  0.00  0.00    +0.000 A 
ATOM      2  S   UNL     1       3.056   7.465  17.723  0.00  0.00    +0.000 S 
ATOM      3  C   UNL     1       2.119   8.397  18.833  0.00  0.00    +0.000 A 
ATOM      4  N   UNL     1       1.700   9.645  18.505  0.00  0.00    +0.000 N 
ATOM      5  N   UNL     1       1.873   7.780  19.966  0.00  0.00    +0.000 NA
ATOM      6  C   UNL     1       2.312   6.496  19.928  0.00  0.00    +0.000 A 
ATOM      7  H   UNL     1       2.068  10.059  17.658  0.00  0.00    +0.000 HD
ENDROOT
BRANCH   4   8
ATOM      8  C   UNL     1       0.554  10.292  19.019  0.00  0.00    +0.000 A 
ATOM      9  C   UNL     1       0.594  11.139  20.140  0.00  0.00    +0.000 A 
ATOM     10  C   UNL     1      -0.529  11.847  20.566  0.00  0.00    +0.000 A 
ATOM     11  C   UNL     1      -1.718  11.727  19.856  0.00  0.00    +0.000 A 
ATOM     12  C   UNL     1      -1.806  10.870  18.758  0.00  0.00    +0.000 A 
ATOM     13  C   UNL     1      -0.669  10.166  18.339  0.00  0.00    +0.000 A 
BRANCH  11  14
ATOM     14  S   UNL     1      -3.105  12.704  20.346  0.00  0.00    +0.000 S 
ATOM     15  O   UNL     1      -4.192  12.481  19.424  0.00  0.00    +0.000 OA
ATOM     16  O   UNL     1      -3.273  12.617  21.776  0.00  0.00    +0.000 OA
BRANCH  14  17
ATOM     17  N   UNL     1      -2.533  14.249  20.032  0.00  0.00    +0.000 NA
ATOM     18  H   UNL     1      -2.606  14.459  19.038  0.00  0.00    +0.000 HD
ATOM     19  H   UNL     1      -2.986  14.928  20.644  0.00  0.00    +0.000 HD
ENDBRANCH  14  17
ENDBRANCH  11  14
ENDBRANCH   4   8
BRANCH   6  20
ATOM     20  N   UNL     1       2.052   5.772  21.024  0.00  0.00    +0.000 N 
ATOM     21  H   UNL     1       2.080   6.238  21.926  0.00  0.00    +0.000 HD
ATOM     22  H   UNL     1       2.061   4.760  21.072  0.00  0.00    +0.000 HD
ENDBRANCH   6  20
BRANCH   1  23
ATOM     23  C   UNL     1       3.393   4.800  18.302  0.00  0.00    +0.000 C 
ATOM     24  O   UNL     1       2.752   3.756  18.425  0.00  0.00    +0.000 OA
BRANCH  23  29
ATOM     25  C   UNL     1       6.125   4.200  15.725  0.00  0.00    +0.000 A 
ATOM     26  C   UNL     1       7.262   4.398  16.510  0.00  0.00    +0.000 A 
ATOM     27  C   UNL     1       7.143   4.773  17.850  0.00  0.00    +0.000 A 
ATOM     28  C   UNL     1       5.882   4.920  18.425  0.00  0.00    +0.000 A 
ATOM     29  C   UNL     1       4.735   4.701  17.654  0.00  0.00    +0.000 A 
ATOM     30  C   UNL     1       4.866   4.394  16.290  0.00  0.00    +0.000 A 
BRANCH  25  32
ATOM     31  C   UNL     1       7.123   4.697  13.624  0.00  0.00    +0.000 C 
ATOM     32  O   UNL     1       6.365   3.805  14.437  0.00  0.00    +0.000 OA
ENDBRANCH  25  32
ENDBRANCH  23  29
ENDBRANCH   1  23
TORSDOF 7
ENDMDL
MODEL 9
REMARK VINA RESULT:      -7.3      3.097      9.435
REMARK  Name = 
REMARK  8 active torsions:
REMARK  status: ('A' for Active; 'I' for Inactive)
REMARK    1  A    between atoms: C_1  and  O_2
REMARK    2  A    between atoms: O_2  and  C_3
REMARK    3  A    between atoms: C_7  and  C_8
REMARK    4  A    between atoms: C_8  and  C_10
REMARK    5  A    between atoms: N_13  and  C_14
REMARK    6  A    between atoms: C_17  and  S_18
REMARK    7  A    between atoms: S_18  and  N_19
REMARK    8  A    between atoms: C_25  and  N_26
REMARK                            x       y       z     vdW  Elec       q    Type
REMARK                         _______ _______ _______ _____ _____    ______ ____
ROOT
ATOM      1  C   UNL     1       0.164  10.404  19.703  0.00  0.00    +0.000 A 
ATOM      2  S   UNL     1       0.088   9.456  21.142  0.00  0.00    +0.000 S 
ATOM      3  C   UNL     1       1.262   8.371  20.491  0.00  0.00    +0.000 A 
ATOM      4  N   UNL     1       1.560   7.212  21.128  0.00  0.00    +0.000 N 
ATOM      5  N   UNL     1       1.796   8.785  19.364  0.00  0.00    +0.000 NA
ATOM      6  C   UNL     1       1.186   9.914  18.920  0.00  0.00    +0.000 A 
ATOM      7  H   UNL     1       1.180   7.072  22.055  0.00  0.00    +0.000 HD
ENDROOT
BRANCH   4   8
ATOM      8  C   UNL     1       2.049   6.036  20.516  0.00  0.00    +0.000 A 
ATOM      9  C   UNL     1       1.344   4.820  20.526  0.00  0.00    +0.000 A 
ATOM     10  C   UNL     1       1.798   3.702  19.828  0.00  0.00    +0.000 A 
ATOM     11  C   UNL     1       2.971   3.793  19.087  0.00  0.00    +0.000 A 
ATOM     12  C   UNL     1       3.716   4.973  19.080  0.00  0.00    +0.000 A 
ATOM     13  C   UNL     1       3.246   6.090  19.784  0.00  0.00    +0.000 A 
BRANCH  11  14
ATOM     14  S   UNL     1       3.483   2.401  18.128  0.00  0.00    +0.000 S 
ATOM     15  O   UNL     1       4.292   2.858  17.024  0.00  0.00    +0.000 OA
ATOM     16  O   UNL     1       3.904   1.339  19.009  0.00  0.00    +0.000 OA
BRANCH  14  17
ATOM     17  N   UNL     1       2.020   1.914  17.468  0.00  0.00    +0.000 NA
ATOM     18  H   UNL     1       2.151   1.083  16.892  0.00  0.00    +0.000 HD
ATOM     19  H   UNL     1       1.314   1.818  18.198  0.00  0.00    +0.000 HD
ENDBRANCH  14  17
ENDBRANCH  11  14
ENDBRANCH   4   8
BRANCH   6  20
ATOM     20  N   UNL     1       1.629  10.376  17.744  0.00  0.00    +0.000 N 
ATOM     21  H   UNL     1       0.995  10.925  17.173  0.00  0.00    +0.000 HD
ATOM     22  H   UNL     1       2.452  10.041  17.257  0.00  0.00    +0.000 HD
ENDBRANCH   6  20
BRANCH   1  23
ATOM     23  C   UNL     1      -0.780  11.488  19.507  0.00  0.00    +0.000 C 
ATOM     24  O   UNL     1      -0.596  12.633  19.917  0.00  0.00    +0.000 OA
BRANCH  23  29
ATOM     25  C   UNL     1      -4.415  11.676  18.406  0.00  0.00    +0.000 A 
ATOM     26  C   UNL     1      -4.461  10.616  17.499  0.00  0.00    +0.000 A 
ATOM     27  C   UNL     1      -3.310   9.879  17.209  0.00  0.00    +0.000 A 
ATOM     28  C   UNL     1      -2.111  10.178  17.852  0.00  0.00    +0.000 A 
ATOM     29  C   UNL     1      -2.058  11.223  18.780  0.00  0.00    +0.000 A 
ATOM     30  C   UNL     1      -3.203  12.002  19.011  0.00  0.00    +0.000 A 
BRANCH  25  32
ATOM     31  C   UNL     1      -6.742  11.799  17.929  0.00  0.00    +0.000 C 
ATOM     32  O   UNL     1      -5.610  12.303  18.632  0.00  0.00    +0.000 OA
ENDBRANCH  25  32
ENDBRANCH  23  29
ENDBRANCH   1  23
TORSDOF 7
ENDMDL
