MODEL 1
REMARK VINA RESULT:      -8.0      0.000      0.000
REMARK  Name = 
REMARK  5 active torsions:
REMARK  status: ('A' for Active; 'I' for Inactive)
REMARK    1  A    between atoms: C_5  and  O_6
REMARK    2  A    between atoms: O_6  and  C_7
REMARK    3  A    between atoms: C_7  and  C_8
REMARK    4  A    between atoms: C_8  and  C_9
REMARK    5  A    between atoms: C_9  and  N_10
REMARK                            x       y       z     vdW  Elec       q    Type
REMARK                         _______ _______ _______ _____ _____    ______ ____
ROOT
ATOM      1  N   UNL     1       3.128   6.254  18.192  0.00  0.00    +0.000 N 
ATOM      2  C   UNL     1       2.727   4.958  18.457  0.00  0.00    +0.000 A 
ATOM      3  C   UNL     1       3.914   4.297  18.724  0.00  0.00    +0.000 A 
ATOM      4  C   UNL     1       4.890   5.295  18.985  0.00  0.00    +0.000 A 
ATOM      5  C   UNL     1       6.227   5.285  19.392  0.00  0.00    +0.000 A 
ATOM      6  C   UNL     1       7.166   5.852  18.530  0.00  0.00    +0.000 A 
ATOM      7  C   UNL     1       6.762   6.329  17.279  0.00  0.00    +0.000 A 
ATOM      8  C   UNL     1       5.405   6.525  16.985  0.00  0.00    +0.000 A 
ATOM      9 CL   UNL     1       4.892   6.871  15.385  0.00  0.00    +0.000 Cl
ATOM     10  C   UNL     1       4.498   6.186  17.991  0.00  0.00    +0.000 A 
ATOM     11  C   UNL     1       4.110   2.897  18.269  0.00  0.00    +0.000 C 
ATOM     12  C   UNL     1       2.852   2.382  17.521  0.00  0.00    +0.000 C 
ATOM     13  N   UNL     1       1.541   2.856  18.016  0.00  0.00    +0.000 NA
ATOM     14  C   UNL     1       1.421   4.326  18.142  0.00  0.00    +0.000 C 
ATOM     15  H   UNL     1       1.381   2.439  18.929  0.00  0.00    +0.000 HD
ENDROOT
BRANCH   1  16
ATOM     16  C   UNL     1       2.468   7.481  18.618  0.00  0.00    +0.000 C 
BRANCH  16  17
ATOM     17  C   UNL     1       2.552   8.667  17.636  0.00  0.00    +0.000 C 
BRANCH  17  18
ATOM     18  C   UNL     1       1.799   9.959  17.997  0.00  0.00    +0.000 C 
BRANCH  18  19
ATOM     19  O   UNL     1       0.744   9.699  18.925  0.00  0.00    +0.000 OA
BRANCH  19  24
ATOM     20 CL   UNL     1      -4.592  11.874  17.678  0.00  0.00    +0.000 Cl
ATOM     21  C   UNL     1      -3.030  11.235  17.997  0.00  0.00    +0.000 A 
ATOM     22  C   UNL     1      -2.303  11.679  19.096  0.00  0.00    +0.000 A 
ATOM     23  C   UNL     1      -1.036  11.141  19.354  0.00  0.00    +0.000 A 
ATOM     24  C   UNL     1      -0.483  10.149  18.546  0.00  0.00    +0.000 A 
ATOM     25  C   UNL     1      -1.211   9.744  17.409  0.00  0.00    +0.000 A 
ATOM     26  C   UNL     1      -2.471  10.290  17.140  0.00  0.00    +0.000 A 
ENDBRANCH  19  24
ENDBRANCH  18  19
ENDBRANCH  17  18
ENDBRANCH  16  17
ENDBRANCH   1  16
TORSDOF 5
ENDMDL
MODEL 2
REMARK VINA RESULT:      -7.8      1.604      2.014
REMARK  Name = 
REMARK  5 active torsions:
REMARK  status: ('A' for Active; 'I' for Inactive)
REMARK    1  A    between atoms: C_5  and  O_6
REMARK    2  A    between atoms: O_6  and  C_7
REMARK    3  A    between atoms: C_7  and  C_8
REMARK    4  A    between atoms: C_8  and  C_9
REMARK    5  A    between atoms: C_9  and  N_10
REMARK                            x       y       z     vdW  Elec       q    Type
REMARK                         _______ _______ _______ _____ _____    ______ ____
ROOT
ATOM      1  N   UNL     1       3.224   6.171  18.243  0.00  0.00    +0.000 N 
ATOM      2  C   UNL     1       2.817   4.876  18.509  0.00  0.00    +0.000 A 
ATOM      3  C   UNL     1       4.003   4.206  18.757  0.00  0.00    +0.000 A 
ATOM      4  C   UNL     1       4.989   5.196  19.009  0.00  0.00    +0.000 A 
ATOM      5  C   UNL     1       6.332   5.175  19.398  0.00  0.00    +0.000 A 
ATOM      6  C   UNL     1       7.263   5.739  18.525  0.00  0.00    +0.000 A 
ATOM      7  C   UNL     1       6.846   6.224  17.282  0.00  0.00    +0.000 A 
ATOM      8  C   UNL     1       5.486   6.431  17.008  0.00  0.00    +0.000 A 
ATOM      9 CL   UNL     1       4.954   6.787  15.416  0.00  0.00    +0.000 Cl
ATOM     10  C   UNL     1       4.590   6.094  18.024  0.00  0.00    +0.000 A 
ATOM     11  C   UNL     1       4.182   2.807  18.294  0.00  0.00    +0.000 C 
ATOM     12  C   UNL     1       2.911   2.304  17.560  0.00  0.00    +0.000 C 
ATOM     13  N   UNL     1       1.610   2.785  18.075  0.00  0.00    +0.000 NA
ATOM     14  C   UNL     1       1.503   4.255  18.209  0.00  0.00    +0.000 C 
ATOM     15  H   UNL     1       1.459   2.366  18.989  0.00  0.00    +0.000 HD
ENDROOT
BRANCH   1  16
ATOM     16  C   UNL     1       2.579   7.401  18.684  0.00  0.00    +0.000 C 
BRANCH  16  17
ATOM     17  C   UNL     1       2.262   8.429  17.578  0.00  0.00    +0.000 C 
BRANCH  17  18
ATOM     18  C   UNL     1       1.759   9.818  18.006  0.00  0.00    +0.000 C 
BRANCH  18  19
ATOM     19  O   UNL     1       0.342   9.823  18.183  0.00  0.00    +0.000 OA
BRANCH  19  24
ATOM     20 CL   UNL     1      -1.677  12.110  23.228  0.00  0.00    +0.000 Cl
ATOM     21  C   UNL     1      -1.091  11.402  21.776  0.00  0.00    +0.000 A 
ATOM     22  C   UNL     1      -1.387  11.980  20.547  0.00  0.00    +0.000 A 
ATOM     23  C   UNL     1      -0.893  11.403  19.371  0.00  0.00    +0.000 A 
ATOM     24  C   UNL     1      -0.088  10.265  19.396  0.00  0.00    +0.000 A 
ATOM     25  C   UNL     1       0.163   9.664  20.646  0.00  0.00    +0.000 A 
ATOM     26  C   UNL     1      -0.341  10.230  21.821  0.00  0.00    +0.000 A 
ENDBRANCH  19  24
ENDBRANCH  18  19
ENDBRANCH  17  18
ENDBRANCH  16  17
ENDBRANCH   1  16
TORSDOF 5
ENDMDL
MODEL 3
REMARK VINA RESULT:      -7.7      0.739      1.225
REMARK  Name = 
REMARK  5 active torsions:
REMARK  status: ('A' for Active; 'I' for Inactive)
REMARK    1  A    between atoms: C_5  and  O_6
REMARK    2  A    between atoms: O_6  and  C_7
REMARK    3  A    between atoms: C_7  and  C_8
REMARK    4  A    between atoms: C_8  and  C_9
REMARK    5  A    between atoms: C_9  and  N_10
REMARK                            x       y       z     vdW  Elec       q    Type
REMARK                         _______ _______ _______ _____ _____    ______ ____
ROOT
ATOM      1  N   UNL     1       3.755   6.258  17.588  0.00  0.00    +0.000 N 
ATOM      2  C   UNL     1       3.093   5.253  18.269  0.00  0.00    +0.000 A 
ATOM      3  C   UNL     1       4.111   4.565  18.906  0.00  0.00    +0.000 A 
ATOM      4  C   UNL     1       5.252   5.410  18.890  0.00  0.00    +0.000 A 
ATOM      5  C   UNL     1       6.539   5.340  19.429  0.00  0.00    +0.000 A 
ATOM      6  C   UNL     1       7.612   5.363  18.538  0.00  0.00    +0.000 A 
ATOM      7  C   UNL     1       7.372   5.373  17.160  0.00  0.00    +0.000 A 
ATOM      8  C   UNL     1       6.096   5.658  16.653  0.00  0.00    +0.000 A 
ATOM      9 CL   UNL     1       5.739   5.430  14.990  0.00  0.00    +0.000 Cl
ATOM     10  C   UNL     1       5.092   5.892  17.594  0.00  0.00    +0.000 A 
ATOM     11  C   UNL     1       4.047   3.087  19.036  0.00  0.00    +0.000 C 
ATOM     12  C   UNL     1       2.749   2.534  18.389  0.00  0.00    +0.000 C 
ATOM     13  N   UNL     1       1.536   3.372  18.508  0.00  0.00    +0.000 NA
ATOM     14  C   UNL     1       1.704   4.772  18.059  0.00  0.00    +0.000 C 
ATOM     15  H   UNL     1       1.253   3.378  19.485  0.00  0.00    +0.000 HD
ENDROOT
BRANCH   1  16
ATOM     16  C   UNL     1       3.332   7.644  17.440  0.00  0.00    +0.000 C 
BRANCH  16  17
ATOM     17  C   UNL     1       2.169   8.094  18.348  0.00  0.00    +0.000 C 
BRANCH  17  18
ATOM     18  C   UNL     1       1.325   9.298  17.897  0.00  0.00    +0.000 C 
BRANCH  18  19
ATOM     19  O   UNL     1       0.638   9.890  19.000  0.00  0.00    +0.000 OA
BRANCH  19  24
ATOM     20 CL   UNL     1      -4.660  11.878  17.348  0.00  0.00    +0.000 Cl
ATOM     21  C   UNL     1      -3.128  11.304  17.873  0.00  0.00    +0.000 A 
ATOM     22  C   UNL     1      -2.447  10.348  17.128  0.00  0.00    +0.000 A 
ATOM     23  C   UNL     1      -1.193   9.898  17.557  0.00  0.00    +0.000 A 
ATOM     24  C   UNL     1      -0.591  10.398  18.711  0.00  0.00    +0.000 A 
ATOM     25  C   UNL     1      -1.316  11.330  19.480  0.00  0.00    +0.000 A 
ATOM     26  C   UNL     1      -2.575  11.771  19.061  0.00  0.00    +0.000 A 
ENDBRANCH  19  24
ENDBRANCH  18  19
ENDBRANCH  17  18
ENDBRANCH  16  17
ENDBRANCH   1  16
TORSDOF 5
ENDMDL
MODEL 4
REMARK VINA RESULT:      -7.7      2.179      2.644
REMARK  Name = 
REMARK  5 active torsions:
REMARK  status: ('A' for Active; 'I' for Inactive)
REMARK    1  A    between atoms: C_5  and  O_6
REMARK    2  A    between atoms: O_6  and  C_7
REMARK    3  A    between atoms: C_7  and  C_8
REMARK    4  A    between atoms: C_8  and  C_9
REMARK    5  A    between atoms: C_9  and  N_10
REMARK                            x       y       z     vdW  Elec       q    Type
REMARK                         _______ _______ _______ _____ _____    ______ ____
ROOT
ATOM      1  N   UNL     1       3.193   5.251  17.699  0.00  0.00    +0.000 N 
ATOM      2  C   UNL     1       2.935   4.092  18.409  0.00  0.00    +0.000 A 
ATOM      3  C   UNL     1       4.148   3.801  19.010  0.00  0.00    +0.000 A 
ATOM      4  C   UNL     1       4.931   4.983  18.947  0.00  0.00    +0.000 A 
ATOM      5  C   UNL     1       6.184   5.364  19.438  0.00  0.00    +0.000 A 
ATOM      6  C   UNL     1       7.154   5.735  18.507  0.00  0.00    +0.000 A 
ATOM      7  C   UNL     1       6.878   5.640  17.140  0.00  0.00    +0.000 A 
ATOM      8  C   UNL     1       5.564   5.467  16.679  0.00  0.00    +0.000 A 
ATOM      9 CL   UNL     1       5.250   5.104  15.032  0.00  0.00    +0.000 Cl
ATOM     10  C   UNL     1       4.573   5.362  17.657  0.00  0.00    +0.000 A 
ATOM     11  C   UNL     1       4.594   2.392  19.147  0.00  0.00    +0.000 C 
ATOM     12  C   UNL     1       3.541   1.420  18.551  0.00  0.00    +0.000 C 
ATOM     13  N   UNL     1       2.120   1.798  18.712  0.00  0.00    +0.000 NA
ATOM     14  C   UNL     1       1.786   3.165  18.252  0.00  0.00    +0.000 C 
ATOM     15  H   UNL     1       1.885   1.724  19.699  0.00  0.00    +0.000 HD
ENDROOT
BRANCH   1  16
ATOM     16  C   UNL     1       2.318   6.409  17.562  0.00  0.00    +0.000 C 
BRANCH  16  17
ATOM     17  C   UNL     1       2.914   7.759  18.009  0.00  0.00    +0.000 C 
BRANCH  17  18
ATOM     18  C   UNL     1       2.011   8.720  18.802  0.00  0.00    +0.000 C 
BRANCH  18  19
ATOM     19  O   UNL     1       1.657   8.168  20.070  0.00  0.00    +0.000 OA
BRANCH  19  24
ATOM     20 CL   UNL     1      -1.682  11.935  23.139  0.00  0.00    +0.000 Cl
ATOM     21  C   UNL     1      -0.718  10.805  22.276  0.00  0.00    +0.000 A 
ATOM     22  C   UNL     1      -0.617  10.886  20.891  0.00  0.00    +0.000 A 
ATOM     23  C   UNL     1       0.182   9.969  20.198  0.00  0.00    +0.000 A 
ATOM     24  C   UNL     1       0.903   8.977  20.863  0.00  0.00    +0.000 A 
ATOM     25  C   UNL     1       0.752   8.879  22.261  0.00  0.00    +0.000 A 
ATOM     26  C   UNL     1      -0.057   9.785  22.954  0.00  0.00    +0.000 A 
ENDBRANCH  19  24
ENDBRANCH  18  19
ENDBRANCH  17  18
ENDBRANCH  16  17
ENDBRANCH   1  16
TORSDOF 5
ENDMDL
MODEL 5
REMARK VINA RESULT:      -7.7      1.953      2.469
REMARK  Name = 
REMARK  5 active torsions:
REMARK  status: ('A' for Active; 'I' for Inactive)
REMARK    1  A    between atoms: C_5  and  O_6
REMARK    2  A    between atoms: O_6  and  C_7
REMARK    3  A    between atoms: C_7  and  C_8
REMARK    4  A    between atoms: C_8  and  C_9
REMARK    5  A    between atoms: C_9  and  N_10
REMARK                            x       y       z     vdW  Elec       q    Type
REMARK                         _______ _______ _______ _____ _____    ______ ____
ROOT
ATOM      1  N   UNL     1       3.315   6.221  17.972  0.00  0.00    +0.000 N 
ATOM      2  C   UNL     1       2.866   4.963  18.332  0.00  0.00    +0.000 A 
ATOM      3  C   UNL     1       4.024   4.295  18.695  0.00  0.00    +0.000 A 
ATOM      4  C   UNL     1       5.020   5.284  18.903  0.00  0.00    +0.000 A 
ATOM      5  C   UNL     1       6.343   5.272  19.355  0.00  0.00    +0.000 A 
ATOM      6  C   UNL     1       7.326   5.737  18.480  0.00  0.00    +0.000 A 
ATOM      7  C   UNL     1       6.976   6.116  17.180  0.00  0.00    +0.000 A 
ATOM      8  C   UNL     1       5.636   6.324  16.825  0.00  0.00    +0.000 A 
ATOM      9 CL   UNL     1       5.184   6.546  15.184  0.00  0.00    +0.000 Cl
ATOM     10  C   UNL     1       4.687   6.097  17.824  0.00  0.00    +0.000 A 
ATOM     11  C   UNL     1       4.190   2.857  18.367  0.00  0.00    +0.000 C 
ATOM     12  C   UNL     1       2.941   2.314  17.622  0.00  0.00    +0.000 C 
ATOM     13  N   UNL     1       1.630   2.866  18.030  0.00  0.00    +0.000 NA
ATOM     14  C   UNL     1       1.552   4.344  18.028  0.00  0.00    +0.000 C 
ATOM     15  H   UNL     1       1.429   2.533  18.970  0.00  0.00    +0.000 HD
ENDROOT
BRANCH   1  16
ATOM     16  C   UNL     1       2.680   7.498  18.270  0.00  0.00    +0.000 C 
BRANCH  16  17
ATOM     17  C   UNL     1       2.146   7.664  19.708  0.00  0.00    +0.000 C 
BRANCH  17  18
ATOM     18  C   UNL     1       1.147   8.802  19.979  0.00  0.00    +0.000 C 
BRANCH  18  19
ATOM     19  O   UNL     1       0.879   8.933  21.376  0.00  0.00    +0.000 OA
BRANCH  19  24
ATOM     20 CL   UNL     1      -2.841  13.390  22.399  0.00  0.00    +0.000 Cl
ATOM     21  C   UNL     1      -1.779  12.067  22.133  0.00  0.00    +0.000 A 
ATOM     22  C   UNL     1      -1.249  11.838  20.868  0.00  0.00    +0.000 A 
ATOM     23  C   UNL     1      -0.373  10.765  20.664  0.00  0.00    +0.000 A 
ATOM     24  C   UNL     1       0.005   9.920  21.708  0.00  0.00    +0.000 A 
ATOM     25  C   UNL     1      -0.578  10.137  22.973  0.00  0.00    +0.000 A 
ATOM     26  C   UNL     1      -1.465  11.199  23.175  0.00  0.00    +0.000 A 
ENDBRANCH  19  24
ENDBRANCH  18  19
ENDBRANCH  17  18
ENDBRANCH  16  17
ENDBRANCH   1  16
TORSDOF 5
ENDMDL
MODEL 6
REMARK VINA RESULT:      -7.7      1.950      3.605
REMARK  Name = 
REMARK  5 active torsions:
REMARK  status: ('A' for Active; 'I' for Inactive)
REMARK    1  A    between atoms: C_5  and  O_6
REMARK    2  A    between atoms: O_6  and  C_7
REMARK    3  A    between atoms: C_7  and  C_8
REMARK    4  A    between atoms: C_8  and  C_9
REMARK    5  A    between atoms: C_9  and  N_10
REMARK                            x       y       z     vdW  Elec       q    Type
REMARK                         _______ _______ _______ _____ _____    ______ ____
ROOT
ATOM      1  N   UNL     1       2.873   6.279  18.921  0.00  0.00    +0.000 N 
ATOM      2  C   UNL     1       3.875   6.010  18.006  0.00  0.00    +0.000 A 
ATOM      3  C   UNL     1       3.525   4.771  17.495  0.00  0.00    +0.000 A 
ATOM      4  C   UNL     1       2.165   4.555  17.835  0.00  0.00    +0.000 A 
ATOM      5  C   UNL     1       1.221   3.565  17.548  0.00  0.00    +0.000 A 
ATOM      6  C   UNL     1       0.677   2.863  18.625  0.00  0.00    +0.000 A 
ATOM      7  C   UNL     1       1.140   3.110  19.920  0.00  0.00    +0.000 A 
ATOM      8  C   UNL     1       1.917   4.242  20.206  0.00  0.00    +0.000 A 
ATOM      9 CL   UNL     1       2.690   4.419  21.727  0.00  0.00    +0.000 Cl
ATOM     10  C   UNL     1       2.223   5.072  19.125  0.00  0.00    +0.000 A 
ATOM     11  C   UNL     1       4.576   3.773  17.172  0.00  0.00    +0.000 C 
ATOM     12  C   UNL     1       5.987   4.339  17.485  0.00  0.00    +0.000 C 
ATOM     13  N   UNL     1       6.195   5.783  17.241  0.00  0.00    +0.000 NA
ATOM     14  C   UNL     1       5.199   6.669  17.885  0.00  0.00    +0.000 C 
ATOM     15  H   UNL     1       6.164   5.940  16.236  0.00  0.00    +0.000 HD
ENDROOT
BRANCH   1  16
ATOM     16  C   UNL     1       2.221   7.560  19.156  0.00  0.00    +0.000 C 
BRANCH  16  17
ATOM     17  C   UNL     1       1.942   8.414  17.902  0.00  0.00    +0.000 C 
BRANCH  17  18
ATOM     18  C   UNL     1       1.392   9.836  18.104  0.00  0.00    +0.000 C 
BRANCH  18  19
ATOM     19  O   UNL     1       0.341   9.851  19.071  0.00  0.00    +0.000 OA
BRANCH  19  24
ATOM     20 CL   UNL     1      -4.725  11.829  16.795  0.00  0.00    +0.000 Cl
ATOM     21  C   UNL     1      -3.264  11.262  17.500  0.00  0.00    +0.000 A 
ATOM     22  C   UNL     1      -2.551  10.232  16.898  0.00  0.00    +0.000 A 
ATOM     23  C   UNL     1      -1.355   9.787  17.473  0.00  0.00    +0.000 A 
ATOM     24  C   UNL     1      -0.840  10.364  18.634  0.00  0.00    +0.000 A 
ATOM     25  C   UNL     1      -1.600  11.375  19.258  0.00  0.00    +0.000 A 
ATOM     26  C   UNL     1      -2.802  11.811  18.693  0.00  0.00    +0.000 A 
ENDBRANCH  19  24
ENDBRANCH  18  19
ENDBRANCH  17  18
ENDBRANCH  16  17
ENDBRANCH   1  16
TORSDOF 5
ENDMDL
MODEL 7
REMARK VINA RESULT:      -7.6      0.861      1.425
REMARK  Name = 
REMARK  5 active torsions:
REMARK  status: ('A' for Active; 'I' for Inactive)
REMARK    1  A    between atoms: C_5  and  O_6
REMARK    2  A    between atoms: O_6  and  C_7
REMARK    3  A    between atoms: C_7  and  C_8
REMARK    4  A    between atoms: C_8  and  C_9
REMARK    5  A    between atoms: C_9  and  N_10
REMARK                            x       y       z     vdW  Elec       q    Type
REMARK                         _______ _______ _______ _____ _____    ______ ____
ROOT
ATOM      1  N   UNL     1       3.227   6.189  18.250  0.00  0.00    +0.000 N 
ATOM      2  C   UNL     1       2.821   4.890  18.499  0.00  0.00    +0.000 A 
ATOM      3  C   UNL     1       4.009   4.215  18.725  0.00  0.00    +0.000 A 
ATOM      4  C   UNL     1       4.998   5.199  18.982  0.00  0.00    +0.000 A 
ATOM      5  C   UNL     1       6.345   5.170  19.357  0.00  0.00    +0.000 A 
ATOM      6  C   UNL     1       7.268   5.746  18.484  0.00  0.00    +0.000 A 
ATOM      7  C   UNL     1       6.839   6.252  17.253  0.00  0.00    +0.000 A 
ATOM      8  C   UNL     1       5.477   6.465  16.995  0.00  0.00    +0.000 A 
ATOM      9 CL   UNL     1       4.929   6.847  15.414  0.00  0.00    +0.000 Cl
ATOM     10  C   UNL     1       4.591   6.113  18.015  0.00  0.00    +0.000 A 
ATOM     11  C   UNL     1       4.181   2.823  18.238  0.00  0.00    +0.000 C 
ATOM     12  C   UNL     1       2.901   2.333  17.509  0.00  0.00    +0.000 C 
ATOM     13  N   UNL     1       1.606   2.808  18.045  0.00  0.00    +0.000 NA
ATOM     14  C   UNL     1       1.503   4.276  18.203  0.00  0.00    +0.000 C 
ATOM     15  H   UNL     1       1.464   2.374  18.954  0.00  0.00    +0.000 HD
ENDROOT
BRANCH   1  16
ATOM     16  C   UNL     1       2.589   7.412  18.716  0.00  0.00    +0.000 C 
BRANCH  16  17
ATOM     17  C   UNL     1       2.261   8.457  17.630  0.00  0.00    +0.000 C 
BRANCH  17  18
ATOM     18  C   UNL     1       1.625   9.786  18.074  0.00  0.00    +0.000 C 
BRANCH  18  19
ATOM     19  O   UNL     1       1.120   9.696  19.406  0.00  0.00    +0.000 OA
BRANCH  19  24
ATOM     20 CL   UNL     1      -3.681  13.044  20.115  0.00  0.00    +0.000 Cl
ATOM     21  C   UNL     1      -2.282  12.061  19.953  0.00  0.00    +0.000 A 
ATOM     22  C   UNL     1      -2.080  11.315  18.797  0.00  0.00    +0.000 A 
ATOM     23  C   UNL     1      -0.930  10.528  18.670  0.00  0.00    +0.000 A 
ATOM     24  C   UNL     1       0.041  10.483  19.669  0.00  0.00    +0.000 A 
ATOM     25  C   UNL     1      -0.201  11.207  20.855  0.00  0.00    +0.000 A 
ATOM     26  C   UNL     1      -1.357  11.982  20.990  0.00  0.00    +0.000 A 
ENDBRANCH  19  24
ENDBRANCH  18  19
ENDBRANCH  17  18
ENDBRANCH  16  17
ENDBRANCH   1  16
TORSDOF 5
ENDMDL
MODEL 8
REMARK VINA RESULT:      -7.5      1.218      1.586
REMARK  Name = 
REMARK  5 active torsions:
REMARK  status: ('A' for Active; 'I' for Inactive)
REMARK    1  A    between atoms: C_5  and  O_6
REMARK    2  A    between atoms: O_6  and  C_7
REMARK    3  A    between atoms: C_7  and  C_8
REMARK    4  A    between atoms: C_8  and  C_9
REMARK    5  A    between atoms: C_9  and  N_10
REMARK                            x       y       z     vdW  Elec       q    Type
REMARK                         _______ _______ _______ _____ _____    ______ ____
ROOT
ATOM      1  N   UNL     1       3.740   5.987  17.633  0.00  0.00    +0.000 N 
ATOM      2  C   UNL     1       3.149   5.086  18.500  0.00  0.00    +0.000 A 
ATOM      3  C   UNL     1       4.225   4.514  19.159  0.00  0.00    +0.000 A 
ATOM      4  C   UNL     1       5.340   5.362  18.937  0.00  0.00    +0.000 A 
ATOM      5  C   UNL     1       6.663   5.392  19.389  0.00  0.00    +0.000 A 
ATOM      6  C   UNL     1       7.672   5.296  18.430  0.00  0.00    +0.000 A 
ATOM      7  C   UNL     1       7.339   5.097  17.087  0.00  0.00    +0.000 A 
ATOM      8  C   UNL     1       6.025   5.286  16.634  0.00  0.00    +0.000 A 
ATOM      9 CL   UNL     1       5.562   4.808  15.052  0.00  0.00    +0.000 Cl
ATOM     10  C   UNL     1       5.082   5.645  17.599  0.00  0.00    +0.000 A 
ATOM     11  C   UNL     1       4.205   3.071  19.509  0.00  0.00    +0.000 C 
ATOM     12  C   UNL     1       2.880   2.410  19.044  0.00  0.00    +0.000 C 
ATOM     13  N   UNL     1       1.658   3.240  19.123  0.00  0.00    +0.000 NA
ATOM     14  C   UNL     1       1.761   4.560  18.461  0.00  0.00    +0.000 C 
ATOM     15  H   UNL     1       1.441   3.388  20.106  0.00  0.00    +0.000 HD
ENDROOT
BRANCH   1  16
ATOM     16  C   UNL     1       3.274   7.330  17.312  0.00  0.00    +0.000 C 
BRANCH  16  17
ATOM     17  C   UNL     1       2.422   8.023  18.395  0.00  0.00    +0.000 C 
BRANCH  17  18
ATOM     18  C   UNL     1       1.895   9.438  18.102  0.00  0.00    +0.000 C 
BRANCH  18  19
ATOM     19  O   UNL     1       0.519   9.408  17.722  0.00  0.00    +0.000 OA
BRANCH  19  24
ATOM     20 CL   UNL     1      -3.281  12.982  20.469  0.00  0.00    +0.000 Cl
ATOM     21  C   UNL     1      -2.161  11.924  19.709  0.00  0.00    +0.000 A 
ATOM     22  C   UNL     1      -2.434  11.404  18.449  0.00  0.00    +0.000 A 
ATOM     23  C   UNL     1      -1.508  10.554  17.832  0.00  0.00    +0.000 A 
ATOM     24  C   UNL     1      -0.298  10.225  18.442  0.00  0.00    +0.000 A 
ATOM     25  C   UNL     1      -0.058  10.721  19.739  0.00  0.00    +0.000 A 
ATOM     26  C   UNL     1      -0.988  11.559  20.363  0.00  0.00    +0.000 A 
ENDBRANCH  19  24
ENDBRANCH  18  19
ENDBRANCH  17  18
ENDBRANCH  16  17
ENDBRANCH   1  16
TORSDOF 5
ENDMDL
MODEL 9
REMARK VINA RESULT:      -7.5      2.249      2.641
REMARK  Name = 
REMARK  5 active torsions:
REMARK  status: ('A' for Active; 'I' for Inactive)
REMARK    1  A    between atoms: C_5  and  O_6
REMARK    2  A    between atoms: O_6  and  C_7
REMARK    3  A    between atoms: C_7  and  C_8
REMARK    4  A    between atoms: C_8  and  C_9
REMARK    5  A    between atoms: C_9  and  N_10
REMARK                            x       y       z     vdW  Elec       q    Type
REMARK                         _______ _______ _______ _____ _____    ______ ____
ROOT
ATOM      1  N   UNL     1       3.823   5.620  17.485  0.00  0.00    +0.000 N 
ATOM      2  C   UNL     1       3.223   4.818  18.440  0.00  0.00    +0.000 A 
ATOM      3  C   UNL     1       4.291   4.341  19.182  0.00  0.00    +0.000 A 
ATOM      4  C   UNL     1       5.402   5.173  18.884  0.00  0.00    +0.000 A 
ATOM      5  C   UNL     1       6.715   5.272  19.356  0.00  0.00    +0.000 A 
ATOM      6  C   UNL     1       7.745   5.079  18.435  0.00  0.00    +0.000 A 
ATOM      7  C   UNL     1       7.442   4.721  17.118  0.00  0.00    +0.000 A 
ATOM      8  C   UNL     1       6.136   4.838  16.620  0.00  0.00    +0.000 A 
ATOM      9 CL   UNL     1       5.711   4.173  15.096  0.00  0.00    +0.000 Cl
ATOM     10  C   UNL     1       5.169   5.294  17.518  0.00  0.00    +0.000 A 
ATOM     11  C   UNL     1       4.279   2.949  19.698  0.00  0.00    +0.000 C 
ATOM     12  C   UNL     1       2.972   2.221  19.287  0.00  0.00    +0.000 C 
ATOM     13  N   UNL     1       1.739   3.038  19.245  0.00  0.00    +0.000 NA
ATOM     14  C   UNL     1       1.843   4.273  18.435  0.00  0.00    +0.000 C 
ATOM     15  H   UNL     1       1.501   3.297  20.199  0.00  0.00    +0.000 HD
ENDROOT
BRANCH   1  16
ATOM     16  C   UNL     1       3.349   6.910  17.001  0.00  0.00    +0.000 C 
BRANCH  16  17
ATOM     17  C   UNL     1       3.291   8.042  18.048  0.00  0.00    +0.000 C 
BRANCH  17  18
ATOM     18  C   UNL     1       1.906   8.505  18.533  0.00  0.00    +0.000 C 
BRANCH  18  19
ATOM     19  O   UNL     1       1.705   8.180  19.908  0.00  0.00    +0.000 OA
BRANCH  19  24
ATOM     20 CL   UNL     1      -1.708  11.638  23.247  0.00  0.00    +0.000 Cl
ATOM     21  C   UNL     1      -0.707  10.665  22.246  0.00  0.00    +0.000 A 
ATOM     22  C   UNL     1       0.065   9.651  22.802  0.00  0.00    +0.000 A 
ATOM     23  C   UNL     1       0.867   8.855  21.976  0.00  0.00    +0.000 A 
ATOM     24  C   UNL     1       0.902   9.038  20.594  0.00  0.00    +0.000 A 
ATOM     25  C   UNL     1       0.151  10.100  20.051  0.00  0.00    +0.000 A 
ATOM     26  C   UNL     1      -0.640  10.906  20.877  0.00  0.00    +0.000 A 
ENDBRANCH  19  24
ENDBRANCH  18  19
ENDBRANCH  17  18
ENDBRANCH  16  17
ENDBRANCH   1  16
TORSDOF 5
ENDMDL
