MODEL 1
REMARK VINA RESULT:      -8.4      0.000      0.000
REMARK  Name = 
REMARK  7 active torsions:
REMARK  status: ('A' for Active; 'I' for Inactive)
REMARK    1  A    between atoms: C_1  and  C_2
REMARK    2  A    between atoms: C_4  and  C_5
REMARK    3  A    between atoms: N_8  and  S_9
REMARK    4  A    between atoms: S_9  and  C_12
REMARK    5  A    between atoms: C_15  and  N_16
REMARK    6  A    between atoms: C_17  and  C_19
REMARK    7  A    between atoms: C_19  and  C_20
REMARK                            x       y       z     vdW  Elec       q    Type
REMARK                         _______ _______ _______ _____ _____    ______ ____
ROOT
ATOM      1  C   UNL     1       1.206   9.446  19.315  0.00  0.00    +0.000 A 
ATOM      2  C   UNL     1       1.346   8.449  20.277  0.00  0.00    +0.000 A 
ATOM      3  C   UNL     1       2.104   7.311  19.990  0.00  0.00    +0.000 A 
ATOM      4  C   UNL     1       2.712   7.148  18.740  0.00  0.00    +0.000 A 
ATOM      5  C   UNL     1       2.566   8.157  17.780  0.00  0.00    +0.000 A 
ATOM      6  C   UNL     1       1.798   9.298  18.054  0.00  0.00    +0.000 A 
ENDROOT
BRANCH   4   7
ATOM      7  N   UNL     1       3.473   6.003  18.409  0.00  0.00    +0.000 N 
ATOM      8  C   UNL     1       2.956   4.763  18.056  0.00  0.00    +0.000 C 
ATOM      9  O   UNL     1       1.761   4.500  17.918  0.00  0.00    +0.000 OA
ATOM     10  H   UNL     1       4.473   6.134  18.322  0.00  0.00    +0.000 HD
BRANCH   8  11
ATOM     11  C   UNL     1       4.000   3.686  17.819  0.00  0.00    +0.000 C 
BRANCH  11  12
ATOM     12  C   UNL     1       5.037   4.075  16.788  0.00  0.00    +0.000 A 
ATOM     13  C   UNL     1       4.703   4.148  15.424  0.00  0.00    +0.000 A 
ATOM     14  C   UNL     1       5.656   4.532  14.479  0.00  0.00    +0.000 A 
ATOM     15  C   UNL     1       6.940   4.856  14.896  0.00  0.00    +0.000 A 
ATOM     16  F   UNL     1       7.855   5.226  13.991  0.00  0.00    +0.000 F 
ATOM     17  C   UNL     1       7.287   4.809  16.241  0.00  0.00    +0.000 A 
ATOM     18  C   UNL     1       6.336   4.423  17.188  0.00  0.00    +0.000 A 
ENDBRANCH  11  12
ENDBRANCH   8  11
ENDBRANCH   4   7
BRANCH   1  19
ATOM     19  S   UNL     1       0.229  10.890  19.692  0.00  0.00    +0.000 S 
ATOM     20  O   UNL     1       0.879  11.587  20.785  0.00  0.00    +0.000 OA
ATOM     21  O   UNL     1      -1.139  10.434  19.821  0.00  0.00    +0.000 OA
BRANCH  19  29
ATOM     22  C   UNL     1      -0.466  16.470  18.988  0.00  0.00    +0.000 C 
ATOM     23  C   UNL     1       0.482  15.328  18.780  0.00  0.00    +0.000 A 
ATOM     24  C   UNL     1       1.841  15.549  18.639  0.00  0.00    +0.000 A 
ATOM     25  C   UNL     1       2.632  14.441  18.397  0.00  0.00    +0.000 A 
ATOM     26  C   UNL     1       4.119  14.567  18.258  0.00  0.00    +0.000 C 
ATOM     27  N   UNL     1       2.115  13.202  18.279  0.00  0.00    +0.000 NA
ATOM     28  C   UNL     1       0.797  13.103  18.462  0.00  0.00    +0.000 A 
ATOM     29  N   UNL     1       0.280  11.818  18.302  0.00  0.00    +0.000 N 
ATOM     30  N   UNL     1      -0.056  14.094  18.716  0.00  0.00    +0.000 NA
ATOM     31  H   UNL     1       0.772  11.324  17.565  0.00  0.00    +0.000 HD
ENDBRANCH  19  29
ENDBRANCH   1  19
TORSDOF 5
ENDMDL
MODEL 2
REMARK VINA RESULT:      -8.4      0.681      1.140
REMARK  Name = 
REMARK  7 active torsions:
REMARK  status: ('A' for Active; 'I' for Inactive)
REMARK    1  A    between atoms: C_1  and  C_2
REMARK    2  A    between atoms: C_4  and  C_5
REMARK    3  A    between atoms: N_8  and  S_9
REMARK    4  A    between atoms: S_9  and  C_12
REMARK    5  A    between atoms: C_15  and  N_16
REMARK    6  A    between atoms: C_17  and  C_19
REMARK    7  A    between atoms: C_19  and  C_20
REMARK                            x       y       z     vdW  Elec       q    Type
REMARK                         _______ _______ _______ _____ _____    ______ ____
ROOT
ATOM      1  C   UNL     1       0.841   9.657  19.270  0.00  0.00    +0.000 A 
ATOM      2  C   UNL     1       1.050   8.851  20.386  0.00  0.00    +0.000 A 
ATOM      3  C   UNL     1       1.879   7.731  20.286  0.00  0.00    +0.000 A 
ATOM      4  C   UNL     1       2.490   7.394  19.073  0.00  0.00    +0.000 A 
ATOM      5  C   UNL     1       2.274   8.211  17.956  0.00  0.00    +0.000 A 
ATOM      6  C   UNL     1       1.435   9.332  18.043  0.00  0.00    +0.000 A 
ENDROOT
BRANCH   4   7
ATOM      7  N   UNL     1       3.322   6.259  18.931  0.00  0.00    +0.000 N 
ATOM      8  C   UNL     1       2.909   4.937  19.025  0.00  0.00    +0.000 C 
ATOM      9  O   UNL     1       1.747   4.561  19.181  0.00  0.00    +0.000 OA
ATOM     10  H   UNL     1       4.274   6.431  18.633  0.00  0.00    +0.000 HD
BRANCH   8  11
ATOM     11  C   UNL     1       4.025   3.914  18.903  0.00  0.00    +0.000 C 
BRANCH  11  12
ATOM     12  C   UNL     1       4.978   4.204  17.764  0.00  0.00    +0.000 A 
ATOM     13  C   UNL     1       6.311   4.573  18.018  0.00  0.00    +0.000 A 
ATOM     14  C   UNL     1       7.194   4.815  16.964  0.00  0.00    +0.000 A 
ATOM     15  C   UNL     1       6.752   4.674  15.656  0.00  0.00    +0.000 A 
ATOM     16  F   UNL     1       7.598   4.905  14.644  0.00  0.00    +0.000 F 
ATOM     17  C   UNL     1       5.445   4.291  15.382  0.00  0.00    +0.000 A 
ATOM     18  C   UNL     1       4.558   4.052  16.434  0.00  0.00    +0.000 A 
ENDBRANCH  11  12
ENDBRANCH   8  11
ENDBRANCH   4   7
BRANCH   1  19
ATOM     19  S   UNL     1      -0.226  11.080  19.408  0.00  0.00    +0.000 S 
ATOM     20  O   UNL     1       0.081  11.738  20.664  0.00  0.00    +0.000 OA
ATOM     21  O   UNL     1      -1.568  10.612  19.133  0.00  0.00    +0.000 OA
BRANCH  19  29
ATOM     22  C   UNL     1      -0.600  16.704  18.816  0.00  0.00    +0.000 C 
ATOM     23  C   UNL     1       0.345  15.540  18.802  0.00  0.00    +0.000 A 
ATOM     24  C   UNL     1       1.699  15.723  19.020  0.00  0.00    +0.000 A 
ATOM     25  C   UNL     1       2.502  14.600  18.934  0.00  0.00    +0.000 A 
ATOM     26  C   UNL     1       3.978  14.684  19.181  0.00  0.00    +0.000 C 
ATOM     27  N   UNL     1       2.006  13.384  18.629  0.00  0.00    +0.000 NA
ATOM     28  C   UNL     1       0.683  13.321  18.469  0.00  0.00    +0.000 A 
ATOM     29  N   UNL     1       0.197  12.061  18.122  0.00  0.00    +0.000 N 
ATOM     30  N   UNL     1      -0.185  14.328  18.545  0.00  0.00    +0.000 NA
ATOM     31  H   UNL     1       0.849  11.581  17.511  0.00  0.00    +0.000 HD
ENDBRANCH  19  29
ENDBRANCH   1  19
TORSDOF 5
ENDMDL
MODEL 3
REMARK VINA RESULT:      -8.4      0.652      1.119
REMARK  Name = 
REMARK  7 active torsions:
REMARK  status: ('A' for Active; 'I' for Inactive)
REMARK    1  A    between atoms: C_1  and  C_2
REMARK    2  A    between atoms: C_4  and  C_5
REMARK    3  A    between atoms: N_8  and  S_9
REMARK    4  A    between atoms: S_9  and  C_12
REMARK    5  A    between atoms: C_15  and  N_16
REMARK    6  A    between atoms: C_17  and  C_19
REMARK    7  A    between atoms: C_19  and  C_20
REMARK                            x       y       z     vdW  Elec       q    Type
REMARK                         _______ _______ _______ _____ _____    ______ ____
ROOT
ATOM      1  C   UNL     1       0.834   9.637  19.286  0.00  0.00    +0.000 A 
ATOM      2  C   UNL     1       1.438   9.370  18.060  0.00  0.00    +0.000 A 
ATOM      3  C   UNL     1       2.261   8.250  17.922  0.00  0.00    +0.000 A 
ATOM      4  C   UNL     1       2.506   7.399  19.006  0.00  0.00    +0.000 A 
ATOM      5  C   UNL     1       1.893   7.675  20.235  0.00  0.00    +0.000 A 
ATOM      6  C   UNL     1       1.073   8.803  20.387  0.00  0.00    +0.000 A 
ENDROOT
BRANCH   4   7
ATOM      7  N   UNL     1       3.346   6.266  18.908  0.00  0.00    +0.000 N 
ATOM      8  C   UNL     1       2.922   4.943  18.908  0.00  0.00    +0.000 C 
ATOM      9  O   UNL     1       1.750   4.569  18.930  0.00  0.00    +0.000 OA
ATOM     10  H   UNL     1       4.324   6.443  18.716  0.00  0.00    +0.000 HD
BRANCH   8  11
ATOM     11  C   UNL     1       4.043   3.919  18.863  0.00  0.00    +0.000 C 
BRANCH  11  12
ATOM     12  C   UNL     1       5.013   4.145  17.724  0.00  0.00    +0.000 A 
ATOM     13  C   UNL     1       4.590   4.038  16.387  0.00  0.00    +0.000 A 
ATOM     14  C   UNL     1       5.482   4.272  15.339  0.00  0.00    +0.000 A 
ATOM     15  C   UNL     1       6.794   4.626  15.624  0.00  0.00    +0.000 A 
ATOM     16  F   UNL     1       7.651   4.852  14.621  0.00  0.00    +0.000 F 
ATOM     17  C   UNL     1       7.229   4.756  16.938  0.00  0.00    +0.000 A 
ATOM     18  C   UNL     1       6.339   4.520  17.988  0.00  0.00    +0.000 A 
ENDBRANCH  11  12
ENDBRANCH   8  11
ENDBRANCH   4   7
BRANCH   1  19
ATOM     19  S   UNL     1      -0.209  11.074  19.451  0.00  0.00    +0.000 S 
ATOM     20  O   UNL     1       0.126  11.719  20.705  0.00  0.00    +0.000 OA
ATOM     21  O   UNL     1      -1.563  10.628  19.193  0.00  0.00    +0.000 OA
BRANCH  19  29
ATOM     22  C   UNL     1      -0.659  16.691  18.839  0.00  0.00    +0.000 C 
ATOM     23  C   UNL     1       0.302  15.540  18.834  0.00  0.00    +0.000 A 
ATOM     24  C   UNL     1       1.652  15.743  19.061  0.00  0.00    +0.000 A 
ATOM     25  C   UNL     1       2.471  14.631  18.984  0.00  0.00    +0.000 A 
ATOM     26  C   UNL     1       3.944  14.736  19.242  0.00  0.00    +0.000 C 
ATOM     27  N   UNL     1       1.995  13.407  18.680  0.00  0.00    +0.000 NA
ATOM     28  C   UNL     1       0.674  13.325  18.510  0.00  0.00    +0.000 A 
ATOM     29  N   UNL     1       0.208  12.057  18.164  0.00  0.00    +0.000 N 
ATOM     30  N   UNL     1      -0.209  14.320  18.578  0.00  0.00    +0.000 NA
ATOM     31  H   UNL     1       0.871  11.585  17.559  0.00  0.00    +0.000 HD
ENDBRANCH  19  29
ENDBRANCH   1  19
TORSDOF 5
ENDMDL
MODEL 4
REMARK VINA RESULT:      -8.4      4.674      9.649
REMARK  Name = 
REMARK  7 active torsions:
REMARK  status: ('A' for Active; 'I' for Inactive)
REMARK    1  A    between atoms: C_1  and  C_2
REMARK    2  A    between atoms: C_4  and  C_5
REMARK    3  A    between atoms: N_8  and  S_9
REMARK    4  A    between atoms: S_9  and  C_12
REMARK    5  A    between atoms: C_15  and  N_16
REMARK    6  A    between atoms: C_17  and  C_19
REMARK    7  A    between atoms: C_19  and  C_20
REMARK                            x       y       z     vdW  Elec       q    Type
REMARK                         _______ _______ _______ _____ _____    ______ ____
ROOT
ATOM      1  C   UNL     1       2.382   4.581  18.860  0.00  0.00    +0.000 A 
ATOM      2  C   UNL     1       2.175   4.405  20.226  0.00  0.00    +0.000 A 
ATOM      3  C   UNL     1       1.950   5.517  21.042  0.00  0.00    +0.000 A 
ATOM      4  C   UNL     1       1.948   6.811  20.509  0.00  0.00    +0.000 A 
ATOM      5  C   UNL     1       2.156   6.977  19.134  0.00  0.00    +0.000 A 
ATOM      6  C   UNL     1       2.394   5.868  18.308  0.00  0.00    +0.000 A 
ENDROOT
BRANCH   4   7
ATOM      7  N   UNL     1       1.740   7.960  21.306  0.00  0.00    +0.000 N 
ATOM      8  C   UNL     1       0.505   8.445  21.718  0.00  0.00    +0.000 C 
ATOM      9  O   UNL     1      -0.581   7.908  21.502  0.00  0.00    +0.000 OA
ATOM     10  H   UNL     1       2.566   8.400  21.691  0.00  0.00    +0.000 HD
BRANCH   8  11
ATOM     11  C   UNL     1       0.566   9.741  22.508  0.00  0.00    +0.000 C 
BRANCH  11  12
ATOM     12  C   UNL     1      -0.516  10.726  22.124  0.00  0.00    +0.000 A 
ATOM     13  C   UNL     1      -1.423  11.210  23.084  0.00  0.00    +0.000 A 
ATOM     14  C   UNL     1      -2.403  12.139  22.730  0.00  0.00    +0.000 A 
ATOM     15  C   UNL     1      -2.471  12.596  21.421  0.00  0.00    +0.000 A 
ATOM     16  F   UNL     1      -3.410  13.487  21.080  0.00  0.00    +0.000 F 
ATOM     17  C   UNL     1      -1.574  12.146  20.460  0.00  0.00    +0.000 A 
ATOM     18  C   UNL     1      -0.593  11.215  20.811  0.00  0.00    +0.000 A 
ENDBRANCH  11  12
ENDBRANCH   8  11
ENDBRANCH   4   7
BRANCH   1  19
ATOM     19  S   UNL     1       2.675   3.153  17.832  0.00  0.00    +0.000 S 
ATOM     20  O   UNL     1       2.180   3.459  16.504  0.00  0.00    +0.000 OA
ATOM     21  O   UNL     1       2.163   2.012  18.562  0.00  0.00    +0.000 OA
BRANCH  19  29
ATOM     22  C   UNL     1       6.359   3.849  13.582  0.00  0.00    +0.000 C 
ATOM     23  C   UNL     1       5.995   4.307  14.962  0.00  0.00    +0.000 A 
ATOM     24  C   UNL     1       6.416   5.537  15.436  0.00  0.00    +0.000 A 
ATOM     25  C   UNL     1       6.079   5.851  16.740  0.00  0.00    +0.000 A 
ATOM     26  C   UNL     1       6.460   7.170  17.341  0.00  0.00    +0.000 C 
ATOM     27  N   UNL     1       5.394   5.000  17.531  0.00  0.00    +0.000 NA
ATOM     28  C   UNL     1       5.015   3.856  16.959  0.00  0.00    +0.000 A 
ATOM     29  N   UNL     1       4.338   2.978  17.804  0.00  0.00    +0.000 N 
ATOM     30  N   UNL     1       5.267   3.457  15.713  0.00  0.00    +0.000 NA
ATOM     31  H   UNL     1       4.714   3.025  18.745  0.00  0.00    +0.000 HD
ENDBRANCH  19  29
ENDBRANCH   1  19
TORSDOF 5
ENDMDL
MODEL 5
REMARK VINA RESULT:      -8.3      4.673      9.661
REMARK  Name = 
REMARK  7 active torsions:
REMARK  status: ('A' for Active; 'I' for Inactive)
REMARK    1  A    between atoms: C_1  and  C_2
REMARK    2  A    between atoms: C_4  and  C_5
REMARK    3  A    between atoms: N_8  and  S_9
REMARK    4  A    between atoms: S_9  and  C_12
REMARK    5  A    between atoms: C_15  and  N_16
REMARK    6  A    between atoms: C_17  and  C_19
REMARK    7  A    between atoms: C_19  and  C_20
REMARK                            x       y       z     vdW  Elec       q    Type
REMARK                         _______ _______ _______ _____ _____    ______ ____
ROOT
ATOM      1  C   UNL     1       2.407   4.585  18.863  0.00  0.00    +0.000 A 
ATOM      2  C   UNL     1       2.382   5.850  18.282  0.00  0.00    +0.000 A 
ATOM      3  C   UNL     1       2.173   6.977  19.082  0.00  0.00    +0.000 A 
ATOM      4  C   UNL     1       1.968   6.851  20.461  0.00  0.00    +0.000 A 
ATOM      5  C   UNL     1       1.996   5.575  21.036  0.00  0.00    +0.000 A 
ATOM      6  C   UNL     1       2.194   4.437  20.240  0.00  0.00    +0.000 A 
ENDROOT
BRANCH   4   7
ATOM      7  N   UNL     1       1.738   7.967  21.298  0.00  0.00    +0.000 N 
ATOM      8  C   UNL     1       0.495   8.412  21.729  0.00  0.00    +0.000 C 
ATOM      9  O   UNL     1      -0.581   7.861  21.495  0.00  0.00    +0.000 OA
ATOM     10  H   UNL     1       2.556   8.409  21.699  0.00  0.00    +0.000 HD
BRANCH   8  11
ATOM     11  C   UNL     1       0.530   9.679  22.565  0.00  0.00    +0.000 C 
BRANCH  11  12
ATOM     12  C   UNL     1      -0.500  10.704  22.142  0.00  0.00    +0.000 A 
ATOM     13  C   UNL     1      -0.592  11.120  20.802  0.00  0.00    +0.000 A 
ATOM     14  C   UNL     1      -1.560  12.047  20.412  0.00  0.00    +0.000 A 
ATOM     15  C   UNL     1      -2.446  12.548  21.355  0.00  0.00    +0.000 A 
ATOM     16  F   UNL     1      -3.377  13.436  20.982  0.00  0.00    +0.000 F 
ATOM     17  C   UNL     1      -2.386  12.136  22.681  0.00  0.00    +0.000 A 
ATOM     18  C   UNL     1      -1.416  11.211  23.075  0.00  0.00    +0.000 A 
ENDBRANCH  11  12
ENDBRANCH   8  11
ENDBRANCH   4   7
BRANCH   1  19
ATOM     19  S   UNL     1       2.668   3.155  17.829  0.00  0.00    +0.000 S 
ATOM     20  O   UNL     1       2.167   3.473  16.506  0.00  0.00    +0.000 OA
ATOM     21  O   UNL     1       2.142   2.021  18.562  0.00  0.00    +0.000 OA
BRANCH  19  29
ATOM     22  C   UNL     1       6.330   3.821  13.556  0.00  0.00    +0.000 C 
ATOM     23  C   UNL     1       5.985   4.274  14.943  0.00  0.00    +0.000 A 
ATOM     24  C   UNL     1       6.430   5.493  15.423  0.00  0.00    +0.000 A 
ATOM     25  C   UNL     1       6.109   5.803  16.732  0.00  0.00    +0.000 A 
ATOM     26  C   UNL     1       6.517   7.111  17.340  0.00  0.00    +0.000 C 
ATOM     27  N   UNL     1       5.416   4.958  17.521  0.00  0.00    +0.000 NA
ATOM     28  C   UNL     1       5.012   3.824  16.944  0.00  0.00    +0.000 A 
ATOM     29  N   UNL     1       4.327   2.952  17.787  0.00  0.00    +0.000 N 
ATOM     30  N   UNL     1       5.248   3.431  15.693  0.00  0.00    +0.000 NA
ATOM     31  H   UNL     1       4.710   2.986  18.725  0.00  0.00    +0.000 HD
ENDBRANCH  19  29
ENDBRANCH   1  19
TORSDOF 5
ENDMDL
MODEL 6
REMARK VINA RESULT:      -8.3      3.089      3.848
REMARK  Name = 
REMARK  7 active torsions:
REMARK  status: ('A' for Active; 'I' for Inactive)
REMARK    1  A    between atoms: C_1  and  C_2
REMARK    2  A    between atoms: C_4  and  C_5
REMARK    3  A    between atoms: N_8  and  S_9
REMARK    4  A    between atoms: S_9  and  C_12
REMARK    5  A    between atoms: C_15  and  N_16
REMARK    6  A    between atoms: C_17  and  C_19
REMARK    7  A    between atoms: C_19  and  C_20
REMARK                            x       y       z     vdW  Elec       q    Type
REMARK                         _______ _______ _______ _____ _____    ______ ____
ROOT
ATOM      1  C   UNL     1       0.547   9.439  19.223  0.00  0.00    +0.000 A 
ATOM      2  C   UNL     1       0.858   8.733  20.382  0.00  0.00    +0.000 A 
ATOM      3  C   UNL     1       1.835   7.735  20.343  0.00  0.00    +0.000 A 
ATOM      4  C   UNL     1       2.493   7.418  19.150  0.00  0.00    +0.000 A 
ATOM      5  C   UNL     1       2.173   8.135  17.990  0.00  0.00    +0.000 A 
ATOM      6  C   UNL     1       1.187   9.131  18.015  0.00  0.00    +0.000 A 
ENDROOT
BRANCH   4   7
ATOM      7  N   UNL     1       3.475   6.404  19.070  0.00  0.00    +0.000 N 
ATOM      8  C   UNL     1       3.232   5.037  19.125  0.00  0.00    +0.000 C 
ATOM      9  O   UNL     1       2.120   4.512  19.188  0.00  0.00    +0.000 OA
ATOM     10  H   UNL     1       4.417   6.702  18.849  0.00  0.00    +0.000 HD
BRANCH   8  11
ATOM     11  C   UNL     1       4.479   4.170  19.088  0.00  0.00    +0.000 C 
BRANCH  11  12
ATOM     12  C   UNL     1       5.297   4.354  17.829  0.00  0.00    +0.000 A 
ATOM     13  C   UNL     1       6.647   4.742  17.898  0.00  0.00    +0.000 A 
ATOM     14  C   UNL     1       7.405   4.886  16.735  0.00  0.00    +0.000 A 
ATOM     15  C   UNL     1       6.821   4.629  15.502  0.00  0.00    +0.000 A 
ATOM     16  F   UNL     1       7.548   4.766  14.386  0.00  0.00    +0.000 F 
ATOM     17  C   UNL     1       5.495   4.226  15.411  0.00  0.00    +0.000 A 
ATOM     18  C   UNL     1       4.733   4.084  16.573  0.00  0.00    +0.000 A 
ENDBRANCH  11  12
ENDBRANCH   8  11
ENDBRANCH   4   7
BRANCH   1  19
ATOM     19  S   UNL     1      -0.707  10.706  19.284  0.00  0.00    +0.000 S 
ATOM     20  O   UNL     1      -0.408  11.671  18.244  0.00  0.00    +0.000 OA
ATOM     21  O   UNL     1      -0.800  11.122  20.668  0.00  0.00    +0.000 OA
BRANCH  19  29
ATOM     22  C   UNL     1      -5.670  12.733  17.443  0.00  0.00    +0.000 C 
ATOM     23  C   UNL     1      -4.558  11.775  17.135  0.00  0.00    +0.000 A 
ATOM     24  C   UNL     1      -4.336  11.339  15.841  0.00  0.00    +0.000 A 
ATOM     25  C   UNL     1      -3.323  10.414  15.660  0.00  0.00    +0.000 A 
ATOM     26  C   UNL     1      -2.981   9.899  14.295  0.00  0.00    +0.000 C 
ATOM     27  N   UNL     1      -2.596   9.934  16.689  0.00  0.00    +0.000 NA
ATOM     28  C   UNL     1      -2.879  10.447  17.888  0.00  0.00    +0.000 A 
ATOM     29  N   UNL     1      -2.138   9.912  18.941  0.00  0.00    +0.000 N 
ATOM     30  N   UNL     1      -3.815  11.350  18.176  0.00  0.00    +0.000 NA
ATOM     31  H   UNL     1      -1.967   8.924  18.792  0.00  0.00    +0.000 HD
ENDBRANCH  19  29
ENDBRANCH   1  19
TORSDOF 5
ENDMDL
MODEL 7
REMARK VINA RESULT:      -8.2      2.602      3.179
REMARK  Name = 
REMARK  7 active torsions:
REMARK  status: ('A' for Active; 'I' for Inactive)
REMARK    1  A    between atoms: C_1  and  C_2
REMARK    2  A    between atoms: C_4  and  C_5
REMARK    3  A    between atoms: N_8  and  S_9
REMARK    4  A    between atoms: S_9  and  C_12
REMARK    5  A    between atoms: C_15  and  N_16
REMARK    6  A    between atoms: C_17  and  C_19
REMARK    7  A    between atoms: C_19  and  C_20
REMARK                            x       y       z     vdW  Elec       q    Type
REMARK                         _______ _______ _______ _____ _____    ______ ____
ROOT
ATOM      1  C   UNL     1       1.119   9.437  19.427  0.00  0.00    +0.000 A 
ATOM      2  C   UNL     1       1.340   8.473  20.408  0.00  0.00    +0.000 A 
ATOM      3  C   UNL     1       2.095   7.337  20.105  0.00  0.00    +0.000 A 
ATOM      4  C   UNL     1       2.619   7.143  18.822  0.00  0.00    +0.000 A 
ATOM      5  C   UNL     1       2.392   8.119  17.843  0.00  0.00    +0.000 A 
ATOM      6  C   UNL     1       1.626   9.257  18.134  0.00  0.00    +0.000 A 
ENDROOT
BRANCH   4   7
ATOM      7  N   UNL     1       3.375   5.999  18.475  0.00  0.00    +0.000 N 
ATOM      8  C   UNL     1       2.861   4.817  17.957  0.00  0.00    +0.000 C 
ATOM      9  O   UNL     1       1.681   4.619  17.665  0.00  0.00    +0.000 OA
ATOM     10  H   UNL     1       4.382   6.094  18.512  0.00  0.00    +0.000 HD
BRANCH   8  11
ATOM     11  C   UNL     1       3.889   3.720  17.741  0.00  0.00    +0.000 C 
BRANCH  11  12
ATOM     12  C   UNL     1       4.966   4.098  16.748  0.00  0.00    +0.000 A 
ATOM     13  C   UNL     1       4.675   4.207  15.377  0.00  0.00    +0.000 A 
ATOM     14  C   UNL     1       5.666   4.580  14.467  0.00  0.00    +0.000 A 
ATOM     15  C   UNL     1       6.945   4.860  14.928  0.00  0.00    +0.000 A 
ATOM     16  F   UNL     1       7.897   5.219  14.057  0.00  0.00    +0.000 F 
ATOM     17  C   UNL     1       7.251   4.778  16.281  0.00  0.00    +0.000 A 
ATOM     18  C   UNL     1       6.262   4.402  17.192  0.00  0.00    +0.000 A 
ENDBRANCH  11  12
ENDBRANCH   8  11
ENDBRANCH   4   7
BRANCH   1  19
ATOM     19  S   UNL     1       0.146  10.878  19.825  0.00  0.00    +0.000 S 
ATOM     20  O   UNL     1      -1.249  10.534  19.631  0.00  0.00    +0.000 OA
ATOM     21  O   UNL     1       0.738  11.983  19.099  0.00  0.00    +0.000 OA
BRANCH  19  29
ATOM     22  C   UNL     1       0.062  15.732  22.750  0.00  0.00    +0.000 C 
ATOM     23  C   UNL     1      -0.526  14.355  22.662  0.00  0.00    +0.000 A 
ATOM     24  C   UNL     1      -1.752  14.069  23.236  0.00  0.00    +0.000 A 
ATOM     25  C   UNL     1      -2.190  12.760  23.151  0.00  0.00    +0.000 A 
ATOM     26  C   UNL     1      -3.517  12.350  23.714  0.00  0.00    +0.000 C 
ATOM     27  N   UNL     1      -1.457  11.794  22.562  0.00  0.00    +0.000 NA
ATOM     28  C   UNL     1      -0.305  12.191  22.017  0.00  0.00    +0.000 A 
ATOM     29  N   UNL     1       0.451  11.169  21.443  0.00  0.00    +0.000 N 
ATOM     30  N   UNL     1       0.205  13.421  22.023  0.00  0.00    +0.000 NA
ATOM     31  H   UNL     1       0.362  10.313  21.979  0.00  0.00    +0.000 HD
ENDBRANCH  19  29
ENDBRANCH   1  19
TORSDOF 5
ENDMDL
MODEL 8
REMARK VINA RESULT:      -8.1      3.891      9.127
REMARK  Name = 
REMARK  7 active torsions:
REMARK  status: ('A' for Active; 'I' for Inactive)
REMARK    1  A    between atoms: C_1  and  C_2
REMARK    2  A    between atoms: C_4  and  C_5
REMARK    3  A    between atoms: N_8  and  S_9
REMARK    4  A    between atoms: S_9  and  C_12
REMARK    5  A    between atoms: C_15  and  N_16
REMARK    6  A    between atoms: C_17  and  C_19
REMARK    7  A    between atoms: C_19  and  C_20
REMARK                            x       y       z     vdW  Elec       q    Type
REMARK                         _______ _______ _______ _____ _____    ______ ____
ROOT
ATOM      1  C   UNL     1       2.405   4.582  18.874  0.00  0.00    +0.000 A 
ATOM      2  C   UNL     1       2.140   4.562  20.241  0.00  0.00    +0.000 A 
ATOM      3  C   UNL     1       1.879   5.759  20.914  0.00  0.00    +0.000 A 
ATOM      4  C   UNL     1       1.900   6.983  20.237  0.00  0.00    +0.000 A 
ATOM      5  C   UNL     1       2.166   6.992  18.862  0.00  0.00    +0.000 A 
ATOM      6  C   UNL     1       2.440   5.798  18.180  0.00  0.00    +0.000 A 
ENDROOT
BRANCH   4   7
ATOM      7  N   UNL     1       1.656   8.215  20.887  0.00  0.00    +0.000 N 
ATOM      8  C   UNL     1       0.451   8.603  21.458  0.00  0.00    +0.000 C 
ATOM      9  O   UNL     1      -0.560   7.905  21.536  0.00  0.00    +0.000 OA
ATOM     10  H   UNL     1       2.458   8.814  21.038  0.00  0.00    +0.000 HD
BRANCH   8  11
ATOM     11  C   UNL     1       0.445  10.011  22.029  0.00  0.00    +0.000 C 
BRANCH  11  12
ATOM     12  C   UNL     1       0.197  11.078  20.986  0.00  0.00    +0.000 A 
ATOM     13  C   UNL     1       1.147  12.088  20.750  0.00  0.00    +0.000 A 
ATOM     14  C   UNL     1       0.926  13.055  19.769  0.00  0.00    +0.000 A 
ATOM     15  C   UNL     1      -0.237  13.009  19.013  0.00  0.00    +0.000 A 
ATOM     16  F   UNL     1      -0.451  13.936  18.071  0.00  0.00    +0.000 F 
ATOM     17  C   UNL     1      -1.181  12.009  19.216  0.00  0.00    +0.000 A 
ATOM     18  C   UNL     1      -0.963  11.041  20.199  0.00  0.00    +0.000 A 
ENDBRANCH  11  12
ENDBRANCH   8  11
ENDBRANCH   4   7
BRANCH   1  19
ATOM     19  S   UNL     1       2.744   3.047  18.030  0.00  0.00    +0.000 S 
ATOM     20  O   UNL     1       2.199   3.154  16.691  0.00  0.00    +0.000 OA
ATOM     21  O   UNL     1       2.310   1.989  18.918  0.00  0.00    +0.000 OA
BRANCH  19  29
ATOM     22  C   UNL     1       6.301   3.782  13.679  0.00  0.00    +0.000 C 
ATOM     23  C   UNL     1       5.945   4.265  15.053  0.00  0.00    +0.000 A 
ATOM     24  C   UNL     1       6.317   5.527  15.480  0.00  0.00    +0.000 A 
ATOM     25  C   UNL     1       5.993   5.866  16.781  0.00  0.00    +0.000 A 
ATOM     26  C   UNL     1       6.324   7.219  17.334  0.00  0.00    +0.000 C 
ATOM     27  N   UNL     1       5.366   5.009  17.612  0.00  0.00    +0.000 NA
ATOM     28  C   UNL     1       5.029   3.831  17.083  0.00  0.00    +0.000 A 
ATOM     29  N   UNL     1       4.412   2.949  17.970  0.00  0.00    +0.000 N 
ATOM     30  N   UNL     1       5.273   3.406  15.845  0.00  0.00    +0.000 NA
ATOM     31  H   UNL     1       4.805   3.043  18.900  0.00  0.00    +0.000 HD
ENDBRANCH  19  29
ENDBRANCH   1  19
TORSDOF 5
ENDMDL
MODEL 9
REMARK VINA RESULT:      -8.1      2.691      3.237
REMARK  Name = 
REMARK  7 active torsions:
REMARK  status: ('A' for Active; 'I' for Inactive)
REMARK    1  A    between atoms: C_1  and  C_2
REMARK    2  A    between atoms: C_4  and  C_5
REMARK    3  A    between atoms: N_8  and  S_9
REMARK    4  A    between atoms: S_9  and  C_12
REMARK    5  A    between atoms: C_15  and  N_16
REMARK    6  A    between atoms: C_17  and  C_19
REMARK    7  A    between atoms: C_19  and  C_20
REMARK                            x       y       z     vdW  Elec       q    Type
REMARK                         _______ _______ _______ _____ _____    ______ ____
ROOT
ATOM      1  C   UNL     1       1.541   7.983  20.351  0.00  0.00    +0.000 A 
ATOM      2  C   UNL     1       1.540   6.680  20.842  0.00  0.00    +0.000 A 
ATOM      3  C   UNL     1       2.072   5.647  20.067  0.00  0.00    +0.000 A 
ATOM      4  C   UNL     1       2.590   5.899  18.791  0.00  0.00    +0.000 A 
ATOM      5  C   UNL     1       2.588   7.213  18.307  0.00  0.00    +0.000 A 
ATOM      6  C   UNL     1       2.046   8.255  19.073  0.00  0.00    +0.000 A 
ENDROOT
BRANCH   4   7
ATOM      7  N   UNL     1       3.122   4.877  17.972  0.00  0.00    +0.000 N 
ATOM      8  C   UNL     1       4.267   4.138  18.242  0.00  0.00    +0.000 C 
ATOM      9  O   UNL     1       4.948   4.224  19.264  0.00  0.00    +0.000 OA
ATOM     10  H   UNL     1       2.560   4.593  17.179  0.00  0.00    +0.000 HD
BRANCH   8  11
ATOM     11  C   UNL     1       4.654   3.150  17.155  0.00  0.00    +0.000 C 
BRANCH  11  12
ATOM     12  C   UNL     1       5.545   3.751  16.090  0.00  0.00    +0.000 A 
ATOM     13  C   UNL     1       5.239   3.597  14.726  0.00  0.00    +0.000 A 
ATOM     14  C   UNL     1       6.050   4.175  13.747  0.00  0.00    +0.000 A 
ATOM     15  C   UNL     1       7.158   4.918  14.129  0.00  0.00    +0.000 A 
ATOM     16  F   UNL     1       7.936   5.473  13.192  0.00  0.00    +0.000 F 
ATOM     17  C   UNL     1       7.469   5.098  15.472  0.00  0.00    +0.000 A 
ATOM     18  C   UNL     1       6.661   4.519  16.453  0.00  0.00    +0.000 A 
ENDBRANCH  11  12
ENDBRANCH   8  11
ENDBRANCH   4   7
BRANCH   1  19
ATOM     19  S   UNL     1       0.852   9.291  21.349  0.00  0.00    +0.000 S 
ATOM     20  O   UNL     1       1.752   9.515  22.463  0.00  0.00    +0.000 OA
ATOM     21  O   UNL     1      -0.534   8.939  21.583  0.00  0.00    +0.000 OA
BRANCH  19  29
ATOM     22  C   UNL     1      -2.311  10.380  16.774  0.00  0.00    +0.000 C 
ATOM     23  C   UNL     1      -1.942  10.871  18.141  0.00  0.00    +0.000 A 
ATOM     24  C   UNL     1      -2.776  11.728  18.836  0.00  0.00    +0.000 A 
ATOM     25  C   UNL     1      -2.329  12.172  20.067  0.00  0.00    +0.000 A 
ATOM     26  C   UNL     1      -3.168  13.080  20.914  0.00  0.00    +0.000 C 
ATOM     27  N   UNL     1      -1.130  11.814  20.568  0.00  0.00    +0.000 NA
ATOM     28  C   UNL     1      -0.423  10.960  19.825  0.00  0.00    +0.000 A 
ATOM     29  N   UNL     1       0.827  10.629  20.346  0.00  0.00    +0.000 N 
ATOM     30  N   UNL     1      -0.761  10.456  18.639  0.00  0.00    +0.000 NA
ATOM     31  H   UNL     1       1.243  11.428  20.813  0.00  0.00    +0.000 HD
ENDBRANCH  19  29
ENDBRANCH   1  19
TORSDOF 5
ENDMDL
