MODEL 1
REMARK VINA RESULT:      -7.5      0.000      0.000
REMARK  Name = 
REMARK  15 active torsions:
REMARK  status: ('A' for Active; 'I' for Inactive)
REMARK    1  A    between atoms: C_1  and  O_2
REMARK    2  A    between atoms: O_2  and  C_3
REMARK    3  A    between atoms: C_3  and  C_4
REMARK    4  A    between atoms: C_4  and  N_5
REMARK    5  A    between atoms: N_5  and  C_6
REMARK    6  A    between atoms: N_5  and  S_23
REMARK    7  A    between atoms: C_6  and  C_7
REMARK    8  A    between atoms: C_10  and  C_11
REMARK    9  A    between atoms: C_11  and  O_12
REMARK   10  A    between atoms: O_12  and  C_13
REMARK   11  A    between atoms: C_18  and  C_19
REMARK   12  A    between atoms: C_19  and  C_20
REMARK   13  A    between atoms: C_19  and  C_21
REMARK   14  A    between atoms: S_23  and  C_26
REMARK   15  A    between atoms: C_29  and  C_30
REMARK                            x       y       z     vdW  Elec       q    Type
REMARK                         _______ _______ _______ _____ _____    ______ ____
ROOT
ATOM      1  C   UNL     1       3.274   6.067  19.976  0.00  0.00    +0.000 C 
ENDROOT
BRANCH   1   2
ATOM      2  C   UNL     1       2.615   7.249  19.339  0.00  0.00    +0.000 A 
ATOM      3  C   UNL     1       2.801   7.726  18.054  0.00  0.00    +0.000 A 
ATOM      4  S   UNL     1       1.833   9.111  17.792  0.00  0.00    +0.000 S 
ATOM      5  C   UNL     1       1.253   9.001  19.412  0.00  0.00    +0.000 A 
ATOM      6  N   UNL     1       1.713   7.980  20.104  0.00  0.00    +0.000 NA
BRANCH   5   7
ATOM      7  C   UNL     1       0.243   9.989  19.908  0.00  0.00    +0.000 C 
BRANCH   7   8
ATOM      8  O   UNL     1      -0.092  10.863  18.821  0.00  0.00    +0.000 OA
BRANCH   8   9
ATOM      9  C   UNL     1      -1.389  10.839  18.375  0.00  0.00    +0.000 A 
ATOM     10  C   UNL     1      -1.810  10.039  17.296  0.00  0.00    +0.000 A 
ATOM     11  C   UNL     1      -3.125  10.072  16.830  0.00  0.00    +0.000 A 
ATOM     12  C   UNL     1      -4.042  10.900  17.440  0.00  0.00    +0.000 A 
ATOM     13  C   UNL     1      -3.653  11.687  18.524  0.00  0.00    +0.000 A 
ATOM     14  C   UNL     1      -2.329  11.682  19.012  0.00  0.00    +0.000 A 
BRANCH  14  15
ATOM     15  C   UNL     1      -2.072  12.569  20.233  0.00  0.00    +0.000 C 
ATOM     16  C   UNL     1      -1.270  13.818  19.843  0.00  0.00    +0.000 C 
ATOM     17  C   UNL     1      -3.266  12.958  21.103  0.00  0.00    +0.000 C 
ENDBRANCH  14  15
ENDBRANCH   8   9
ENDBRANCH   7   8
ENDBRANCH   5   7
ENDBRANCH   1   2
BRANCH   1  18
ATOM     18  N   UNL     1       3.518   4.923  19.035  0.00  0.00    +0.000 NA
BRANCH  18  19
ATOM     19  S   UNL     1       5.221   4.569  19.061  0.00  0.00    +0.000 S 
ATOM     20  O   UNL     1       5.902   5.682  19.686  0.00  0.00    +0.000 OA
ATOM     21  O   UNL     1       5.366   3.224  19.571  0.00  0.00    +0.000 OA
BRANCH  19  22
ATOM     22  C   UNL     1       5.693   4.584  17.355  0.00  0.00    +0.000 A 
ATOM     23  C   UNL     1       7.039   4.760  17.031  0.00  0.00    +0.000 A 
ATOM     24  C   UNL     1       7.437   4.717  15.695  0.00  0.00    +0.000 A 
ATOM     25  C   UNL     1       6.495   4.485  14.683  0.00  0.00    +0.000 A 
ATOM     26  C   UNL     1       6.917   4.430  13.243  0.00  0.00    +0.000 C 
ATOM     27  C   UNL     1       5.149   4.293  15.023  0.00  0.00    +0.000 A 
ATOM     28  C   UNL     1       4.743   4.335  16.360  0.00  0.00    +0.000 A 
ENDBRANCH  19  22
ENDBRANCH  18  19
BRANCH  18  29
ATOM     29  C   UNL     1       2.698   3.688  19.332  0.00  0.00    +0.000 C 
BRANCH  29  30
ATOM     30  C   UNL     1       1.709   3.255  18.241  0.00  0.00    +0.000 C 
BRANCH  30  32
ATOM     31  C   UNL     1       3.217   1.427  18.039  0.00  0.00    +0.000 C 
ATOM     32  O   UNL     1       2.138   2.140  17.461  0.00  0.00    +0.000 OA
ENDBRANCH  30  32
ENDBRANCH  29  30
ENDBRANCH  18  29
ENDBRANCH   1  18
TORSDOF 11
ENDMDL
MODEL 2
REMARK VINA RESULT:      -7.3      0.743      1.232
REMARK  Name = 
REMARK  15 active torsions:
REMARK  status: ('A' for Active; 'I' for Inactive)
REMARK    1  A    between atoms: C_1  and  O_2
REMARK    2  A    between atoms: O_2  and  C_3
REMARK    3  A    between atoms: C_3  and  C_4
REMARK    4  A    between atoms: C_4  and  N_5
REMARK    5  A    between atoms: N_5  and  C_6
REMARK    6  A    between atoms: N_5  and  S_23
REMARK    7  A    between atoms: C_6  and  C_7
REMARK    8  A    between atoms: C_10  and  C_11
REMARK    9  A    between atoms: C_11  and  O_12
REMARK   10  A    between atoms: O_12  and  C_13
REMARK   11  A    between atoms: C_18  and  C_19
REMARK   12  A    between atoms: C_19  and  C_20
REMARK   13  A    between atoms: C_19  and  C_21
REMARK   14  A    between atoms: S_23  and  C_26
REMARK   15  A    between atoms: C_29  and  C_30
REMARK                            x       y       z     vdW  Elec       q    Type
REMARK                         _______ _______ _______ _____ _____    ______ ____
ROOT
ATOM      1  C   UNL     1       3.242   5.901  19.779  0.00  0.00    +0.000 C 
ENDROOT
BRANCH   1   2
ATOM      2  C   UNL     1       2.606   7.161  19.285  0.00  0.00    +0.000 A 
ATOM      3  C   UNL     1       2.775   7.761  18.050  0.00  0.00    +0.000 A 
ATOM      4  S   UNL     1       1.847   9.195  17.959  0.00  0.00    +0.000 S 
ATOM      5  C   UNL     1       1.307   8.937  19.575  0.00  0.00    +0.000 A 
ATOM      6  N   UNL     1       1.749   7.837  20.146  0.00  0.00    +0.000 NA
BRANCH   5   7
ATOM      7  C   UNL     1       0.343   9.900  20.197  0.00  0.00    +0.000 C 
BRANCH   7   8
ATOM      8  O   UNL     1       0.010  10.891  19.216  0.00  0.00    +0.000 OA
BRANCH   8   9
ATOM      9  C   UNL     1      -1.295  10.944  18.798  0.00  0.00    +0.000 A 
ATOM     10  C   UNL     1      -1.792  10.159  17.740  0.00  0.00    +0.000 A 
ATOM     11  C   UNL     1      -3.111  10.271  17.302  0.00  0.00    +0.000 A 
ATOM     12  C   UNL     1      -3.960  11.163  17.920  0.00  0.00    +0.000 A 
ATOM     13  C   UNL     1      -3.497  11.937  18.984  0.00  0.00    +0.000 A 
ATOM     14  C   UNL     1      -2.165  11.854  19.444  0.00  0.00    +0.000 A 
BRANCH  14  15
ATOM     15  C   UNL     1      -1.825  12.737  20.645  0.00  0.00    +0.000 C 
ATOM     16  C   UNL     1      -2.706  13.993  20.668  0.00  0.00    +0.000 C 
ATOM     17  C   UNL     1      -1.793  12.089  22.028  0.00  0.00    +0.000 C 
ENDBRANCH  14  15
ENDBRANCH   8   9
ENDBRANCH   7   8
ENDBRANCH   5   7
ENDBRANCH   1   2
BRANCH   1  18
ATOM     18  N   UNL     1       3.608   4.934  18.691  0.00  0.00    +0.000 NA
BRANCH  18  19
ATOM     19  S   UNL     1       5.306   4.583  18.840  0.00  0.00    +0.000 S 
ATOM     20  O   UNL     1       5.939   5.706  19.498  0.00  0.00    +0.000 OA
ATOM     21  O   UNL     1       5.416   3.245  19.376  0.00  0.00    +0.000 OA
BRANCH  19  22
ATOM     22  C   UNL     1       5.897   4.579  17.172  0.00  0.00    +0.000 A 
ATOM     23  C   UNL     1       5.001   4.293  16.141  0.00  0.00    +0.000 A 
ATOM     24  C   UNL     1       5.436   4.342  14.818  0.00  0.00    +0.000 A 
ATOM     25  C   UNL     1       6.761   4.690  14.520  0.00  0.00    +0.000 A 
ATOM     26  C   UNL     1       7.235   4.752  13.097  0.00  0.00    +0.000 C 
ATOM     27  C   UNL     1       7.646   4.991  15.563  0.00  0.00    +0.000 A 
ATOM     28  C   UNL     1       7.217   4.944  16.893  0.00  0.00    +0.000 A 
ENDBRANCH  19  22
ENDBRANCH  18  19
BRANCH  18  29
ATOM     29  C   UNL     1       2.786   3.665  18.684  0.00  0.00    +0.000 C 
BRANCH  29  30
ATOM     30  C   UNL     1       1.437   3.737  17.956  0.00  0.00    +0.000 C 
BRANCH  30  32
ATOM     31  C   UNL     1       0.679   2.373  19.751  0.00  0.00    +0.000 C 
ATOM     32  O   UNL     1       0.463   2.803  18.419  0.00  0.00    +0.000 OA
ENDBRANCH  30  32
ENDBRANCH  29  30
ENDBRANCH  18  29
ENDBRANCH   1  18
TORSDOF 11
ENDMDL
MODEL 3
REMARK VINA RESULT:      -7.3      2.629      3.450
REMARK  Name = 
REMARK  15 active torsions:
REMARK  status: ('A' for Active; 'I' for Inactive)
REMARK    1  A    between atoms: C_1  and  O_2
REMARK    2  A    between atoms: O_2  and  C_3
REMARK    3  A    between atoms: C_3  and  C_4
REMARK    4  A    between atoms: C_4  and  N_5
REMARK    5  A    between atoms: N_5  and  C_6
REMARK    6  A    between atoms: N_5  and  S_23
REMARK    7  A    between atoms: C_6  and  C_7
REMARK    8  A    between atoms: C_10  and  C_11
REMARK    9  A    between atoms: C_11  and  O_12
REMARK   10  A    between atoms: O_12  and  C_13
REMARK   11  A    between atoms: C_18  and  C_19
REMARK   12  A    between atoms: C_19  and  C_20
REMARK   13  A    between atoms: C_19  and  C_21
REMARK   14  A    between atoms: S_23  and  C_26
REMARK   15  A    between atoms: C_29  and  C_30
REMARK                            x       y       z     vdW  Elec       q    Type
REMARK                         _______ _______ _______ _____ _____    ______ ____
ROOT
ATOM      1  C   UNL     1       3.119   5.690  19.528  0.00  0.00    +0.000 C 
ENDROOT
BRANCH   1   2
ATOM      2  C   UNL     1       2.453   7.015  19.334  0.00  0.00    +0.000 A 
ATOM      3  C   UNL     1       2.408   7.773  18.178  0.00  0.00    +0.000 A 
ATOM      4  S   UNL     1       1.539   9.220  18.455  0.00  0.00    +0.000 S 
ATOM      5  C   UNL     1       1.305   8.755  20.098  0.00  0.00    +0.000 A 
ATOM      6  N   UNL     1       1.803   7.581  20.425  0.00  0.00    +0.000 NA
BRANCH   5   7
ATOM      7  C   UNL     1       0.517   9.639  21.015  0.00  0.00    +0.000 C 
BRANCH   7   8
ATOM      8  O   UNL     1       0.304  10.890  20.348  0.00  0.00    +0.000 OA
BRANCH   8   9
ATOM      9  C   UNL     1      -0.183  11.927  21.103  0.00  0.00    +0.000 A 
ATOM     10  C   UNL     1      -0.736  11.745  22.385  0.00  0.00    +0.000 A 
ATOM     11  C   UNL     1      -1.270  12.810  23.110  0.00  0.00    +0.000 A 
ATOM     12  C   UNL     1      -1.252  14.078  22.570  0.00  0.00    +0.000 A 
ATOM     13  C   UNL     1      -0.691  14.287  21.310  0.00  0.00    +0.000 A 
ATOM     14  C   UNL     1      -0.151  13.228  20.548  0.00  0.00    +0.000 A 
BRANCH  14  15
ATOM     15  C   UNL     1       0.465  13.627  19.206  0.00  0.00    +0.000 C 
ATOM     16  C   UNL     1      -0.056  14.996  18.751  0.00  0.00    +0.000 C 
ATOM     17  C   UNL     1       1.985  13.567  19.066  0.00  0.00    +0.000 C 
ENDBRANCH  14  15
ENDBRANCH   8   9
ENDBRANCH   7   8
ENDBRANCH   5   7
ENDBRANCH   1   2
BRANCH   1  18
ATOM     18  N   UNL     1       3.103   4.813  18.309  0.00  0.00    +0.000 NA
BRANCH  18  19
ATOM     19  S   UNL     1       4.650   4.025  18.202  0.00  0.00    +0.000 S 
ATOM     20  O   UNL     1       4.916   3.383  19.471  0.00  0.00    +0.000 OA
ATOM     21  O   UNL     1       4.656   3.271  16.968  0.00  0.00    +0.000 OA
BRANCH  19  22
ATOM     22  C   UNL     1       5.807   5.357  18.060  0.00  0.00    +0.000 A 
ATOM     23  C   UNL     1       5.531   6.397  17.171  0.00  0.00    +0.000 A 
ATOM     24  C   UNL     1       6.402   7.482  17.090  0.00  0.00    +0.000 A 
ATOM     25  C   UNL     1       7.543   7.538  17.903  0.00  0.00    +0.000 A 
ATOM     26  C   UNL     1       8.481   8.706  17.826  0.00  0.00    +0.000 C 
ATOM     27  C   UNL     1       7.800   6.495  18.803  0.00  0.00    +0.000 A 
ATOM     28  C   UNL     1       6.930   5.403  18.891  0.00  0.00    +0.000 A 
ENDBRANCH  19  22
ENDBRANCH  18  19
BRANCH  18  29
ATOM     29  C   UNL     1       1.974   3.809  18.281  0.00  0.00    +0.000 C 
BRANCH  29  30
ATOM     30  C   UNL     1       1.166   3.663  19.578  0.00  0.00    +0.000 C 
BRANCH  30  32
ATOM     31  C   UNL     1       1.693   2.630  21.654  0.00  0.00    +0.000 C 
ATOM     32  O   UNL     1       1.391   2.443  20.283  0.00  0.00    +0.000 OA
ENDBRANCH  30  32
ENDBRANCH  29  30
ENDBRANCH  18  29
ENDBRANCH   1  18
TORSDOF 11
ENDMDL
MODEL 4
REMARK VINA RESULT:      -7.2      0.990      2.311
REMARK  Name = 
REMARK  15 active torsions:
REMARK  status: ('A' for Active; 'I' for Inactive)
REMARK    1  A    between atoms: C_1  and  O_2
REMARK    2  A    between atoms: O_2  and  C_3
REMARK    3  A    between atoms: C_3  and  C_4
REMARK    4  A    between atoms: C_4  and  N_5
REMARK    5  A    between atoms: N_5  and  C_6
REMARK    6  A    between atoms: N_5  and  S_23
REMARK    7  A    between atoms: C_6  and  C_7
REMARK    8  A    between atoms: C_10  and  C_11
REMARK    9  A    between atoms: C_11  and  O_12
REMARK   10  A    between atoms: O_12  and  C_13
REMARK   11  A    between atoms: C_18  and  C_19
REMARK   12  A    between atoms: C_19  and  C_20
REMARK   13  A    between atoms: C_19  and  C_21
REMARK   14  A    between atoms: S_23  and  C_26
REMARK   15  A    between atoms: C_29  and  C_30
REMARK                            x       y       z     vdW  Elec       q    Type
REMARK                         _______ _______ _______ _____ _____    ______ ____
ROOT
ATOM      1  C   UNL     1       2.891   6.244  19.678  0.00  0.00    +0.000 C 
ENDROOT
BRANCH   1   2
ATOM      2  C   UNL     1       2.323   7.545  19.207  0.00  0.00    +0.000 A 
ATOM      3  C   UNL     1       2.483   8.133  17.965  0.00  0.00    +0.000 A 
ATOM      4  S   UNL     1       1.652   9.626  17.907  0.00  0.00    +0.000 S 
ATOM      5  C   UNL     1       1.160   9.406  19.543  0.00  0.00    +0.000 A 
ATOM      6  N   UNL     1       1.549   8.278  20.099  0.00  0.00    +0.000 NA
BRANCH   5   7
ATOM      7  C   UNL     1       0.290  10.432  20.202  0.00  0.00    +0.000 C 
BRANCH   7   8
ATOM      8  O   UNL     1      -0.669  10.884  19.237  0.00  0.00    +0.000 OA
BRANCH   8   9
ATOM      9  C   UNL     1      -1.740  11.600  19.707  0.00  0.00    +0.000 A 
ATOM     10  C   UNL     1      -1.732  12.260  20.950  0.00  0.00    +0.000 A 
ATOM     11  C   UNL     1      -2.854  12.939  21.426  0.00  0.00    +0.000 A 
ATOM     12  C   UNL     1      -4.000  12.978  20.664  0.00  0.00    +0.000 A 
ATOM     13  C   UNL     1      -4.026  12.349  19.418  0.00  0.00    +0.000 A 
ATOM     14  C   UNL     1      -2.911  11.646  18.913  0.00  0.00    +0.000 A 
BRANCH  14  15
ATOM     15  C   UNL     1      -3.084  11.048  17.516  0.00  0.00    +0.000 C 
ATOM     16  C   UNL     1      -3.162   9.517  17.582  0.00  0.00    +0.000 C 
ATOM     17  C   UNL     1      -4.204  11.597  16.633  0.00  0.00    +0.000 C 
ENDBRANCH  14  15
ENDBRANCH   8   9
ENDBRANCH   7   8
ENDBRANCH   5   7
ENDBRANCH   1   2
BRANCH   1  18
ATOM     18  N   UNL     1       3.177   5.267  18.575  0.00  0.00    +0.000 NA
BRANCH  18  19
ATOM     19  S   UNL     1       4.750   4.583  18.867  0.00  0.00    +0.000 S 
ATOM     20  O   UNL     1       5.495   5.507  19.695  0.00  0.00    +0.000 OA
ATOM     21  O   UNL     1       4.545   3.212  19.279  0.00  0.00    +0.000 OA
BRANCH  19  22
ATOM     22  C   UNL     1       5.529   4.590  17.278  0.00  0.00    +0.000 A 
ATOM     23  C   UNL     1       4.764   4.282  16.152  0.00  0.00    +0.000 A 
ATOM     24  C   UNL     1       5.347   4.340  14.887  0.00  0.00    +0.000 A 
ATOM     25  C   UNL     1       6.690   4.716  14.742  0.00  0.00    +0.000 A 
ATOM     26  C   UNL     1       7.323   4.788  13.383  0.00  0.00    +0.000 C 
ATOM     27  C   UNL     1       7.442   5.038  15.880  0.00  0.00    +0.000 A 
ATOM     28  C   UNL     1       6.864   4.983  17.152  0.00  0.00    +0.000 A 
ENDBRANCH  19  22
ENDBRANCH  18  19
BRANCH  18  29
ATOM     29  C   UNL     1       2.132   4.187  18.414  0.00  0.00    +0.000 C 
BRANCH  29  30
ATOM     30  C   UNL     1       1.166   4.000  19.591  0.00  0.00    +0.000 C 
BRANCH  30  32
ATOM     31  C   UNL     1       1.477   1.711  19.025  0.00  0.00    +0.000 C 
ATOM     32  O   UNL     1       0.855   2.641  19.894  0.00  0.00    +0.000 OA
ENDBRANCH  30  32
ENDBRANCH  29  30
ENDBRANCH  18  29
ENDBRANCH   1  18
TORSDOF 11
ENDMDL
MODEL 5
REMARK VINA RESULT:      -7.2      2.030      2.862
REMARK  Name = 
REMARK  15 active torsions:
REMARK  status: ('A' for Active; 'I' for Inactive)
REMARK    1  A    between atoms: C_1  and  O_2
REMARK    2  A    between atoms: O_2  and  C_3
REMARK    3  A    between atoms: C_3  and  C_4
REMARK    4  A    between atoms: C_4  and  N_5
REMARK    5  A    between atoms: N_5  and  C_6
REMARK    6  A    between atoms: N_5  and  S_23
REMARK    7  A    between atoms: C_6  and  C_7
REMARK    8  A    between atoms: C_10  and  C_11
REMARK    9  A    between atoms: C_11  and  O_12
REMARK   10  A    between atoms: O_12  and  C_13
REMARK   11  A    between atoms: C_18  and  C_19
REMARK   12  A    between atoms: C_19  and  C_20
REMARK   13  A    between atoms: C_19  and  C_21
REMARK   14  A    between atoms: S_23  and  C_26
REMARK   15  A    between atoms: C_29  and  C_30
REMARK                            x       y       z     vdW  Elec       q    Type
REMARK                         _______ _______ _______ _____ _____    ______ ____
ROOT
ATOM      1  C   UNL     1       2.961   6.028  19.749  0.00  0.00    +0.000 C 
ENDROOT
BRANCH   1   2
ATOM      2  C   UNL     1       2.327   7.326  19.364  0.00  0.00    +0.000 A 
ATOM      3  C   UNL     1       2.370   7.951  18.130  0.00  0.00    +0.000 A 
ATOM      4  S   UNL     1       1.504   9.424  18.184  0.00  0.00    +0.000 S 
ATOM      5  C   UNL     1       1.153   9.147  19.848  0.00  0.00    +0.000 A 
ATOM      6  N   UNL     1       1.612   8.015  20.338  0.00  0.00    +0.000 NA
BRANCH   5   7
ATOM      7  C   UNL     1       0.316  10.133  20.605  0.00  0.00    +0.000 C 
BRANCH   7   8
ATOM      8  O   UNL     1       1.194  11.111  21.177  0.00  0.00    +0.000 OA
BRANCH   8   9
ATOM      9  C   UNL     1       1.091  12.396  20.709  0.00  0.00    +0.000 A 
ATOM     10  C   UNL     1       1.956  12.925  19.732  0.00  0.00    +0.000 A 
ATOM     11  C   UNL     1       1.860  14.251  19.310  0.00  0.00    +0.000 A 
ATOM     12  C   UNL     1       0.893  15.070  19.851  0.00  0.00    +0.000 A 
ATOM     13  C   UNL     1       0.011  14.562  20.806  0.00  0.00    +0.000 A 
ATOM     14  C   UNL     1       0.088  13.228  21.260  0.00  0.00    +0.000 A 
BRANCH  14  15
ATOM     15  C   UNL     1      -0.977  12.813  22.277  0.00  0.00    +0.000 C 
ATOM     16  C   UNL     1      -1.094  13.852  23.400  0.00  0.00    +0.000 C 
ATOM     17  C   UNL     1      -2.363  12.441  21.755  0.00  0.00    +0.000 C 
ENDBRANCH  14  15
ENDBRANCH   8   9
ENDBRANCH   7   8
ENDBRANCH   5   7
ENDBRANCH   1   2
BRANCH   1  18
ATOM     18  N   UNL     1       3.224   5.109  18.592  0.00  0.00    +0.000 NA
BRANCH  18  19
ATOM     19  S   UNL     1       4.782   4.376  18.839  0.00  0.00    +0.000 S 
ATOM     20  O   UNL     1       5.549   5.237  19.714  0.00  0.00    +0.000 OA
ATOM     21  O   UNL     1       4.550   2.990  19.173  0.00  0.00    +0.000 OA
BRANCH  19  22
ATOM     22  C   UNL     1       5.557   4.457  17.250  0.00  0.00    +0.000 A 
ATOM     23  C   UNL     1       4.779   4.244  16.110  0.00  0.00    +0.000 A 
ATOM     24  C   UNL     1       5.360   4.362  14.848  0.00  0.00    +0.000 A 
ATOM     25  C   UNL     1       6.714   4.704  14.721  0.00  0.00    +0.000 A 
ATOM     26  C   UNL     1       7.345   4.840  13.365  0.00  0.00    +0.000 C 
ATOM     27  C   UNL     1       7.479   4.932  15.872  0.00  0.00    +0.000 A 
ATOM     28  C   UNL     1       6.904   4.816  17.141  0.00  0.00    +0.000 A 
ENDBRANCH  19  22
ENDBRANCH  18  19
BRANCH  18  29
ATOM     29  C   UNL     1       2.156   4.061  18.375  0.00  0.00    +0.000 C 
BRANCH  29  30
ATOM     30  C   UNL     1       1.229   3.784  19.566  0.00  0.00    +0.000 C 
BRANCH  30  32
ATOM     31  C   UNL     1       1.670   2.726  21.650  0.00  0.00    +0.000 C 
ATOM     32  O   UNL     1       1.496   2.563  20.254  0.00  0.00    +0.000 OA
ENDBRANCH  30  32
ENDBRANCH  29  30
ENDBRANCH  18  29
ENDBRANCH   1  18
TORSDOF 11
ENDMDL
MODEL 6
REMARK VINA RESULT:      -7.2      2.176      3.385
REMARK  Name = 
REMARK  15 active torsions:
REMARK  status: ('A' for Active; 'I' for Inactive)
REMARK    1  A    between atoms: C_1  and  O_2
REMARK    2  A    between atoms: O_2  and  C_3
REMARK    3  A    between atoms: C_3  and  C_4
REMARK    4  A    between atoms: C_4  and  N_5
REMARK    5  A    between atoms: N_5  and  C_6
REMARK    6  A    between atoms: N_5  and  S_23
REMARK    7  A    between atoms: C_6  and  C_7
REMARK    8  A    between atoms: C_10  and  C_11
REMARK    9  A    between atoms: C_11  and  O_12
REMARK   10  A    between atoms: O_12  and  C_13
REMARK   11  A    between atoms: C_18  and  C_19
REMARK   12  A    between atoms: C_19  and  C_20
REMARK   13  A    between atoms: C_19  and  C_21
REMARK   14  A    between atoms: S_23  and  C_26
REMARK   15  A    between atoms: C_29  and  C_30
REMARK                            x       y       z     vdW  Elec       q    Type
REMARK                         _______ _______ _______ _____ _____    ______ ____
ROOT
ATOM      1  C   UNL     1       3.703   5.367  18.874  0.00  0.00    +0.000 C 
ENDROOT
BRANCH   1   2
ATOM      2  C   UNL     1       2.951   6.659  18.890  0.00  0.00    +0.000 A 
ATOM      3  C   UNL     1       2.831   7.577  17.861  0.00  0.00    +0.000 A 
ATOM      4  S   UNL     1       1.880   8.906  18.363  0.00  0.00    +0.000 S 
ATOM      5  C   UNL     1       1.714   8.188  19.921  0.00  0.00    +0.000 A 
ATOM      6  N   UNL     1       2.292   7.014  20.062  0.00  0.00    +0.000 NA
BRANCH   5   7
ATOM      7  C   UNL     1       0.894   8.873  20.971  0.00  0.00    +0.000 C 
BRANCH   7   8
ATOM      8  O   UNL     1      -0.123   9.636  20.310  0.00  0.00    +0.000 OA
BRANCH   8   9
ATOM      9  C   UNL     1      -0.725  10.636  21.032  0.00  0.00    +0.000 A 
ATOM     10  C   UNL     1      -0.727  10.666  22.439  0.00  0.00    +0.000 A 
ATOM     11  C   UNL     1      -1.390  11.668  23.149  0.00  0.00    +0.000 A 
ATOM     12  C   UNL     1      -2.055  12.661  22.463  0.00  0.00    +0.000 A 
ATOM     13  C   UNL     1      -2.050  12.664  21.068  0.00  0.00    +0.000 A 
ATOM     14  C   UNL     1      -1.396  11.659  20.322  0.00  0.00    +0.000 A 
BRANCH  14  15
ATOM     15  C   UNL     1      -1.447  11.827  18.802  0.00  0.00    +0.000 C 
ATOM     16  C   UNL     1      -2.894  11.785  18.295  0.00  0.00    +0.000 C 
ATOM     17  C   UNL     1      -0.704  13.010  18.184  0.00  0.00    +0.000 C 
ENDBRANCH  14  15
ENDBRANCH   8   9
ENDBRANCH   7   8
ENDBRANCH   5   7
ENDBRANCH   1   2
BRANCH   1  18
ATOM     18  N   UNL     1       4.268   5.006  17.531  0.00  0.00    +0.000 NA
BRANCH  18  19
ATOM     19  S   UNL     1       5.917   4.502  17.767  0.00  0.00    +0.000 S 
ATOM     20  O   UNL     1       6.007   3.852  19.056  0.00  0.00    +0.000 OA
ATOM     21  O   UNL     1       6.329   3.825  16.558  0.00  0.00    +0.000 OA
BRANCH  19  22
ATOM     22  C   UNL     1       6.818   6.019  17.904  0.00  0.00    +0.000 A 
ATOM     23  C   UNL     1       6.456   7.094  17.091  0.00  0.00    +0.000 A 
ATOM     24  C   UNL     1       7.116   8.314  17.227  0.00  0.00    +0.000 A 
ATOM     25  C   UNL     1       8.131   8.468  18.183  0.00  0.00    +0.000 A 
ATOM     26  C   UNL     1       8.842   9.780  18.340  0.00  0.00    +0.000 C 
ATOM     27  C   UNL     1       8.474   7.385  19.005  0.00  0.00    +0.000 A 
ATOM     28  C   UNL     1       7.815   6.159  18.874  0.00  0.00    +0.000 A 
ENDBRANCH  19  22
ENDBRANCH  18  19
BRANCH  18  29
ATOM     29  C   UNL     1       3.477   3.955  16.786  0.00  0.00    +0.000 C 
BRANCH  29  30
ATOM     30  C   UNL     1       2.310   3.317  17.553  0.00  0.00    +0.000 C 
BRANCH  30  32
ATOM     31  C   UNL     1       1.807   1.933  19.421  0.00  0.00    +0.000 C 
ATOM     32  O   UNL     1       2.661   2.162  18.313  0.00  0.00    +0.000 OA
ENDBRANCH  30  32
ENDBRANCH  29  30
ENDBRANCH  18  29
ENDBRANCH   1  18
TORSDOF 11
ENDMDL
MODEL 7
REMARK VINA RESULT:      -7.2      2.271      4.242
REMARK  Name = 
REMARK  15 active torsions:
REMARK  status: ('A' for Active; 'I' for Inactive)
REMARK    1  A    between atoms: C_1  and  O_2
REMARK    2  A    between atoms: O_2  and  C_3
REMARK    3  A    between atoms: C_3  and  C_4
REMARK    4  A    between atoms: C_4  and  N_5
REMARK    5  A    between atoms: N_5  and  C_6
REMARK    6  A    between atoms: N_5  and  S_23
REMARK    7  A    between atoms: C_6  and  C_7
REMARK    8  A    between atoms: C_10  and  C_11
REMARK    9  A    between atoms: C_11  and  O_12
REMARK   10  A    between atoms: O_12  and  C_13
REMARK   11  A    between atoms: C_18  and  C_19
REMARK   12  A    between atoms: C_19  and  C_20
REMARK   13  A    between atoms: C_19  and  C_21
REMARK   14  A    between atoms: S_23  and  C_26
REMARK   15  A    between atoms: C_29  and  C_30
REMARK                            x       y       z     vdW  Elec       q    Type
REMARK                         _______ _______ _______ _____ _____    ______ ____
ROOT
ATOM      1  C   UNL     1       4.755   6.705  16.749  0.00  0.00    +0.000 C 
ENDROOT
BRANCH   1   2
ATOM      2  C   UNL     1       3.696   7.265  17.643  0.00  0.00    +0.000 A 
ATOM      3  C   UNL     1       3.212   6.720  18.818  0.00  0.00    +0.000 A 
ATOM      4  S   UNL     1       1.994   7.723  19.477  0.00  0.00    +0.000 S 
ATOM      5  C   UNL     1       2.172   8.800  18.143  0.00  0.00    +0.000 A 
ATOM      6  N   UNL     1       3.102   8.467  17.274  0.00  0.00    +0.000 NA
BRANCH   5   7
ATOM      7  C   UNL     1       1.344  10.046  18.079  0.00  0.00    +0.000 C 
BRANCH   7   8
ATOM      8  O   UNL     1       0.254   9.902  19.000  0.00  0.00    +0.000 OA
BRANCH   8   9
ATOM      9  C   UNL     1      -0.972  10.368  18.599  0.00  0.00    +0.000 A 
ATOM     10  C   UNL     1      -1.692   9.802  17.530  0.00  0.00    +0.000 A 
ATOM     11  C   UNL     1      -2.914  10.328  17.110  0.00  0.00    +0.000 A 
ATOM     12  C   UNL     1      -3.441  11.425  17.757  0.00  0.00    +0.000 A 
ATOM     13  C   UNL     1      -2.755  11.991  18.832  0.00  0.00    +0.000 A 
ATOM     14  C   UNL     1      -1.513  11.487  19.274  0.00  0.00    +0.000 A 
BRANCH  14  15
ATOM     15  C   UNL     1      -0.910  12.192  20.491  0.00  0.00    +0.000 C 
ATOM     16  C   UNL     1      -1.030  13.715  20.356  0.00  0.00    +0.000 C 
ATOM     17  C   UNL     1      -1.367  11.747  21.879  0.00  0.00    +0.000 C 
ENDBRANCH  14  15
ENDBRANCH   8   9
ENDBRANCH   7   8
ENDBRANCH   5   7
ENDBRANCH   1   2
BRANCH   1  18
ATOM     18  N   UNL     1       6.049   6.404  17.448  0.00  0.00    +0.000 NA
BRANCH  18  19
ATOM     19  S   UNL     1       6.359   4.700  17.281  0.00  0.00    +0.000 S 
ATOM     20  O   UNL     1       6.405   4.388  15.868  0.00  0.00    +0.000 OA
ATOM     21  O   UNL     1       7.469   4.384  18.151  0.00  0.00    +0.000 OA
BRANCH  19  22
ATOM     22  C   UNL     1       4.899   3.929  17.918  0.00  0.00    +0.000 A 
ATOM     23  C   UNL     1       3.890   3.556  17.027  0.00  0.00    +0.000 A 
ATOM     24  C   UNL     1       2.760   2.895  17.505  0.00  0.00    +0.000 A 
ATOM     25  C   UNL     1       2.638   2.594  18.869  0.00  0.00    +0.000 A 
ATOM     26  C   UNL     1       1.427   1.876  19.390  0.00  0.00    +0.000 C 
ATOM     27  C   UNL     1       3.666   2.958  19.750  0.00  0.00    +0.000 A 
ATOM     28  C   UNL     1       4.802   3.621  19.278  0.00  0.00    +0.000 A 
ENDBRANCH  19  22
ENDBRANCH  18  19
BRANCH  18  29
ATOM     29  C   UNL     1       7.224   7.223  16.964  0.00  0.00    +0.000 C 
BRANCH  29  30
ATOM     30  C   UNL     1       7.953   8.054  18.028  0.00  0.00    +0.000 C 
BRANCH  30  32
ATOM     31  C   UNL     1       8.936  10.210  18.232  0.00  0.00    +0.000 C 
ATOM     32  O   UNL     1       7.777   9.464  17.903  0.00  0.00    +0.000 OA
ENDBRANCH  30  32
ENDBRANCH  29  30
ENDBRANCH  18  29
ENDBRANCH   1  18
TORSDOF 11
ENDMDL
MODEL 8
REMARK VINA RESULT:      -7.1      1.191      1.359
REMARK  Name = 
REMARK  15 active torsions:
REMARK  status: ('A' for Active; 'I' for Inactive)
REMARK    1  A    between atoms: C_1  and  O_2
REMARK    2  A    between atoms: O_2  and  C_3
REMARK    3  A    between atoms: C_3  and  C_4
REMARK    4  A    between atoms: C_4  and  N_5
REMARK    5  A    between atoms: N_5  and  C_6
REMARK    6  A    between atoms: N_5  and  S_23
REMARK    7  A    between atoms: C_6  and  C_7
REMARK    8  A    between atoms: C_10  and  C_11
REMARK    9  A    between atoms: C_11  and  O_12
REMARK   10  A    between atoms: O_12  and  C_13
REMARK   11  A    between atoms: C_18  and  C_19
REMARK   12  A    between atoms: C_19  and  C_20
REMARK   13  A    between atoms: C_19  and  C_21
REMARK   14  A    between atoms: S_23  and  C_26
REMARK   15  A    between atoms: C_29  and  C_30
REMARK                            x       y       z     vdW  Elec       q    Type
REMARK                         _______ _______ _______ _____ _____    ______ ____
ROOT
ATOM      1  C   UNL     1       3.018   5.805  20.172  0.00  0.00    +0.000 C 
ENDROOT
BRANCH   1   2
ATOM      2  C   UNL     1       2.247   7.086  20.131  0.00  0.00    +0.000 A 
ATOM      3  C   UNL     1       1.563   7.690  21.171  0.00  0.00    +0.000 A 
ATOM      4  S   UNL     1       0.827   9.136  20.632  0.00  0.00    +0.000 S 
ATOM      5  C   UNL     1       1.442   8.849  19.048  0.00  0.00    +0.000 A 
ATOM      6  N   UNL     1       2.183   7.768  18.921  0.00  0.00    +0.000 NA
BRANCH   5   7
ATOM      7  C   UNL     1       1.173   9.838  17.956  0.00  0.00    +0.000 C 
BRANCH   7   8
ATOM      8  O   UNL     1       0.326  10.865  18.488  0.00  0.00    +0.000 OA
BRANCH   8   9
ATOM      9  C   UNL     1      -1.012  10.787  18.195  0.00  0.00    +0.000 A 
ATOM     10  C   UNL     1      -1.532   9.910  17.225  0.00  0.00    +0.000 A 
ATOM     11  C   UNL     1      -2.891   9.887  16.911  0.00  0.00    +0.000 A 
ATOM     12  C   UNL     1      -3.755  10.736  17.568  0.00  0.00    +0.000 A 
ATOM     13  C   UNL     1      -3.267  11.600  18.548  0.00  0.00    +0.000 A 
ATOM     14  C   UNL     1      -1.896  11.653  18.881  0.00  0.00    +0.000 A 
BRANCH  14  15
ATOM     15  C   UNL     1      -1.526  12.623  20.005  0.00  0.00    +0.000 C 
ATOM     16  C   UNL     1      -0.852  13.881  19.443  0.00  0.00    +0.000 C 
ATOM     17  C   UNL     1      -2.612  13.009  21.008  0.00  0.00    +0.000 C 
ENDBRANCH  14  15
ENDBRANCH   8   9
ENDBRANCH   7   8
ENDBRANCH   5   7
ENDBRANCH   1   2
BRANCH   1  18
ATOM     18  N   UNL     1       3.344   5.245  18.818  0.00  0.00    +0.000 NA
BRANCH  18  19
ATOM     19  S   UNL     1       4.909   4.493  18.917  0.00  0.00    +0.000 S 
ATOM     20  O   UNL     1       5.744   5.306  19.776  0.00  0.00    +0.000 OA
ATOM     21  O   UNL     1       4.689   3.092  19.199  0.00  0.00    +0.000 OA
BRANCH  19  22
ATOM     22  C   UNL     1       5.570   4.647  17.283  0.00  0.00    +0.000 A 
ATOM     23  C   UNL     1       6.521   5.637  17.031  0.00  0.00    +0.000 A 
ATOM     24  C   UNL     1       7.095   5.735  15.764  0.00  0.00    +0.000 A 
ATOM     25  C   UNL     1       6.730   4.838  14.750  0.00  0.00    +0.000 A 
ATOM     26  C   UNL     1       7.348   4.933  13.385  0.00  0.00    +0.000 C 
ATOM     27  C   UNL     1       5.785   3.838  15.020  0.00  0.00    +0.000 A 
ATOM     28  C   UNL     1       5.206   3.734  16.288  0.00  0.00    +0.000 A 
ENDBRANCH  19  22
ENDBRANCH  18  19
BRANCH  18  29
ATOM     29  C   UNL     1       2.309   4.284  18.277  0.00  0.00    +0.000 C 
BRANCH  29  30
ATOM     30  C   UNL     1       1.216   3.844  19.260  0.00  0.00    +0.000 C 
BRANCH  30  32
ATOM     31  C   UNL     1       1.655   2.625  21.255  0.00  0.00    +0.000 C 
ATOM     32  O   UNL     1       1.435   2.566  19.856  0.00  0.00    +0.000 OA
ENDBRANCH  30  32
ENDBRANCH  29  30
ENDBRANCH  18  29
ENDBRANCH   1  18
TORSDOF 11
ENDMDL
MODEL 9
REMARK VINA RESULT:      -7.0      2.334      3.186
REMARK  Name = 
REMARK  15 active torsions:
REMARK  status: ('A' for Active; 'I' for Inactive)
REMARK    1  A    between atoms: C_1  and  O_2
REMARK    2  A    between atoms: O_2  and  C_3
REMARK    3  A    between atoms: C_3  and  C_4
REMARK    4  A    between atoms: C_4  and  N_5
REMARK    5  A    between atoms: N_5  and  C_6
REMARK    6  A    between atoms: N_5  and  S_23
REMARK    7  A    between atoms: C_6  and  C_7
REMARK    8  A    between atoms: C_10  and  C_11
REMARK    9  A    between atoms: C_11  and  O_12
REMARK   10  A    between atoms: O_12  and  C_13
REMARK   11  A    between atoms: C_18  and  C_19
REMARK   12  A    between atoms: C_19  and  C_20
REMARK   13  A    between atoms: C_19  and  C_21
REMARK   14  A    between atoms: S_23  and  C_26
REMARK   15  A    between atoms: C_29  and  C_30
REMARK                            x       y       z     vdW  Elec       q    Type
REMARK                         _______ _______ _______ _____ _____    ______ ____
ROOT
ATOM      1  C   UNL     1       2.802   5.522  19.602  0.00  0.00    +0.000 C 
ENDROOT
BRANCH   1   2
ATOM      2  C   UNL     1       2.317   6.910  19.329  0.00  0.00    +0.000 A 
ATOM      3  C   UNL     1       2.371   7.600  18.132  0.00  0.00    +0.000 A 
ATOM      4  S   UNL     1       1.703   9.163  18.320  0.00  0.00    +0.000 S 
ATOM      5  C   UNL     1       1.412   8.828  19.985  0.00  0.00    +0.000 A 
ATOM      6  N   UNL     1       1.751   7.620  20.382  0.00  0.00    +0.000 NA
BRANCH   5   7
ATOM      7  C   UNL     1       0.751   9.860  20.846  0.00  0.00    +0.000 C 
BRANCH   7   8
ATOM      8  O   UNL     1       1.007  11.148  20.269  0.00  0.00    +0.000 OA
BRANCH   8   9
ATOM      9  C   UNL     1       0.033  12.103  20.411  0.00  0.00    +0.000 A 
ATOM     10  C   UNL     1      -1.243  11.821  20.935  0.00  0.00    +0.000 A 
ATOM     11  C   UNL     1      -2.232  12.801  21.021  0.00  0.00    +0.000 A 
ATOM     12  C   UNL     1      -1.959  14.082  20.593  0.00  0.00    +0.000 A 
ATOM     13  C   UNL     1      -0.695  14.391  20.090  0.00  0.00    +0.000 A 
ATOM     14  C   UNL     1       0.323  13.419  19.981  0.00  0.00    +0.000 A 
BRANCH  14  15
ATOM     15  C   UNL     1       1.665  13.926  19.449  0.00  0.00    +0.000 C 
ATOM     16  C   UNL     1       2.719  13.957  20.563  0.00  0.00    +0.000 C 
ATOM     17  C   UNL     1       2.238  13.262  18.198  0.00  0.00    +0.000 C 
ENDBRANCH  14  15
ENDBRANCH   8   9
ENDBRANCH   7   8
ENDBRANCH   5   7
ENDBRANCH   1   2
BRANCH   1  18
ATOM     18  N   UNL     1       2.800   4.626  18.398  0.00  0.00    +0.000 NA
BRANCH  18  19
ATOM     19  S   UNL     1       4.362   3.866  18.300  0.00  0.00    +0.000 S 
ATOM     20  O   UNL     1       4.632   3.230  19.572  0.00  0.00    +0.000 OA
ATOM     21  O   UNL     1       4.389   3.111  17.068  0.00  0.00    +0.000 OA
BRANCH  19  22
ATOM     22  C   UNL     1       5.496   5.218  18.164  0.00  0.00    +0.000 A 
ATOM     23  C   UNL     1       6.593   5.267  19.025  0.00  0.00    +0.000 A 
ATOM     24  C   UNL     1       7.527   6.293  18.893  0.00  0.00    +0.000 A 
ATOM     25  C   UNL     1       7.375   7.265  17.894  0.00  0.00    +0.000 A 
ATOM     26  C   UNL     1       8.380   8.369  17.741  0.00  0.00    +0.000 C 
ATOM     27  C   UNL     1       6.278   7.196  17.025  0.00  0.00    +0.000 A 
ATOM     28  C   UNL     1       5.337   6.169  17.151  0.00  0.00    +0.000 A 
ENDBRANCH  19  22
ENDBRANCH  18  19
BRANCH  18  29
ATOM     29  C   UNL     1       1.691   3.599  18.388  0.00  0.00    +0.000 C 
BRANCH  29  30
ATOM     30  C   UNL     1       0.959   3.381  19.719  0.00  0.00    +0.000 C 
BRANCH  30  32
ATOM     31  C   UNL     1       1.912   2.699  21.789  0.00  0.00    +0.000 C 
ATOM     32  O   UNL     1       1.464   2.303  20.504  0.00  0.00    +0.000 OA
ENDBRANCH  30  32
ENDBRANCH  29  30
ENDBRANCH  18  29
ENDBRANCH   1  18
TORSDOF 11
ENDMDL
