MODEL 1
REMARK VINA RESULT:      -7.4      0.000      0.000
REMARK  Name = 
REMARK  5 active torsions:
REMARK  status: ('A' for Active; 'I' for Inactive)
REMARK    1  A    between atoms: C_7  and  S_8
REMARK    2  A    between atoms: S_8  and  C_9
REMARK    3  A    between atoms: C_9  and  C_10
REMARK    4  A    between atoms: N_12  and  C_13
REMARK    5  A    between atoms: C_13  and  C_14
REMARK                            x       y       z     vdW  Elec       q    Type
REMARK                         _______ _______ _______ _____ _____    ______ ____
ROOT
ATOM      1  C   UNL     1       1.900   8.599  18.317  0.00  0.00    +0.000 A 
ATOM      2  C   UNL     1       2.212   7.712  19.336  0.00  0.00    +0.000 A 
ATOM      3  N   UNL     1       3.260   6.990  18.856  0.00  0.00    +0.000 N 
ATOM      4  N   UNL     1       3.640   7.438  17.645  0.00  0.00    +0.000 NA
ATOM      5  N   UNL     1       2.809   8.421  17.301  0.00  0.00    +0.000 NA
ENDROOT
BRANCH   1   6
ATOM      6  C   UNL     1       0.761   9.567  18.219  0.00  0.00    +0.000 C 
BRANCH   6   7
ATOM      7  S   UNL     1       1.212  11.133  19.025  0.00  0.00    +0.000 S 
BRANCH   7  14
ATOM      8 CL   UNL     1      -4.080  12.383  24.714  0.00  0.00    +0.000 Cl
ATOM      9  C   UNL     1      -3.424  12.409  23.123  0.00  0.00    +0.000 A 
ATOM     10  C   UNL     1      -4.156  12.983  22.091  0.00  0.00    +0.000 A 
ATOM     11  C   UNL     1      -3.644  13.021  20.793  0.00  0.00    +0.000 A 
ATOM     12  C   UNL     1      -2.373  12.467  20.569  0.00  0.00    +0.000 A 
ATOM     13  S   UNL     1      -1.494  12.375  19.101  0.00  0.00    +0.000 S 
ATOM     14  C   UNL     1      -0.206  11.595  19.921  0.00  0.00    +0.000 A 
ATOM     15  N   UNL     1      -0.372  11.390  21.204  0.00  0.00    +0.000 NA
ATOM     16  C   UNL     1      -1.617  11.885  21.590  0.00  0.00    +0.000 A 
ATOM     17  C   UNL     1      -2.156  11.853  22.893  0.00  0.00    +0.000 A 
ENDBRANCH   7  14
ENDBRANCH   6   7
ENDBRANCH   1   6
BRANCH   3  18
ATOM     18  C   UNL     1       3.820   5.769  19.426  0.00  0.00    +0.000 C 
BRANCH  18  19
ATOM     19  C   UNL     1       2.815   4.648  19.430  0.00  0.00    +0.000 A 
ATOM     20  C   UNL     1       2.013   4.453  20.570  0.00  0.00    +0.000 A 
ATOM     21  C   UNL     1       0.973   3.521  20.565  0.00  0.00    +0.000 A 
ATOM     22  C   UNL     1       0.716   2.772  19.421  0.00  0.00    +0.000 A 
ATOM     23  C   UNL     1       1.529   2.916  18.300  0.00  0.00    +0.000 A 
ATOM     24  C   UNL     1       2.583   3.833  18.308  0.00  0.00    +0.000 A 
ATOM     25 CL   UNL     1       3.575   3.907  16.895  0.00  0.00    +0.000 Cl
ENDBRANCH  18  19
ENDBRANCH   3  18
TORSDOF 5
ENDMDL
MODEL 2
REMARK VINA RESULT:      -7.3      2.133      2.533
REMARK  Name = 
REMARK  5 active torsions:
REMARK  status: ('A' for Active; 'I' for Inactive)
REMARK    1  A    between atoms: C_7  and  S_8
REMARK    2  A    between atoms: S_8  and  C_9
REMARK    3  A    between atoms: C_9  and  C_10
REMARK    4  A    between atoms: N_12  and  C_13
REMARK    5  A    between atoms: C_13  and  C_14
REMARK                            x       y       z     vdW  Elec       q    Type
REMARK                         _______ _______ _______ _____ _____    ______ ____
ROOT
ATOM      1  C   UNL     1       1.678   8.938  18.776  0.00  0.00    +0.000 A 
ATOM      2  C   UNL     1       2.397   7.819  18.384  0.00  0.00    +0.000 A 
ATOM      3  N   UNL     1       2.458   7.041  19.498  0.00  0.00    +0.000 N 
ATOM      4  N   UNL     1       1.759   7.591  20.509  0.00  0.00    +0.000 NA
ATOM      5  N   UNL     1       1.282   8.758  20.079  0.00  0.00    +0.000 NA
ENDROOT
BRANCH   1   6
ATOM      6  C   UNL     1       1.390  10.193  18.010  0.00  0.00    +0.000 C 
BRANCH   6   7
ATOM      7  S   UNL     1       0.787  11.481  19.142  0.00  0.00    +0.000 S 
BRANCH   7  14
ATOM      8 CL   UNL     1      -6.927  12.881  19.824  0.00  0.00    +0.000 Cl
ATOM      9  C   UNL     1      -5.490  12.199  19.168  0.00  0.00    +0.000 A 
ATOM     10  C   UNL     1      -5.574  11.360  18.063  0.00  0.00    +0.000 A 
ATOM     11  C   UNL     1      -4.422  10.798  17.509  0.00  0.00    +0.000 A 
ATOM     12  C   UNL     1      -3.187  11.109  18.100  0.00  0.00    +0.000 A 
ATOM     13  S   UNL     1      -1.623  10.579  17.642  0.00  0.00    +0.000 S 
ATOM     14  C   UNL     1      -0.938  11.495  18.920  0.00  0.00    +0.000 A 
ATOM     15  N   UNL     1      -1.778  12.165  19.671  0.00  0.00    +0.000 NA
ATOM     16  C   UNL     1      -3.076  11.950  19.211  0.00  0.00    +0.000 A 
ATOM     17  C   UNL     1      -4.253  12.503  19.757  0.00  0.00    +0.000 A 
ENDBRANCH   7  14
ENDBRANCH   6   7
ENDBRANCH   1   6
BRANCH   3  18
ATOM     18  C   UNL     1       3.298   5.866  19.706  0.00  0.00    +0.000 C 
BRANCH  18  19
ATOM     19  C   UNL     1       2.549   4.592  19.414  0.00  0.00    +0.000 A 
ATOM     20  C   UNL     1       1.555   4.164  20.313  0.00  0.00    +0.000 A 
ATOM     21  C   UNL     1       0.740   3.070  20.012  0.00  0.00    +0.000 A 
ATOM     22  C   UNL     1       0.902   2.391  18.808  0.00  0.00    +0.000 A 
ATOM     23  C   UNL     1       1.912   2.772  17.928  0.00  0.00    +0.000 A 
ATOM     24  C   UNL     1       2.743   3.852  18.235  0.00  0.00    +0.000 A 
ATOM     25 CL   UNL     1       4.004   4.219  17.113  0.00  0.00    +0.000 Cl
ENDBRANCH  18  19
ENDBRANCH   3  18
TORSDOF 5
ENDMDL
MODEL 3
REMARK VINA RESULT:      -7.3      6.775      8.845
REMARK  Name = 
REMARK  5 active torsions:
REMARK  status: ('A' for Active; 'I' for Inactive)
REMARK    1  A    between atoms: C_7  and  S_8
REMARK    2  A    between atoms: S_8  and  C_9
REMARK    3  A    between atoms: C_9  and  C_10
REMARK    4  A    between atoms: N_12  and  C_13
REMARK    5  A    between atoms: C_13  and  C_14
REMARK                            x       y       z     vdW  Elec       q    Type
REMARK                         _______ _______ _______ _____ _____    ______ ____
ROOT
ATOM      1  C   UNL     1       7.401   6.455  18.458  0.00  0.00    +0.000 A 
ATOM      2  C   UNL     1       6.369   6.322  17.542  0.00  0.00    +0.000 A 
ATOM      3  N   UNL     1       5.918   5.051  17.712  0.00  0.00    +0.000 N 
ATOM      4  N   UNL     1       6.565   4.440  18.722  0.00  0.00    +0.000 NA
ATOM      5  N   UNL     1       7.482   5.290  19.184  0.00  0.00    +0.000 NA
ENDROOT
BRANCH   1   6
ATOM      6  C   UNL     1       8.352   7.596  18.654  0.00  0.00    +0.000 C 
BRANCH   6   7
ATOM      7  S   UNL     1       7.876   8.988  17.586  0.00  0.00    +0.000 S 
BRANCH   7  14
ATOM      8 CL   UNL     1      10.806  16.174  18.891  0.00  0.00    +0.000 Cl
ATOM      9  C   UNL     1      10.462  14.518  19.211  0.00  0.00    +0.000 A 
ATOM     10  C   UNL     1      10.891  13.949  20.403  0.00  0.00    +0.000 A 
ATOM     11  C   UNL     1      10.620  12.609  20.688  0.00  0.00    +0.000 A 
ATOM     12  C   UNL     1       9.903  11.865  19.738  0.00  0.00    +0.000 A 
ATOM     13  S   UNL     1       9.423  10.221  19.812  0.00  0.00    +0.000 S 
ATOM     14  C   UNL     1       8.675  10.370  18.276  0.00  0.00    +0.000 A 
ATOM     15  N   UNL     1       8.753  11.545  17.702  0.00  0.00    +0.000 NA
ATOM     16  C   UNL     1       9.460  12.415  18.531  0.00  0.00    +0.000 A 
ATOM     17  C   UNL     1       9.749  13.768  18.262  0.00  0.00    +0.000 A 
ENDBRANCH   7  14
ENDBRANCH   6   7
ENDBRANCH   1   6
BRANCH   3  18
ATOM     18  C   UNL     1       5.003   4.318  16.842  0.00  0.00    +0.000 C 
BRANCH  18  19
ATOM     19  C   UNL     1       3.781   3.854  17.590  0.00  0.00    +0.000 A 
ATOM     20  C   UNL     1       3.608   2.478  17.827  0.00  0.00    +0.000 A 
ATOM     21  C   UNL     1       2.568   2.016  18.637  0.00  0.00    +0.000 A 
ATOM     22  C   UNL     1       1.688   2.919  19.224  0.00  0.00    +0.000 A 
ATOM     23  C   UNL     1       1.816   4.281  18.962  0.00  0.00    +0.000 A 
ATOM     24  C   UNL     1       2.843   4.746  18.136  0.00  0.00    +0.000 A 
ATOM     25 CL   UNL     1       2.892   6.444  17.820  0.00  0.00    +0.000 Cl
ENDBRANCH  18  19
ENDBRANCH   3  18
TORSDOF 5
ENDMDL
MODEL 4
REMARK VINA RESULT:      -7.3      3.183      3.767
REMARK  Name = 
REMARK  5 active torsions:
REMARK  status: ('A' for Active; 'I' for Inactive)
REMARK    1  A    between atoms: C_7  and  S_8
REMARK    2  A    between atoms: S_8  and  C_9
REMARK    3  A    between atoms: C_9  and  C_10
REMARK    4  A    between atoms: N_12  and  C_13
REMARK    5  A    between atoms: C_13  and  C_14
REMARK                            x       y       z     vdW  Elec       q    Type
REMARK                         _______ _______ _______ _____ _____    ______ ____
ROOT
ATOM      1  C   UNL     1       1.774   8.336  19.571  0.00  0.00    +0.000 A 
ATOM      2  C   UNL     1       2.353   7.077  19.521  0.00  0.00    +0.000 A 
ATOM      3  N   UNL     1       2.911   7.003  18.284  0.00  0.00    +0.000 N 
ATOM      4  N   UNL     1       2.766   8.164  17.619  0.00  0.00    +0.000 NA
ATOM      5  N   UNL     1       2.064   8.988  18.396  0.00  0.00    +0.000 NA
ENDROOT
BRANCH   1   6
ATOM      6  C   UNL     1       0.915   8.942  20.639  0.00  0.00    +0.000 C 
BRANCH   6   7
ATOM      7  S   UNL     1       0.715  10.723  20.334  0.00  0.00    +0.000 S 
BRANCH   7  14
ATOM      8 CL   UNL     1      -4.145   9.969  14.190  0.00  0.00    +0.000 Cl
ATOM      9  C   UNL     1      -3.611  10.508  15.735  0.00  0.00    +0.000 A 
ATOM     10  C   UNL     1      -4.448  11.306  16.507  0.00  0.00    +0.000 A 
ATOM     11  C   UNL     1      -4.040  11.752  17.765  0.00  0.00    +0.000 A 
ATOM     12  C   UNL     1      -2.769  11.368  18.221  0.00  0.00    +0.000 A 
ATOM     13  S   UNL     1      -2.009  11.753  19.708  0.00  0.00    +0.000 S 
ATOM     14  C   UNL     1      -0.635  10.838  19.243  0.00  0.00    +0.000 A 
ATOM     15  N   UNL     1      -0.688  10.267  18.065  0.00  0.00    +0.000 NA
ATOM     16  C   UNL     1      -1.910  10.566  17.464  0.00  0.00    +0.000 A 
ATOM     17  C   UNL     1      -2.340  10.131  16.194  0.00  0.00    +0.000 A 
ENDBRANCH   7  14
ENDBRANCH   6   7
ENDBRANCH   1   6
BRANCH   3  18
ATOM     18  C   UNL     1       3.439   5.811  17.627  0.00  0.00    +0.000 C 
BRANCH  18  19
ATOM     19  C   UNL     1       2.905   4.551  18.255  0.00  0.00    +0.000 A 
ATOM     20  C   UNL     1       1.559   4.200  18.042  0.00  0.00    +0.000 A 
ATOM     21  C   UNL     1       1.060   2.972  18.484  0.00  0.00    +0.000 A 
ATOM     22  C   UNL     1       1.898   2.076  19.140  0.00  0.00    +0.000 A 
ATOM     23  C   UNL     1       3.220   2.426  19.401  0.00  0.00    +0.000 A 
ATOM     24  C   UNL     1       3.717   3.662  18.979  0.00  0.00    +0.000 A 
ATOM     25 CL   UNL     1       5.352   4.037  19.394  0.00  0.00    +0.000 Cl
ENDBRANCH  18  19
ENDBRANCH   3  18
TORSDOF 5
ENDMDL
MODEL 5
REMARK VINA RESULT:      -7.3      3.269      4.062
REMARK  Name = 
REMARK  5 active torsions:
REMARK  status: ('A' for Active; 'I' for Inactive)
REMARK    1  A    between atoms: C_7  and  S_8
REMARK    2  A    between atoms: S_8  and  C_9
REMARK    3  A    between atoms: C_9  and  C_10
REMARK    4  A    between atoms: N_12  and  C_13
REMARK    5  A    between atoms: C_13  and  C_14
REMARK                            x       y       z     vdW  Elec       q    Type
REMARK                         _______ _______ _______ _____ _____    ______ ____
ROOT
ATOM      1  C   UNL     1       1.024   8.645  20.710  0.00  0.00    +0.000 A 
ATOM      2  C   UNL     1       1.680   8.604  19.489  0.00  0.00    +0.000 A 
ATOM      3  N   UNL     1       2.208   7.352  19.423  0.00  0.00    +0.000 N 
ATOM      4  N   UNL     1       1.847   6.619  20.493  0.00  0.00    +0.000 NA
ATOM      5  N   UNL     1       1.126   7.404  21.292  0.00  0.00    +0.000 NA
ENDROOT
BRANCH   1   6
ATOM      6  C   UNL     1       0.353   9.801  21.385  0.00  0.00    +0.000 C 
BRANCH   6   7
ATOM      7  S   UNL     1       0.548  11.302  20.379  0.00  0.00    +0.000 S 
BRANCH   7  14
ATOM      8 CL   UNL     1      -4.073   9.949  14.154  0.00  0.00    +0.000 Cl
ATOM      9  C   UNL     1      -3.631  10.569  15.698  0.00  0.00    +0.000 A 
ATOM     10  C   UNL     1      -4.559  11.294  16.434  0.00  0.00    +0.000 A 
ATOM     11  C   UNL     1      -4.227  11.803  17.691  0.00  0.00    +0.000 A 
ATOM     12  C   UNL     1      -2.934  11.556  18.181  0.00  0.00    +0.000 A 
ATOM     13  S   UNL     1      -2.250  12.044  19.675  0.00  0.00    +0.000 S 
ATOM     14  C   UNL     1      -0.782  11.261  19.258  0.00  0.00    +0.000 A 
ATOM     15  N   UNL     1      -0.751  10.665  18.092  0.00  0.00    +0.000 NA
ATOM     16  C   UNL     1      -1.983  10.829  17.460  0.00  0.00    +0.000 A 
ATOM     17  C   UNL     1      -2.339  10.329  16.191  0.00  0.00    +0.000 A 
ENDBRANCH   7  14
ENDBRANCH   6   7
ENDBRANCH   1   6
BRANCH   3  18
ATOM     18  C   UNL     1       3.190   6.862  18.461  0.00  0.00    +0.000 C 
BRANCH  18  19
ATOM     19  C   UNL     1       3.120   5.365  18.314  0.00  0.00    +0.000 A 
ATOM     20  C   UNL     1       1.936   4.781  17.827  0.00  0.00    +0.000 A 
ATOM     21  C   UNL     1       1.876   3.416  17.539  0.00  0.00    +0.000 A 
ATOM     22  C   UNL     1       2.996   2.614  17.729  0.00  0.00    +0.000 A 
ATOM     23  C   UNL     1       4.162   3.165  18.255  0.00  0.00    +0.000 A 
ATOM     24  C   UNL     1       4.220   4.526  18.564  0.00  0.00    +0.000 A 
ATOM     25 CL   UNL     1       5.687   5.113  19.264  0.00  0.00    +0.000 Cl
ENDBRANCH  18  19
ENDBRANCH   3  18
TORSDOF 5
ENDMDL
MODEL 6
REMARK VINA RESULT:      -7.2      3.717      9.490
REMARK  Name = 
REMARK  5 active torsions:
REMARK  status: ('A' for Active; 'I' for Inactive)
REMARK    1  A    between atoms: C_7  and  S_8
REMARK    2  A    between atoms: S_8  and  C_9
REMARK    3  A    between atoms: C_9  and  C_10
REMARK    4  A    between atoms: N_12  and  C_13
REMARK    5  A    between atoms: C_13  and  C_14
REMARK                            x       y       z     vdW  Elec       q    Type
REMARK                         _______ _______ _______ _____ _____    ______ ____
ROOT
ATOM      1  C   UNL     1       1.868   6.649  20.334  0.00  0.00    +0.000 A 
ATOM      2  C   UNL     1       2.208   7.287  19.150  0.00  0.00    +0.000 A 
ATOM      3  N   UNL     1       1.743   8.556  19.297  0.00  0.00    +0.000 N 
ATOM      4  N   UNL     1       1.212   8.737  20.521  0.00  0.00    +0.000 NA
ATOM      5  N   UNL     1       1.278   7.571  21.164  0.00  0.00    +0.000 NA
ENDROOT
BRANCH   1   6
ATOM      6  C   UNL     1       2.017   5.206  20.708  0.00  0.00    +0.000 C 
BRANCH   6   7
ATOM      7  S   UNL     1       1.811   4.162  19.234  0.00  0.00    +0.000 S 
BRANCH   7  14
ATOM      8 CL   UNL     1       7.305   4.848  13.640  0.00  0.00    +0.000 Cl
ATOM      9  C   UNL     1       6.672   4.709  15.235  0.00  0.00    +0.000 A 
ATOM     10  C   UNL     1       7.542   4.718  16.319  0.00  0.00    +0.000 A 
ATOM     11  C   UNL     1       7.053   4.612  17.622  0.00  0.00    +0.000 A 
ATOM     12  C   UNL     1       5.664   4.498  17.798  0.00  0.00    +0.000 A 
ATOM     13  S   UNL     1       4.783   4.360  19.261  0.00  0.00    +0.000 S 
ATOM     14  C   UNL     1       3.317   4.306  18.374  0.00  0.00    +0.000 A 
ATOM     15  N   UNL     1       3.423   4.378  17.070  0.00  0.00    +0.000 NA
ATOM     16  C   UNL     1       4.769   4.487  16.724  0.00  0.00    +0.000 A 
ATOM     17  C   UNL     1       5.285   4.591  15.416  0.00  0.00    +0.000 A 
ENDBRANCH   7  14
ENDBRANCH   6   7
ENDBRANCH   1   6
BRANCH   3  18
ATOM     18  C   UNL     1       1.625   9.575  18.259  0.00  0.00    +0.000 C 
BRANCH  18  19
ATOM     19  C   UNL     1       0.311  10.305  18.348  0.00  0.00    +0.000 A 
ATOM     20  C   UNL     1      -0.833   9.725  17.771  0.00  0.00    +0.000 A 
ATOM     21  C   UNL     1      -2.095  10.296  17.952  0.00  0.00    +0.000 A 
ATOM     22  C   UNL     1      -2.234  11.451  18.715  0.00  0.00    +0.000 A 
ATOM     23  C   UNL     1      -1.107  12.066  19.253  0.00  0.00    +0.000 A 
ATOM     24  C   UNL     1       0.160  11.509  19.057  0.00  0.00    +0.000 A 
ATOM     25 CL   UNL     1       1.508  12.368  19.713  0.00  0.00    +0.000 Cl
ENDBRANCH  18  19
ENDBRANCH   3  18
TORSDOF 5
ENDMDL
MODEL 7
REMARK VINA RESULT:      -7.2      2.005      2.396
REMARK  Name = 
REMARK  5 active torsions:
REMARK  status: ('A' for Active; 'I' for Inactive)
REMARK    1  A    between atoms: C_7  and  S_8
REMARK    2  A    between atoms: S_8  and  C_9
REMARK    3  A    between atoms: C_9  and  C_10
REMARK    4  A    between atoms: N_12  and  C_13
REMARK    5  A    between atoms: C_13  and  C_14
REMARK                            x       y       z     vdW  Elec       q    Type
REMARK                         _______ _______ _______ _____ _____    ______ ____
ROOT
ATOM      1  C   UNL     1       2.054   8.427  18.087  0.00  0.00    +0.000 A 
ATOM      2  C   UNL     1       2.239   7.560  19.153  0.00  0.00    +0.000 A 
ATOM      3  N   UNL     1       3.356   6.853  18.833  0.00  0.00    +0.000 N 
ATOM      4  N   UNL     1       3.891   7.294  17.679  0.00  0.00    +0.000 NA
ATOM      5  N   UNL     1       3.098   8.256  17.209  0.00  0.00    +0.000 NA
ENDROOT
BRANCH   1   6
ATOM      6  C   UNL     1       0.921   9.371  17.820  0.00  0.00    +0.000 C 
BRANCH   6   7
ATOM      7  S   UNL     1       0.939  10.718  19.041  0.00  0.00    +0.000 S 
BRANCH   7  14
ATOM      8 CL   UNL     1      -6.675  12.092  17.600  0.00  0.00    +0.000 Cl
ATOM      9  C   UNL     1      -5.188  12.148  18.466  0.00  0.00    +0.000 A 
ATOM     10  C   UNL     1      -5.138  12.788  19.698  0.00  0.00    +0.000 A 
ATOM     11  C   UNL     1      -3.945  12.842  20.421  0.00  0.00    +0.000 A 
ATOM     12  C   UNL     1      -2.809  12.231  19.867  0.00  0.00    +0.000 A 
ATOM     13  S   UNL     1      -1.227  12.132  20.518  0.00  0.00    +0.000 S 
ATOM     14  C   UNL     1      -0.716  11.247  19.141  0.00  0.00    +0.000 A 
ATOM     15  N   UNL     1      -1.625  11.018  18.226  0.00  0.00    +0.000 NA
ATOM     16  C   UNL     1      -2.834  11.581  18.629  0.00  0.00    +0.000 A 
ATOM     17  C   UNL     1      -4.049  11.542  17.914  0.00  0.00    +0.000 A 
ENDBRANCH   7  14
ENDBRANCH   6   7
ENDBRANCH   1   6
BRANCH   3  18
ATOM     18  C   UNL     1       3.855   5.651  19.492  0.00  0.00    +0.000 C 
BRANCH  18  19
ATOM     19  C   UNL     1       2.833   4.546  19.476  0.00  0.00    +0.000 A 
ATOM     20  C   UNL     1       2.034   4.338  20.616  0.00  0.00    +0.000 A 
ATOM     21  C   UNL     1       0.979   3.422  20.594  0.00  0.00    +0.000 A 
ATOM     22  C   UNL     1       0.705   2.703  19.435  0.00  0.00    +0.000 A 
ATOM     23  C   UNL     1       1.515   2.861  18.313  0.00  0.00    +0.000 A 
ATOM     24  C   UNL     1       2.583   3.761  18.337  0.00  0.00    +0.000 A 
ATOM     25 CL   UNL     1       3.569   3.851  16.921  0.00  0.00    +0.000 Cl
ENDBRANCH  18  19
ENDBRANCH   3  18
TORSDOF 5
ENDMDL
MODEL 8
REMARK VINA RESULT:      -7.2      4.409      8.761
REMARK  Name = 
REMARK  5 active torsions:
REMARK  status: ('A' for Active; 'I' for Inactive)
REMARK    1  A    between atoms: C_7  and  S_8
REMARK    2  A    between atoms: S_8  and  C_9
REMARK    3  A    between atoms: C_9  and  C_10
REMARK    4  A    between atoms: N_12  and  C_13
REMARK    5  A    between atoms: C_13  and  C_14
REMARK                            x       y       z     vdW  Elec       q    Type
REMARK                         _______ _______ _______ _____ _____    ______ ____
ROOT
ATOM      1  C   UNL     1       1.955   3.849  19.293  0.00  0.00    +0.000 A 
ATOM      2  C   UNL     1       2.318   4.908  20.111  0.00  0.00    +0.000 A 
ATOM      3  N   UNL     1       2.212   6.008  19.319  0.00  0.00    +0.000 N 
ATOM      4  N   UNL     1       1.740   5.682  18.101  0.00  0.00    +0.000 NA
ATOM      5  N   UNL     1       1.584   4.359  18.072  0.00  0.00    +0.000 NA
ENDROOT
BRANCH   1   6
ATOM      6  C   UNL     1       1.990   2.379  19.576  0.00  0.00    +0.000 C 
BRANCH   6   7
ATOM      7  S   UNL     1       3.448   1.633  18.786  0.00  0.00    +0.000 S 
BRANCH   7  14
ATOM      8 CL   UNL     1       8.512   7.656  18.827  0.00  0.00    +0.000 Cl
ATOM      9  C   UNL     1       7.382   6.537  18.169  0.00  0.00    +0.000 A 
ATOM     10  C   UNL     1       7.072   6.595  16.816  0.00  0.00    +0.000 A 
ATOM     11  C   UNL     1       6.162   5.696  16.257  0.00  0.00    +0.000 A 
ATOM     12  C   UNL     1       5.579   4.737  17.101  0.00  0.00    +0.000 A 
ATOM     13  S   UNL     1       4.447   3.514  16.704  0.00  0.00    +0.000 S 
ATOM     14  C   UNL     1       4.447   2.983  18.334  0.00  0.00    +0.000 A 
ATOM     15  N   UNL     1       5.220   3.643  19.161  0.00  0.00    +0.000 NA
ATOM     16  C   UNL     1       5.876   4.658  18.465  0.00  0.00    +0.000 A 
ATOM     17  C   UNL     1       6.794   5.579  19.009  0.00  0.00    +0.000 A 
ENDBRANCH   7  14
ENDBRANCH   6   7
ENDBRANCH   1   6
BRANCH   3  18
ATOM     18  C   UNL     1       2.702   7.352  19.610  0.00  0.00    +0.000 C 
BRANCH  18  19
ATOM     19  C   UNL     1       1.588   8.265  20.046  0.00  0.00    +0.000 A 
ATOM     20  C   UNL     1       1.012   8.081  21.317  0.00  0.00    +0.000 A 
ATOM     21  C   UNL     1       0.078   8.991  21.819  0.00  0.00    +0.000 A 
ATOM     22  C   UNL     1      -0.292  10.098  21.062  0.00  0.00    +0.000 A 
ATOM     23  C   UNL     1       0.231  10.270  19.783  0.00  0.00    +0.000 A 
ATOM     24  C   UNL     1       1.151   9.352  19.269  0.00  0.00    +0.000 A 
ATOM     25 CL   UNL     1       1.705   9.613  17.654  0.00  0.00    +0.000 Cl
ENDBRANCH  18  19
ENDBRANCH   3  18
TORSDOF 5
ENDMDL
MODEL 9
REMARK VINA RESULT:      -7.2      3.504      9.590
REMARK  Name = 
REMARK  5 active torsions:
REMARK  status: ('A' for Active; 'I' for Inactive)
REMARK    1  A    between atoms: C_7  and  S_8
REMARK    2  A    between atoms: S_8  and  C_9
REMARK    3  A    between atoms: C_9  and  C_10
REMARK    4  A    between atoms: N_12  and  C_13
REMARK    5  A    between atoms: C_13  and  C_14
REMARK                            x       y       z     vdW  Elec       q    Type
REMARK                         _______ _______ _______ _____ _____    ______ ____
ROOT
ATOM      1  C   UNL     1       1.906   7.854  19.641  0.00  0.00    +0.000 A 
ATOM      2  C   UNL     1       1.048   8.897  19.956  0.00  0.00    +0.000 A 
ATOM      3  N   UNL     1       1.038   9.682  18.846  0.00  0.00    +0.000 N 
ATOM      4  N   UNL     1       1.778   9.138  17.862  0.00  0.00    +0.000 NA
ATOM      5  N   UNL     1       2.321   8.019  18.341  0.00  0.00    +0.000 NA
ENDROOT
BRANCH   1   6
ATOM      6  C   UNL     1       2.403   6.741  20.512  0.00  0.00    +0.000 C 
BRANCH   6   7
ATOM      7  S   UNL     1       2.116   5.143  19.694  0.00  0.00    +0.000 S 
BRANCH   7  14
ATOM      8 CL   UNL     1       6.645   3.941  13.371  0.00  0.00    +0.000 Cl
ATOM      9  C   UNL     1       6.276   4.272  15.019  0.00  0.00    +0.000 A 
ATOM     10  C   UNL     1       7.310   4.505  15.918  0.00  0.00    +0.000 A 
ATOM     11  C   UNL     1       7.037   4.780  17.259  0.00  0.00    +0.000 A 
ATOM     12  C   UNL     1       5.693   4.815  17.664  0.00  0.00    +0.000 A 
ATOM     13  S   UNL     1       5.058   5.130  19.224  0.00  0.00    +0.000 S 
ATOM     14  C   UNL     1       3.465   4.949  18.613  0.00  0.00    +0.000 A 
ATOM     15  N   UNL     1       3.360   4.667  17.338  0.00  0.00    +0.000 NA
ATOM     16  C   UNL     1       4.635   4.586  16.779  0.00  0.00    +0.000 A 
ATOM     17  C   UNL     1       4.934   4.305  15.430  0.00  0.00    +0.000 A 
ENDBRANCH   7  14
ENDBRANCH   6   7
ENDBRANCH   1   6
BRANCH   3  18
ATOM     18  C   UNL     1       0.488  11.029  18.727  0.00  0.00    +0.000 C 
BRANCH  18  19
ATOM     19  C   UNL     1      -0.971  10.999  18.356  0.00  0.00    +0.000 A 
ATOM     20  C   UNL     1      -1.435   9.994  17.488  0.00  0.00    +0.000 A 
ATOM     21  C   UNL     1      -2.800   9.842  17.232  0.00  0.00    +0.000 A 
ATOM     22  C   UNL     1      -3.721  10.689  17.840  0.00  0.00    +0.000 A 
ATOM     23  C   UNL     1      -3.277  11.720  18.664  0.00  0.00    +0.000 A 
ATOM     24  C   UNL     1      -1.911  11.888  18.907  0.00  0.00    +0.000 A 
ATOM     25 CL   UNL     1      -1.446  13.226  19.896  0.00  0.00    +0.000 Cl
ENDBRANCH  18  19
ENDBRANCH   3  18
TORSDOF 5
ENDMDL
