MODEL 1
REMARK VINA RESULT:      -7.8      0.000      0.000
REMARK  Name = 
REMARK  9 active torsions:
REMARK  status: ('A' for Active; 'I' for Inactive)
REMARK    1  A    between atoms: C_1  and  O_2
REMARK    2  A    between atoms: O_2  and  C_3
REMARK    3  A    between atoms: C_9  and  C_10
REMARK    4  A    between atoms: C_10  and  C_11
REMARK    5  A    between atoms: C_11  and  S_12
REMARK    6  A    between atoms: S_12  and  N_15
REMARK    7  A    between atoms: N_15  and  C_16
REMARK    8  A    between atoms: C_21  and  S_22
REMARK    9  A    between atoms: S_22  and  N_23
REMARK                            x       y       z     vdW  Elec       q    Type
REMARK                         _______ _______ _______ _____ _____    ______ ____
ROOT
ATOM      1  S   UNL     1       2.323   4.994  20.406  0.00  0.00    +0.000 S 
ATOM      2  O   UNL     1       1.428   4.805  19.285  0.00  0.00    +0.000 OA
ATOM      3  O   UNL     1       2.315   4.082  21.528  0.00  0.00    +0.000 OA
ENDROOT
BRANCH   1   4
ATOM      4  N   UNL     1       2.053   6.583  20.952  0.00  0.00    +0.000 N 
ATOM      5  H   UNL     1       2.812   6.793  21.621  0.00  0.00    +0.000 HD
BRANCH   4   6
ATOM      6  C   UNL     1       1.887   7.602  19.950  0.00  0.00    +0.000 A 
ATOM      7  C   UNL     1       2.562   7.429  18.734  0.00  0.00    +0.000 A 
ATOM      8  C   UNL     1       2.441   8.374  17.710  0.00  0.00    +0.000 A 
ATOM      9  C   UNL     1       1.643   9.503  17.887  0.00  0.00    +0.000 A 
ATOM     10  C   UNL     1       0.990   9.703  19.100  0.00  0.00    +0.000 A 
ATOM     11  C   UNL     1       1.136   8.770  20.137  0.00  0.00    +0.000 A 
BRANCH  11  12
ATOM     12  S   UNL     1       0.326   9.117  21.665  0.00  0.00    +0.000 S 
ATOM     13  O   UNL     1      -0.708   8.132  21.887  0.00  0.00    +0.000 OA
ATOM     14  O   UNL     1       1.325   9.408  22.667  0.00  0.00    +0.000 OA
BRANCH  12  15
ATOM     15  N   UNL     1      -0.461  10.548  21.303  0.00  0.00    +0.000 NA
ATOM     16  H   UNL     1       0.032  11.082  20.589  0.00  0.00    +0.000 HD
ATOM     17  H   UNL     1      -1.460  10.414  21.136  0.00  0.00    +0.000 HD
ENDBRANCH  12  15
ENDBRANCH  11  12
ENDBRANCH   4   6
ENDBRANCH   1   4
BRANCH   1  18
ATOM     18  C   UNL     1       3.986   5.133  19.770  0.00  0.00    +0.000 C 
BRANCH  18  19
ATOM     19  C   UNL     1       4.349   3.891  18.963  0.00  0.00    +0.000 C 
BRANCH  19  26
ATOM     20  C   UNL     1       6.477   4.661  17.768  0.00  0.00    +0.000 A 
ATOM     21  C   UNL     1       7.171   4.929  16.584  0.00  0.00    +0.000 A 
ATOM     22  C   UNL     1       6.549   4.745  15.351  0.00  0.00    +0.000 A 
ATOM     23 CL   UNL     1       7.416   5.080  13.901  0.00  0.00    +0.000 Cl
ATOM     24  C   UNL     1       5.239   4.288  15.280  0.00  0.00    +0.000 A 
ATOM     25  C   UNL     1       4.540   4.017  16.456  0.00  0.00    +0.000 A 
ATOM     26  C   UNL     1       5.147   4.203  17.711  0.00  0.00    +0.000 A 
BRANCH  20  28
ATOM     27  C   UNL     1       7.991   5.810  19.199  0.00  0.00    +0.000 C 
ATOM     28  O   UNL     1       7.024   4.781  19.019  0.00  0.00    +0.000 OA
ENDBRANCH  20  28
ENDBRANCH  19  26
ENDBRANCH  18  19
ENDBRANCH   1  18
TORSDOF 8
ENDMDL
MODEL 2
REMARK VINA RESULT:      -7.5      4.019      6.829
REMARK  Name = 
REMARK  9 active torsions:
REMARK  status: ('A' for Active; 'I' for Inactive)
REMARK    1  A    between atoms: C_1  and  O_2
REMARK    2  A    between atoms: O_2  and  C_3
REMARK    3  A    between atoms: C_9  and  C_10
REMARK    4  A    between atoms: C_10  and  C_11
REMARK    5  A    between atoms: C_11  and  S_12
REMARK    6  A    between atoms: S_12  and  N_15
REMARK    7  A    between atoms: N_15  and  C_16
REMARK    8  A    between atoms: C_21  and  S_22
REMARK    9  A    between atoms: S_22  and  N_23
REMARK                            x       y       z     vdW  Elec       q    Type
REMARK                         _______ _______ _______ _____ _____    ______ ____
ROOT
ATOM      1  S   UNL     1       4.751   3.594  18.866  0.00  0.00    +0.000 S 
ATOM      2  O   UNL     1       5.181   2.972  20.100  0.00  0.00    +0.000 OA
ATOM      3  O   UNL     1       3.699   3.009  18.064  0.00  0.00    +0.000 OA
ENDROOT
BRANCH   1   4
ATOM      4  N   UNL     1       6.157   3.779  17.927  0.00  0.00    +0.000 N 
ATOM      5  H   UNL     1       5.914   3.462  16.973  0.00  0.00    +0.000 HD
BRANCH   4   6
ATOM      6  C   UNL     1       6.795   5.069  17.945  0.00  0.00    +0.000 A 
ATOM      7  C   UNL     1       7.490   5.430  19.108  0.00  0.00    +0.000 A 
ATOM      8  C   UNL     1       8.142   6.664  19.196  0.00  0.00    +0.000 A 
ATOM      9  C   UNL     1       8.110   7.553  18.123  0.00  0.00    +0.000 A 
ATOM     10  C   UNL     1       7.399   7.221  16.972  0.00  0.00    +0.000 A 
ATOM     11  C   UNL     1       6.720   5.996  16.897  0.00  0.00    +0.000 A 
BRANCH  11  12
ATOM     12  S   UNL     1       5.793   5.667  15.432  0.00  0.00    +0.000 S 
ATOM     13  O   UNL     1       5.094   4.412  15.587  0.00  0.00    +0.000 OA
ATOM     14  O   UNL     1       5.107   6.874  15.034  0.00  0.00    +0.000 OA
BRANCH  12  15
ATOM     15  N   UNL     1       7.016   5.388  14.325  0.00  0.00    +0.000 NA
ATOM     16  H   UNL     1       7.924   5.688  14.679  0.00  0.00    +0.000 HD
ATOM     17  H   UNL     1       6.988   4.443  13.941  0.00  0.00    +0.000 HD
ENDBRANCH  12  15
ENDBRANCH  11  12
ENDBRANCH   4   6
ENDBRANCH   1   4
BRANCH   1  18
ATOM     18  C   UNL     1       4.350   5.299  19.215  0.00  0.00    +0.000 C 
BRANCH  18  19
ATOM     19  C   UNL     1       3.209   5.768  18.318  0.00  0.00    +0.000 C 
BRANCH  19  26
ATOM     20  C   UNL     1       1.847   6.929  20.146  0.00  0.00    +0.000 A 
ATOM     21  C   UNL     1       1.173   8.059  20.621  0.00  0.00    +0.000 A 
ATOM     22  C   UNL     1       1.104   9.211  19.841  0.00  0.00    +0.000 A 
ATOM     23 CL   UNL     1       0.269  10.595  20.439  0.00  0.00    +0.000 Cl
ATOM     24  C   UNL     1       1.708   9.259  18.591  0.00  0.00    +0.000 A 
ATOM     25  C   UNL     1       2.384   8.138  18.111  0.00  0.00    +0.000 A 
ATOM     26  C   UNL     1       2.459   6.961  18.879  0.00  0.00    +0.000 A 
BRANCH  20  28
ATOM     27  C   UNL     1       1.085   4.713  20.559  0.00  0.00    +0.000 C 
ATOM     28  O   UNL     1       1.993   5.769  20.861  0.00  0.00    +0.000 OA
ENDBRANCH  20  28
ENDBRANCH  19  26
ENDBRANCH  18  19
ENDBRANCH   1  18
TORSDOF 8
ENDMDL
MODEL 3
REMARK VINA RESULT:      -7.4      0.884      1.028
REMARK  Name = 
REMARK  9 active torsions:
REMARK  status: ('A' for Active; 'I' for Inactive)
REMARK    1  A    between atoms: C_1  and  O_2
REMARK    2  A    between atoms: O_2  and  C_3
REMARK    3  A    between atoms: C_9  and  C_10
REMARK    4  A    between atoms: C_10  and  C_11
REMARK    5  A    between atoms: C_11  and  S_12
REMARK    6  A    between atoms: S_12  and  N_15
REMARK    7  A    between atoms: N_15  and  C_16
REMARK    8  A    between atoms: C_21  and  S_22
REMARK    9  A    between atoms: S_22  and  N_23
REMARK                            x       y       z     vdW  Elec       q    Type
REMARK                         _______ _______ _______ _____ _____    ______ ____
ROOT
ATOM      1  S   UNL     1       1.912   5.134  20.572  0.00  0.00    +0.000 S 
ATOM      2  O   UNL     1       0.484   5.066  20.349  0.00  0.00    +0.000 OA
ATOM      3  O   UNL     1       2.555   4.283  21.549  0.00  0.00    +0.000 OA
ENDROOT
BRANCH   1   4
ATOM      4  N   UNL     1       2.249   6.766  20.917  0.00  0.00    +0.000 N 
ATOM      5  H   UNL     1       3.235   6.800  21.225  0.00  0.00    +0.000 HD
BRANCH   4   6
ATOM      6  C   UNL     1       1.945   7.730  19.893  0.00  0.00    +0.000 A 
ATOM      7  C   UNL     1       2.566   7.568  18.648  0.00  0.00    +0.000 A 
ATOM      8  C   UNL     1       2.312   8.461  17.602  0.00  0.00    +0.000 A 
ATOM      9  C   UNL     1       1.432   9.526  17.786  0.00  0.00    +0.000 A 
ATOM     10  C   UNL     1       0.830   9.717  19.027  0.00  0.00    +0.000 A 
ATOM     11  C   UNL     1       1.109   8.839  20.084  0.00  0.00    +0.000 A 
BRANCH  11  12
ATOM     12  S   UNL     1       0.355   9.174  21.643  0.00  0.00    +0.000 S 
ATOM     13  O   UNL     1      -0.172  10.519  21.633  0.00  0.00    +0.000 OA
ATOM     14  O   UNL     1      -0.460   8.042  22.020  0.00  0.00    +0.000 OA
BRANCH  12  15
ATOM     15  N   UNL     1       1.687   9.200  22.654  0.00  0.00    +0.000 NA
ATOM     16  H   UNL     1       1.478   9.648  23.546  0.00  0.00    +0.000 HD
ATOM     17  H   UNL     1       2.146   8.290  22.720  0.00  0.00    +0.000 HD
ENDBRANCH  12  15
ENDBRANCH  11  12
ENDBRANCH   4   6
ENDBRANCH   1   4
BRANCH   1  18
ATOM     18  C   UNL     1       2.730   4.946  18.996  0.00  0.00    +0.000 C 
BRANCH  18  19
ATOM     19  C   UNL     1       4.189   4.552  19.201  0.00  0.00    +0.000 C 
BRANCH  19  26
ATOM     20  C   UNL     1       6.414   4.699  17.945  0.00  0.00    +0.000 A 
ATOM     21  C   UNL     1       7.124   4.745  16.742  0.00  0.00    +0.000 A 
ATOM     22  C   UNL     1       6.445   4.706  15.526  0.00  0.00    +0.000 A 
ATOM     23 CL   UNL     1       7.333   4.764  14.052  0.00  0.00    +0.000 Cl
ATOM     24  C   UNL     1       5.059   4.613  15.492  0.00  0.00    +0.000 A 
ATOM     25  C   UNL     1       4.343   4.566  16.687  0.00  0.00    +0.000 A 
ATOM     26  C   UNL     1       5.009   4.611  17.926  0.00  0.00    +0.000 A 
BRANCH  20  28
ATOM     27  C   UNL     1       7.812   5.824  19.508  0.00  0.00    +0.000 C 
ATOM     28  O   UNL     1       7.004   4.697  19.183  0.00  0.00    +0.000 OA
ENDBRANCH  20  28
ENDBRANCH  19  26
ENDBRANCH  18  19
ENDBRANCH   1  18
TORSDOF 8
ENDMDL
MODEL 4
REMARK VINA RESULT:      -7.4      2.458      4.176
REMARK  Name = 
REMARK  9 active torsions:
REMARK  status: ('A' for Active; 'I' for Inactive)
REMARK    1  A    between atoms: C_1  and  O_2
REMARK    2  A    between atoms: O_2  and  C_3
REMARK    3  A    between atoms: C_9  and  C_10
REMARK    4  A    between atoms: C_10  and  C_11
REMARK    5  A    between atoms: C_11  and  S_12
REMARK    6  A    between atoms: S_12  and  N_15
REMARK    7  A    between atoms: N_15  and  C_16
REMARK    8  A    between atoms: C_21  and  S_22
REMARK    9  A    between atoms: S_22  and  N_23
REMARK                            x       y       z     vdW  Elec       q    Type
REMARK                         _______ _______ _______ _____ _____    ______ ____
ROOT
ATOM      1  S   UNL     1       0.982   8.861  21.194  0.00  0.00    +0.000 S 
ATOM      2  O   UNL     1      -0.399   8.442  21.303  0.00  0.00    +0.000 OA
ATOM      3  O   UNL     1       1.710   9.333  22.350  0.00  0.00    +0.000 OA
ENDROOT
BRANCH   1   4
ATOM      4  N   UNL     1       1.012  10.042  19.970  0.00  0.00    +0.000 N 
ATOM      5  H   UNL     1       1.553   9.637  19.188  0.00  0.00    +0.000 HD
BRANCH   4   6
ATOM      6  C   UNL     1      -0.251  10.593  19.556  0.00  0.00    +0.000 A 
ATOM      7  C   UNL     1      -0.845  10.053  18.407  0.00  0.00    +0.000 A 
ATOM      8  C   UNL     1      -2.078  10.531  17.949  0.00  0.00    +0.000 A 
ATOM      9  C   UNL     1      -2.733  11.552  18.635  0.00  0.00    +0.000 A 
ATOM     10  C   UNL     1      -2.142  12.118  19.761  0.00  0.00    +0.000 A 
ATOM     11  C   UNL     1      -0.891  11.659  20.202  0.00  0.00    +0.000 A 
BRANCH  11  12
ATOM     12  S   UNL     1      -0.176  12.460  21.601  0.00  0.00    +0.000 S 
ATOM     13  O   UNL     1       1.257  12.520  21.430  0.00  0.00    +0.000 OA
ATOM     14  O   UNL     1      -0.954  13.637  21.912  0.00  0.00    +0.000 OA
BRANCH  12  15
ATOM     15  N   UNL     1      -0.458  11.333  22.805  0.00  0.00    +0.000 NA
ATOM     16  H   UNL     1      -1.161  11.654  23.468  0.00  0.00    +0.000 HD
ATOM     17  H   UNL     1      -0.605  10.393  22.434  0.00  0.00    +0.000 HD
ENDBRANCH  12  15
ENDBRANCH  11  12
ENDBRANCH   4   6
ENDBRANCH   1   4
BRANCH   1  18
ATOM     18  C   UNL     1       1.901   7.543  20.414  0.00  0.00    +0.000 C 
BRANCH  18  19
ATOM     19  C   UNL     1       1.948   7.752  18.904  0.00  0.00    +0.000 C 
BRANCH  19  26
ATOM     20  C   UNL     1       2.622   5.387  18.198  0.00  0.00    +0.000 A 
ATOM     21  C   UNL     1       3.493   4.527  17.521  0.00  0.00    +0.000 A 
ATOM     22  C   UNL     1       4.597   5.040  16.846  0.00  0.00    +0.000 A 
ATOM     23 CL   UNL     1       5.662   3.969  16.017  0.00  0.00    +0.000 Cl
ATOM     24  C   UNL     1       4.845   6.407  16.827  0.00  0.00    +0.000 A 
ATOM     25  C   UNL     1       3.981   7.272  17.498  0.00  0.00    +0.000 A 
ATOM     26  C   UNL     1       2.863   6.774  18.193  0.00  0.00    +0.000 A 
BRANCH  20  28
ATOM     27  C   UNL     1       1.543   3.678  19.455  0.00  0.00    +0.000 C 
ATOM     28  O   UNL     1       1.495   4.971  18.858  0.00  0.00    +0.000 OA
ENDBRANCH  20  28
ENDBRANCH  19  26
ENDBRANCH  18  19
ENDBRANCH   1  18
TORSDOF 8
ENDMDL
MODEL 5
REMARK VINA RESULT:      -7.4      2.884      4.750
REMARK  Name = 
REMARK  9 active torsions:
REMARK  status: ('A' for Active; 'I' for Inactive)
REMARK    1  A    between atoms: C_1  and  O_2
REMARK    2  A    between atoms: O_2  and  C_3
REMARK    3  A    between atoms: C_9  and  C_10
REMARK    4  A    between atoms: C_10  and  C_11
REMARK    5  A    between atoms: C_11  and  S_12
REMARK    6  A    between atoms: S_12  and  N_15
REMARK    7  A    between atoms: N_15  and  C_16
REMARK    8  A    between atoms: C_21  and  S_22
REMARK    9  A    between atoms: S_22  and  N_23
REMARK                            x       y       z     vdW  Elec       q    Type
REMARK                         _______ _______ _______ _____ _____    ______ ____
ROOT
ATOM      1  S   UNL     1       0.870   9.325  21.584  0.00  0.00    +0.000 S 
ATOM      2  O   UNL     1      -0.507   8.907  21.732  0.00  0.00    +0.000 OA
ATOM      3  O   UNL     1       1.739   9.449  22.733  0.00  0.00    +0.000 OA
ENDROOT
BRANCH   1   4
ATOM      4  N   UNL     1       0.818  10.800  20.738  0.00  0.00    +0.000 N 
ATOM      5  H   UNL     1       1.627  10.795  20.094  0.00  0.00    +0.000 HD
BRANCH   4   6
ATOM      6  C   UNL     1      -0.419  11.142  20.087  0.00  0.00    +0.000 A 
ATOM      7  C   UNL     1      -0.679  10.551  18.843  0.00  0.00    +0.000 A 
ATOM      8  C   UNL     1      -1.865  10.828  18.156  0.00  0.00    +0.000 A 
ATOM      9  C   UNL     1      -2.807  11.696  18.703  0.00  0.00    +0.000 A 
ATOM     10  C   UNL     1      -2.550  12.313  19.925  0.00  0.00    +0.000 A 
ATOM     11  C   UNL     1      -1.347  12.059  20.599  0.00  0.00    +0.000 A 
BRANCH  11  12
ATOM     12  S   UNL     1      -1.064  12.918  22.113  0.00  0.00    +0.000 S 
ATOM     13  O   UNL     1       0.298  13.400  22.136  0.00  0.00    +0.000 OA
ATOM     14  O   UNL     1      -2.183  13.795  22.368  0.00  0.00    +0.000 OA
BRANCH  12  15
ATOM     15  N   UNL     1      -1.137  11.666  23.220  0.00  0.00    +0.000 NA
ATOM     16  H   UNL     1      -1.898  11.021  23.014  0.00  0.00    +0.000 HD
ATOM     17  H   UNL     1      -0.227  11.231  23.379  0.00  0.00    +0.000 HD
ENDBRANCH  12  15
ENDBRANCH  11  12
ENDBRANCH   4   6
ENDBRANCH   1   4
BRANCH   1  18
ATOM     18  C   UNL     1       1.643   8.267  20.370  0.00  0.00    +0.000 C 
BRANCH  18  19
ATOM     19  C   UNL     1       1.535   6.806  20.796  0.00  0.00    +0.000 C 
BRANCH  19  26
ATOM     20  C   UNL     1       2.144   4.456  19.987  0.00  0.00    +0.000 A 
ATOM     21  C   UNL     1       2.813   3.621  19.086  0.00  0.00    +0.000 A 
ATOM     22  C   UNL     1       3.578   4.170  18.060  0.00  0.00    +0.000 A 
ATOM     23 CL   UNL     1       4.397   3.129  16.958  0.00  0.00    +0.000 Cl
ATOM     24  C   UNL     1       3.682   5.547  17.911  0.00  0.00    +0.000 A 
ATOM     25  C   UNL     1       3.017   6.387  18.804  0.00  0.00    +0.000 A 
ATOM     26  C   UNL     1       2.245   5.854  19.852  0.00  0.00    +0.000 A 
BRANCH  20  28
ATOM     27  C   UNL     1       1.622   2.698  21.502  0.00  0.00    +0.000 C 
ATOM     28  O   UNL     1       1.343   4.002  21.002  0.00  0.00    +0.000 OA
ENDBRANCH  20  28
ENDBRANCH  19  26
ENDBRANCH  18  19
ENDBRANCH   1  18
TORSDOF 8
ENDMDL
MODEL 6
REMARK VINA RESULT:      -7.4      2.965      4.478
REMARK  Name = 
REMARK  9 active torsions:
REMARK  status: ('A' for Active; 'I' for Inactive)
REMARK    1  A    between atoms: C_1  and  O_2
REMARK    2  A    between atoms: O_2  and  C_3
REMARK    3  A    between atoms: C_9  and  C_10
REMARK    4  A    between atoms: C_10  and  C_11
REMARK    5  A    between atoms: C_11  and  S_12
REMARK    6  A    between atoms: S_12  and  N_15
REMARK    7  A    between atoms: N_15  and  C_16
REMARK    8  A    between atoms: C_21  and  S_22
REMARK    9  A    between atoms: S_22  and  N_23
REMARK                            x       y       z     vdW  Elec       q    Type
REMARK                         _______ _______ _______ _____ _____    ______ ____
ROOT
ATOM      1  S   UNL     1       0.843   9.220  21.444  0.00  0.00    +0.000 S 
ATOM      2  O   UNL     1      -0.591   9.341  21.596  0.00  0.00    +0.000 OA
ATOM      3  O   UNL     1       1.742   9.663  22.485  0.00  0.00    +0.000 OA
ENDROOT
BRANCH   1   4
ATOM      4  N   UNL     1       1.222  10.003  19.982  0.00  0.00    +0.000 N 
ATOM      5  H   UNL     1       1.759   9.323  19.418  0.00  0.00    +0.000 HD
BRANCH   4   6
ATOM      6  C   UNL     1       0.133  10.601  19.255  0.00  0.00    +0.000 A 
ATOM      7  C   UNL     1      -0.516   9.810  18.298  0.00  0.00    +0.000 A 
ATOM      8  C   UNL     1      -1.589  10.320  17.559  0.00  0.00    +0.000 A 
ATOM      9  C   UNL     1      -2.027  11.626  17.769  0.00  0.00    +0.000 A 
ATOM     10  C   UNL     1      -1.373  12.434  18.695  0.00  0.00    +0.000 A 
ATOM     11  C   UNL     1      -0.278  11.931  19.414  0.00  0.00    +0.000 A 
BRANCH  11  12
ATOM     12  S   UNL     1       0.537  13.028  20.529  0.00  0.00    +0.000 S 
ATOM     13  O   UNL     1       1.962  12.803  20.456  0.00  0.00    +0.000 OA
ATOM     14  O   UNL     1      -0.031  14.348  20.384  0.00  0.00    +0.000 OA
BRANCH  12  15
ATOM     15  N   UNL     1       0.042  12.421  22.007  0.00  0.00    +0.000 NA
ATOM     16  H   UNL     1       0.031  13.141  22.728  0.00  0.00    +0.000 HD
ATOM     17  H   UNL     1      -0.809  11.862  21.935  0.00  0.00    +0.000 HD
ENDBRANCH  12  15
ENDBRANCH  11  12
ENDBRANCH   4   6
ENDBRANCH   1   4
BRANCH   1  18
ATOM     18  C   UNL     1       1.214   7.524  21.025  0.00  0.00    +0.000 C 
BRANCH  18  19
ATOM     19  C   UNL     1       2.198   7.470  19.861  0.00  0.00    +0.000 C 
BRANCH  19  26
ATOM     20  C   UNL     1       3.240   5.808  18.218  0.00  0.00    +0.000 A 
ATOM     21  C   UNL     1       3.448   4.490  17.797  0.00  0.00    +0.000 A 
ATOM     22  C   UNL     1       2.874   3.433  18.499  0.00  0.00    +0.000 A 
ATOM     23 CL   UNL     1       3.138   1.815  17.968  0.00  0.00    +0.000 Cl
ATOM     24  C   UNL     1       2.098   3.669  19.627  0.00  0.00    +0.000 A 
ATOM     25  C   UNL     1       1.887   4.979  20.054  0.00  0.00    +0.000 A 
ATOM     26  C   UNL     1       2.450   6.062  19.356  0.00  0.00    +0.000 A 
BRANCH  20  28
ATOM     27  C   UNL     1       4.791   6.650  16.623  0.00  0.00    +0.000 C 
ATOM     28  O   UNL     1       3.794   6.903  17.608  0.00  0.00    +0.000 OA
ENDBRANCH  20  28
ENDBRANCH  19  26
ENDBRANCH  18  19
ENDBRANCH   1  18
TORSDOF 8
ENDMDL
MODEL 7
REMARK VINA RESULT:      -7.3      4.316      7.922
REMARK  Name = 
REMARK  9 active torsions:
REMARK  status: ('A' for Active; 'I' for Inactive)
REMARK    1  A    between atoms: C_1  and  O_2
REMARK    2  A    between atoms: O_2  and  C_3
REMARK    3  A    between atoms: C_9  and  C_10
REMARK    4  A    between atoms: C_10  and  C_11
REMARK    5  A    between atoms: C_11  and  S_12
REMARK    6  A    between atoms: S_12  and  N_15
REMARK    7  A    between atoms: N_15  and  C_16
REMARK    8  A    between atoms: C_21  and  S_22
REMARK    9  A    between atoms: S_22  and  N_23
REMARK                            x       y       z     vdW  Elec       q    Type
REMARK                         _______ _______ _______ _____ _____    ______ ____
ROOT
ATOM      1  S   UNL     1       2.461   7.420  18.548  0.00  0.00    +0.000 S 
ATOM      2  O   UNL     1       1.616   6.498  17.820  0.00  0.00    +0.000 OA
ATOM      3  O   UNL     1       3.615   8.025  17.922  0.00  0.00    +0.000 OA
ENDROOT
BRANCH   1   4
ATOM      4  N   UNL     1       2.935   6.597  19.960  0.00  0.00    +0.000 N 
ATOM      5  H   UNL     1       2.548   7.135  20.753  0.00  0.00    +0.000 HD
BRANCH   4   6
ATOM      6  C   UNL     1       2.637   5.191  20.034  0.00  0.00    +0.000 A 
ATOM      7  C   UNL     1       1.429   4.818  20.638  0.00  0.00    +0.000 A 
ATOM      8  C   UNL     1       1.067   3.471  20.737  0.00  0.00    +0.000 A 
ATOM      9  C   UNL     1       1.907   2.479  20.232  0.00  0.00    +0.000 A 
ATOM     10  C   UNL     1       3.124   2.833  19.656  0.00  0.00    +0.000 A 
ATOM     11  C   UNL     1       3.500   4.183  19.584  0.00  0.00    +0.000 A 
BRANCH  11  12
ATOM     12  S   UNL     1       5.080   4.553  18.893  0.00  0.00    +0.000 S 
ATOM     13  O   UNL     1       5.675   5.644  19.630  0.00  0.00    +0.000 OA
ATOM     14  O   UNL     1       5.789   3.316  18.662  0.00  0.00    +0.000 OA
BRANCH  12  15
ATOM     15  N   UNL     1       4.648   5.177  17.402  0.00  0.00    +0.000 NA
ATOM     16  H   UNL     1       5.462   5.359  16.816  0.00  0.00    +0.000 HD
ATOM     17  H   UNL     1       3.900   4.643  16.956  0.00  0.00    +0.000 HD
ENDBRANCH  12  15
ENDBRANCH  11  12
ENDBRANCH   4   6
ENDBRANCH   1   4
BRANCH   1  18
ATOM     18  C   UNL     1       1.423   8.700  19.235  0.00  0.00    +0.000 C 
BRANCH  18  19
ATOM     19  C   UNL     1       1.133   9.767  18.184  0.00  0.00    +0.000 C 
BRANCH  19  26
ATOM     20  C   UNL     1      -0.599  11.423  19.082  0.00  0.00    +0.000 A 
ATOM     21  C   UNL     1      -1.913  11.900  19.118  0.00  0.00    +0.000 A 
ATOM     22  C   UNL     1      -2.901  11.286  18.352  0.00  0.00    +0.000 A 
ATOM     23 CL   UNL     1      -4.516  11.884  18.408  0.00  0.00    +0.000 Cl
ATOM     24  C   UNL     1      -2.597  10.201  17.539  0.00  0.00    +0.000 A 
ATOM     25  C   UNL     1      -1.289   9.720  17.496  0.00  0.00    +0.000 A 
ATOM     26  C   UNL     1      -0.276  10.321  18.267  0.00  0.00    +0.000 A 
BRANCH  20  28
ATOM     27  C   UNL     1       0.193  12.326  21.136  0.00  0.00    +0.000 C 
ATOM     28  O   UNL     1       0.440  11.988  19.775  0.00  0.00    +0.000 OA
ENDBRANCH  20  28
ENDBRANCH  19  26
ENDBRANCH  18  19
ENDBRANCH   1  18
TORSDOF 8
ENDMDL
MODEL 8
REMARK VINA RESULT:      -7.3      1.400      1.545
REMARK  Name = 
REMARK  9 active torsions:
REMARK  status: ('A' for Active; 'I' for Inactive)
REMARK    1  A    between atoms: C_1  and  O_2
REMARK    2  A    between atoms: O_2  and  C_3
REMARK    3  A    between atoms: C_9  and  C_10
REMARK    4  A    between atoms: C_10  and  C_11
REMARK    5  A    between atoms: C_11  and  S_12
REMARK    6  A    between atoms: S_12  and  N_15
REMARK    7  A    between atoms: N_15  and  C_16
REMARK    8  A    between atoms: C_21  and  S_22
REMARK    9  A    between atoms: S_22  and  N_23
REMARK                            x       y       z     vdW  Elec       q    Type
REMARK                         _______ _______ _______ _____ _____    ______ ____
ROOT
ATOM      1  S   UNL     1       2.051   5.310  19.797  0.00  0.00    +0.000 S 
ATOM      2  O   UNL     1       1.737   5.510  18.399  0.00  0.00    +0.000 OA
ATOM      3  O   UNL     1       1.164   4.562  20.660  0.00  0.00    +0.000 OA
ENDROOT
BRANCH   1   4
ATOM      4  N   UNL     1       2.307   6.864  20.441  0.00  0.00    +0.000 N 
ATOM      5  H   UNL     1       3.291   6.889  20.757  0.00  0.00    +0.000 HD
BRANCH   4   6
ATOM      6  C   UNL     1       1.953   7.986  19.612  0.00  0.00    +0.000 A 
ATOM      7  C   UNL     1       2.541   8.062  18.342  0.00  0.00    +0.000 A 
ATOM      8  C   UNL     1       2.238   9.118  17.477  0.00  0.00    +0.000 A 
ATOM      9  C   UNL     1       1.342  10.111  17.869  0.00  0.00    +0.000 A 
ATOM     10  C   UNL     1       0.771  10.065  19.138  0.00  0.00    +0.000 A 
ATOM     11  C   UNL     1       1.100   9.021  20.017  0.00  0.00    +0.000 A 
BRANCH  11  12
ATOM     12  S   UNL     1       0.384   9.057  21.628  0.00  0.00    +0.000 S 
ATOM     13  O   UNL     1      -0.267  10.332  21.828  0.00  0.00    +0.000 OA
ATOM     14  O   UNL     1      -0.305   7.809  21.860  0.00  0.00    +0.000 OA
BRANCH  12  15
ATOM     15  N   UNL     1       1.749   9.072  22.595  0.00  0.00    +0.000 NA
ATOM     16  H   UNL     1       1.916   9.991  23.002  0.00  0.00    +0.000 HD
ATOM     17  H   UNL     1       1.771   8.292  23.253  0.00  0.00    +0.000 HD
ENDBRANCH  12  15
ENDBRANCH  11  12
ENDBRANCH   4   6
ENDBRANCH   1   4
BRANCH   1  18
ATOM     18  C   UNL     1       3.696   4.625  19.904  0.00  0.00    +0.000 C 
BRANCH  18  19
ATOM     19  C   UNL     1       4.702   5.556  19.236  0.00  0.00    +0.000 C 
BRANCH  19  26
ATOM     20  C   UNL     1       5.672   6.043  16.919  0.00  0.00    +0.000 A 
ATOM     21  C   UNL     1       5.949   5.632  15.611  0.00  0.00    +0.000 A 
ATOM     22  C   UNL     1       5.580   4.357  15.186  0.00  0.00    +0.000 A 
ATOM     23 CL   UNL     1       5.927   3.865  13.572  0.00  0.00    +0.000 Cl
ATOM     24  C   UNL     1       4.942   3.478  16.052  0.00  0.00    +0.000 A 
ATOM     25  C   UNL     1       4.664   3.879  17.358  0.00  0.00    +0.000 A 
ATOM     26  C   UNL     1       5.021   5.165  17.806  0.00  0.00    +0.000 A 
BRANCH  20  28
ATOM     27  C   UNL     1       7.425   7.517  17.563  0.00  0.00    +0.000 C 
ATOM     28  O   UNL     1       6.030   7.264  17.429  0.00  0.00    +0.000 OA
ENDBRANCH  20  28
ENDBRANCH  19  26
ENDBRANCH  18  19
ENDBRANCH   1  18
TORSDOF 8
ENDMDL
MODEL 9
REMARK VINA RESULT:      -7.3      3.809      7.893
REMARK  Name = 
REMARK  9 active torsions:
REMARK  status: ('A' for Active; 'I' for Inactive)
REMARK    1  A    between atoms: C_1  and  O_2
REMARK    2  A    between atoms: O_2  and  C_3
REMARK    3  A    between atoms: C_9  and  C_10
REMARK    4  A    between atoms: C_10  and  C_11
REMARK    5  A    between atoms: C_11  and  S_12
REMARK    6  A    between atoms: S_12  and  N_15
REMARK    7  A    between atoms: N_15  and  C_16
REMARK    8  A    between atoms: C_21  and  S_22
REMARK    9  A    between atoms: S_22  and  N_23
REMARK                            x       y       z     vdW  Elec       q    Type
REMARK                         _______ _______ _______ _____ _____    ______ ____
ROOT
ATOM      1  S   UNL     1       2.411   6.737  18.781  0.00  0.00    +0.000 S 
ATOM      2  O   UNL     1       1.987   6.692  20.163  0.00  0.00    +0.000 OA
ATOM      3  O   UNL     1       1.692   6.011  17.758  0.00  0.00    +0.000 OA
ENDROOT
BRANCH   1   4
ATOM      4  N   UNL     1       4.046   6.266  18.782  0.00  0.00    +0.000 N 
ATOM      5  H   UNL     1       4.189   5.716  19.645  0.00  0.00    +0.000 HD
BRANCH   4   6
ATOM      6  C   UNL     1       4.539   5.603  17.603  0.00  0.00    +0.000 A 
ATOM      7  C   UNL     1       4.897   6.407  16.512  0.00  0.00    +0.000 A 
ATOM      8  C   UNL     1       5.393   5.835  15.336  0.00  0.00    +0.000 A 
ATOM      9  C   UNL     1       5.540   4.453  15.237  0.00  0.00    +0.000 A 
ATOM     10  C   UNL     1       5.162   3.639  16.301  0.00  0.00    +0.000 A 
ATOM     11  C   UNL     1       4.636   4.212  17.469  0.00  0.00    +0.000 A 
BRANCH  11  12
ATOM     12  S   UNL     1       4.125   3.118  18.755  0.00  0.00    +0.000 S 
ATOM     13  O   UNL     1       5.172   3.032  19.746  0.00  0.00    +0.000 OA
ATOM     14  O   UNL     1       2.761   3.428  19.116  0.00  0.00    +0.000 OA
BRANCH  12  15
ATOM     15  N   UNL     1       4.117   1.650  17.954  0.00  0.00    +0.000 NA
ATOM     16  H   UNL     1       4.679   1.678  17.104  0.00  0.00    +0.000 HD
ATOM     17  H   UNL     1       4.306   0.863  18.577  0.00  0.00    +0.000 HD
ENDBRANCH  12  15
ENDBRANCH  11  12
ENDBRANCH   4   6
ENDBRANCH   1   4
BRANCH   1  18
ATOM     18  C   UNL     1       2.553   8.451  18.300  0.00  0.00    +0.000 C 
BRANCH  18  19
ATOM     19  C   UNL     1       1.223   8.960  17.754  0.00  0.00    +0.000 C 
BRANCH  19  26
ATOM     20  C   UNL     1      -0.792  10.384  18.434  0.00  0.00    +0.000 A 
ATOM     21  C   UNL     1      -1.455  11.170  19.382  0.00  0.00    +0.000 A 
ATOM     22  C   UNL     1      -0.875  11.400  20.628  0.00  0.00    +0.000 A 
ATOM     23 CL   UNL     1      -1.703  12.370  21.786  0.00  0.00    +0.000 Cl
ATOM     24  C   UNL     1       0.359  10.849  20.948  0.00  0.00    +0.000 A 
ATOM     25  C   UNL     1       1.027  10.064  20.009  0.00  0.00    +0.000 A 
ATOM     26  C   UNL     1       0.463   9.824  18.742  0.00  0.00    +0.000 A 
BRANCH  20  28
ATOM     27  C   UNL     1      -2.700   9.801  17.137  0.00  0.00    +0.000 C 
ATOM     28  O   UNL     1      -1.304  10.079  17.200  0.00  0.00    +0.000 OA
ENDBRANCH  20  28
ENDBRANCH  19  26
ENDBRANCH  18  19
ENDBRANCH   1  18
TORSDOF 8
ENDMDL
