MODEL 1
REMARK VINA RESULT:      -7.6      0.000      0.000
REMARK  Name = 
REMARK  3 active torsions:
REMARK  status: ('A' for Active; 'I' for Inactive)
REMARK    1  A    between atoms: C_7  and  C_8
REMARK    2  A    between atoms: C_12  and  C_13
REMARK    3  A    between atoms: C_13  and  C_14
REMARK                            x       y       z     vdW  Elec       q    Type
REMARK                         _______ _______ _______ _____ _____    ______ ____
ROOT
ATOM      1  C   UNL     1       4.180   4.702  18.045  0.00  0.00    +0.000 A 
ATOM      2  N   UNL     1       3.938   3.666  17.167  0.00  0.00    +0.000 NA
ATOM      3  C   UNL     1       2.671   3.362  17.297  0.00  0.00    +0.000 A 
ATOM      4  N   UNL     1       2.081   4.120  18.260  0.00  0.00    +0.000 N 
ATOM      5  C   UNL     1       3.027   4.979  18.773  0.00  0.00    +0.000 A 
ATOM      6  H   UNL     1       1.111   4.066  18.536  0.00  0.00    +0.000 HD
ENDROOT
BRANCH   1  13
ATOM      7 CL   UNL     1       4.960   6.773  15.773  0.00  0.00    +0.000 Cl
ATOM      8  C   UNL     1       5.897   6.318  17.159  0.00  0.00    +0.000 A 
ATOM      9  C   UNL     1       7.126   6.980  17.303  0.00  0.00    +0.000 A 
ATOM     10  C   UNL     1       7.942   6.734  18.404  0.00  0.00    +0.000 A 
ATOM     11  C   UNL     1       7.549   5.797  19.350  0.00  0.00    +0.000 A 
ATOM     12  C   UNL     1       6.338   5.115  19.199  0.00  0.00    +0.000 A 
ATOM     13  C   UNL     1       5.471   5.381  18.123  0.00  0.00    +0.000 A 
ENDBRANCH   1  13
BRANCH   5  14
ATOM     14  C   UNL     1       2.670   5.925  19.872  0.00  0.00    +0.000 C 
BRANCH  14  15
ATOM     15  C   UNL     1       2.211   7.306  19.458  0.00  0.00    +0.000 A 
ATOM     16  C   UNL     1       2.375   7.799  18.157  0.00  0.00    +0.000 A 
ATOM     17  C   UNL     1       1.864   9.050  17.800  0.00  0.00    +0.000 A 
ATOM     18  C   UNL     1       1.171   9.816  18.734  0.00  0.00    +0.000 A 
ATOM     19  C   UNL     1       0.996   9.340  20.030  0.00  0.00    +0.000 A 
ATOM     20  C   UNL     1       1.509   8.092  20.388  0.00  0.00    +0.000 A 
ENDBRANCH  14  15
ENDBRANCH   5  14
TORSDOF 3
ENDMDL
MODEL 2
REMARK VINA RESULT:      -7.6      0.161      1.117
REMARK  Name = 
REMARK  3 active torsions:
REMARK  status: ('A' for Active; 'I' for Inactive)
REMARK    1  A    between atoms: C_7  and  C_8
REMARK    2  A    between atoms: C_12  and  C_13
REMARK    3  A    between atoms: C_13  and  C_14
REMARK                            x       y       z     vdW  Elec       q    Type
REMARK                         _______ _______ _______ _____ _____    ______ ____
ROOT
ATOM      1  C   UNL     1       4.299   4.622  18.117  0.00  0.00    +0.000 A 
ATOM      2  N   UNL     1       4.082   3.571  17.250  0.00  0.00    +0.000 NA
ATOM      3  C   UNL     1       2.828   3.227  17.395  0.00  0.00    +0.000 A 
ATOM      4  N   UNL     1       2.223   3.972  18.358  0.00  0.00    +0.000 N 
ATOM      5  C   UNL     1       3.145   4.867  18.855  0.00  0.00    +0.000 A 
ATOM      6  H   UNL     1       1.258   3.889  18.645  0.00  0.00    +0.000 HD
ENDROOT
BRANCH   1  13
ATOM      7 CL   UNL     1       4.999   6.678  15.807  0.00  0.00    +0.000 Cl
ATOM      8  C   UNL     1       5.958   6.277  17.195  0.00  0.00    +0.000 A 
ATOM      9  C   UNL     1       7.166   6.981  17.320  0.00  0.00    +0.000 A 
ATOM     10  C   UNL     1       7.996   6.780  18.420  0.00  0.00    +0.000 A 
ATOM     11  C   UNL     1       7.638   5.847  19.384  0.00  0.00    +0.000 A 
ATOM     12  C   UNL     1       6.449   5.123  19.251  0.00  0.00    +0.000 A 
ATOM     13  C   UNL     1       5.568   5.343  18.176  0.00  0.00    +0.000 A 
ENDBRANCH   1  13
BRANCH   5  14
ATOM     14  C   UNL     1       2.769   5.810  19.950  0.00  0.00    +0.000 C 
BRANCH  14  15
ATOM     15  C   UNL     1       2.195   7.144  19.530  0.00  0.00    +0.000 A 
ATOM     16  C   UNL     1       1.534   7.999  20.423  0.00  0.00    +0.000 A 
ATOM     17  C   UNL     1       1.090   9.257  20.008  0.00  0.00    +0.000 A 
ATOM     18  C   UNL     1       1.313   9.682  18.701  0.00  0.00    +0.000 A 
ATOM     19  C   UNL     1       1.970   8.848  17.802  0.00  0.00    +0.000 A 
ATOM     20  C   UNL     1       2.412   7.590  18.214  0.00  0.00    +0.000 A 
ENDBRANCH  14  15
ENDBRANCH   5  14
TORSDOF 3
ENDMDL
MODEL 3
REMARK VINA RESULT:      -7.5      3.244      6.456
REMARK  Name = 
REMARK  3 active torsions:
REMARK  status: ('A' for Active; 'I' for Inactive)
REMARK    1  A    between atoms: C_7  and  C_8
REMARK    2  A    between atoms: C_12  and  C_13
REMARK    3  A    between atoms: C_13  and  C_14
REMARK                            x       y       z     vdW  Elec       q    Type
REMARK                         _______ _______ _______ _____ _____    ______ ____
ROOT
ATOM      1  C   UNL     1       5.560   4.558  17.695  0.00  0.00    +0.000 A 
ATOM      2  N   UNL     1       6.522   4.364  18.665  0.00  0.00    +0.000 NA
ATOM      3  C   UNL     1       7.610   4.945  18.225  0.00  0.00    +0.000 A 
ATOM      4  N   UNL     1       7.419   5.469  16.985  0.00  0.00    +0.000 N 
ATOM      5  C   UNL     1       6.117   5.223  16.608  0.00  0.00    +0.000 A 
ATOM      6  H   UNL     1       8.113   5.966  16.444  0.00  0.00    +0.000 HD
ENDROOT
BRANCH   1  13
ATOM      7 CL   UNL     1       3.326   6.760  18.163  0.00  0.00    +0.000 Cl
ATOM      8  C   UNL     1       3.117   5.041  18.076  0.00  0.00    +0.000 A 
ATOM      9  C   UNL     1       1.794   4.585  18.188  0.00  0.00    +0.000 A 
ATOM     10  C   UNL     1       1.499   3.228  18.084  0.00  0.00    +0.000 A 
ATOM     11  C   UNL     1       2.530   2.316  17.901  0.00  0.00    +0.000 A 
ATOM     12  C   UNL     1       3.852   2.762  17.815  0.00  0.00    +0.000 A 
ATOM     13  C   UNL     1       4.174   4.131  17.867  0.00  0.00    +0.000 A 
ENDBRANCH   1  13
BRANCH   5  14
ATOM     14  C   UNL     1       5.621   5.669  15.271  0.00  0.00    +0.000 C 
BRANCH  14  15
ATOM     15  C   UNL     1       6.049   4.843  14.078  0.00  0.00    +0.000 A 
ATOM     16  C   UNL     1       5.243   3.839  13.525  0.00  0.00    +0.000 A 
ATOM     17  C   UNL     1       5.646   3.156  12.374  0.00  0.00    +0.000 A 
ATOM     18  C   UNL     1       6.850   3.478  11.754  0.00  0.00    +0.000 A 
ATOM     19  C   UNL     1       7.661   4.475  12.288  0.00  0.00    +0.000 A 
ATOM     20  C   UNL     1       7.261   5.155  13.440  0.00  0.00    +0.000 A 
ENDBRANCH  14  15
ENDBRANCH   5  14
TORSDOF 3
ENDMDL
MODEL 4
REMARK VINA RESULT:      -7.4      1.814      4.898
REMARK  Name = 
REMARK  3 active torsions:
REMARK  status: ('A' for Active; 'I' for Inactive)
REMARK    1  A    between atoms: C_7  and  C_8
REMARK    2  A    between atoms: C_12  and  C_13
REMARK    3  A    between atoms: C_13  and  C_14
REMARK                            x       y       z     vdW  Elec       q    Type
REMARK                         _______ _______ _______ _____ _____    ______ ____
ROOT
ATOM      1  C   UNL     1       2.887   4.350  18.287  0.00  0.00    +0.000 A 
ATOM      2  N   UNL     1       2.052   3.569  17.515  0.00  0.00    +0.000 NA
ATOM      3  C   UNL     1       2.714   2.471  17.252  0.00  0.00    +0.000 A 
ATOM      4  N   UNL     1       3.968   2.517  17.776  0.00  0.00    +0.000 N 
ATOM      5  C   UNL     1       4.118   3.719  18.433  0.00  0.00    +0.000 A 
ATOM      6  H   UNL     1       4.661   1.785  17.705  0.00  0.00    +0.000 HD
ENDROOT
BRANCH   1  13
ATOM      7 CL   UNL     1       1.990   4.440  21.328  0.00  0.00    +0.000 Cl
ATOM      8  C   UNL     1       2.052   5.758  20.202  0.00  0.00    +0.000 A 
ATOM      9  C   UNL     1       1.700   7.014  20.720  0.00  0.00    +0.000 A 
ATOM     10  C   UNL     1       1.760   8.154  19.922  0.00  0.00    +0.000 A 
ATOM     11  C   UNL     1       2.141   8.038  18.592  0.00  0.00    +0.000 A 
ATOM     12  C   UNL     1       2.468   6.786  18.063  0.00  0.00    +0.000 A 
ATOM     13  C   UNL     1       2.463   5.625  18.860  0.00  0.00    +0.000 A 
ENDBRANCH   1  13
BRANCH   5  14
ATOM     14  C   UNL     1       5.412   4.061  19.094  0.00  0.00    +0.000 C 
BRANCH  14  15
ATOM     15  C   UNL     1       6.198   5.207  18.498  0.00  0.00    +0.000 A 
ATOM     16  C   UNL     1       5.786   5.889  17.345  0.00  0.00    +0.000 A 
ATOM     17  C   UNL     1       6.502   6.992  16.875  0.00  0.00    +0.000 A 
ATOM     18  C   UNL     1       7.630   7.438  17.560  0.00  0.00    +0.000 A 
ATOM     19  C   UNL     1       8.051   6.776  18.709  0.00  0.00    +0.000 A 
ATOM     20  C   UNL     1       7.338   5.671  19.177  0.00  0.00    +0.000 A 
ENDBRANCH  14  15
ENDBRANCH   5  14
TORSDOF 3
ENDMDL
MODEL 5
REMARK VINA RESULT:      -7.3      1.871      4.983
REMARK  Name = 
REMARK  3 active torsions:
REMARK  status: ('A' for Active; 'I' for Inactive)
REMARK    1  A    between atoms: C_7  and  C_8
REMARK    2  A    between atoms: C_12  and  C_13
REMARK    3  A    between atoms: C_13  and  C_14
REMARK                            x       y       z     vdW  Elec       q    Type
REMARK                         _______ _______ _______ _____ _____    ______ ____
ROOT
ATOM      1  C   UNL     1       2.853   4.175  18.335  0.00  0.00    +0.000 A 
ATOM      2  N   UNL     1       1.993   3.398  17.586  0.00  0.00    +0.000 NA
ATOM      3  C   UNL     1       2.626   2.277  17.347  0.00  0.00    +0.000 A 
ATOM      4  N   UNL     1       3.883   2.303  17.863  0.00  0.00    +0.000 N 
ATOM      5  C   UNL     1       4.068   3.516  18.490  0.00  0.00    +0.000 A 
ATOM      6  H   UNL     1       4.557   1.552  17.805  0.00  0.00    +0.000 HD
ENDROOT
BRANCH   1  13
ATOM      7 CL   UNL     1       1.955   4.357  21.371  0.00  0.00    +0.000 Cl
ATOM      8  C   UNL     1       2.057   5.648  20.217  0.00  0.00    +0.000 A 
ATOM      9  C   UNL     1       1.741   6.925  20.707  0.00  0.00    +0.000 A 
ATOM     10  C   UNL     1       1.835   8.045  19.885  0.00  0.00    +0.000 A 
ATOM     11  C   UNL     1       2.214   7.889  18.558  0.00  0.00    +0.000 A 
ATOM     12  C   UNL     1       2.505   6.617  18.058  0.00  0.00    +0.000 A 
ATOM     13  C   UNL     1       2.466   5.474  18.879  0.00  0.00    +0.000 A 
ENDBRANCH   1  13
BRANCH   5  14
ATOM     14  C   UNL     1       5.375   3.840  19.135  0.00  0.00    +0.000 C 
BRANCH  14  15
ATOM     15  C   UNL     1       6.130   5.028  18.582  0.00  0.00    +0.000 A 
ATOM     16  C   UNL     1       7.190   5.637  19.267  0.00  0.00    +0.000 A 
ATOM     17  C   UNL     1       7.909   6.682  18.682  0.00  0.00    +0.000 A 
ATOM     18  C   UNL     1       7.589   7.121  17.399  0.00  0.00    +0.000 A 
ATOM     19  C   UNL     1       6.542   6.525  16.703  0.00  0.00    +0.000 A 
ATOM     20  C   UNL     1       5.820   5.483  17.289  0.00  0.00    +0.000 A 
ENDBRANCH  14  15
ENDBRANCH   5  14
TORSDOF 3
ENDMDL
MODEL 6
REMARK VINA RESULT:      -7.3      2.305      5.100
REMARK  Name = 
REMARK  3 active torsions:
REMARK  status: ('A' for Active; 'I' for Inactive)
REMARK    1  A    between atoms: C_7  and  C_8
REMARK    2  A    between atoms: C_12  and  C_13
REMARK    3  A    between atoms: C_13  and  C_14
REMARK                            x       y       z     vdW  Elec       q    Type
REMARK                         _______ _______ _______ _____ _____    ______ ____
ROOT
ATOM      1  C   UNL     1       2.541   5.529  19.565  0.00  0.00    +0.000 A 
ATOM      2  N   UNL     1       1.791   5.831  20.683  0.00  0.00    +0.000 NA
ATOM      3  C   UNL     1       1.608   7.127  20.664  0.00  0.00    +0.000 A 
ATOM      4  N   UNL     1       2.249   7.697  19.610  0.00  0.00    +0.000 N 
ATOM      5  C   UNL     1       2.873   6.701  18.892  0.00  0.00    +0.000 A 
ATOM      6  H   UNL     1       2.251   8.683  19.387  0.00  0.00    +0.000 HD
ENDROOT
BRANCH   1  13
ATOM      7 CL   UNL     1       0.971   4.179  17.162  0.00  0.00    +0.000 Cl
ATOM      8  C   UNL     1       2.229   3.481  18.132  0.00  0.00    +0.000 A 
ATOM      9  C   UNL     1       2.615   2.180  17.776  0.00  0.00    +0.000 A 
ATOM     10  C   UNL     1       3.649   1.536  18.451  0.00  0.00    +0.000 A 
ATOM     11  C   UNL     1       4.279   2.178  19.509  0.00  0.00    +0.000 A 
ATOM     12  C   UNL     1       3.880   3.464  19.885  0.00  0.00    +0.000 A 
ATOM     13  C   UNL     1       2.872   4.158  19.188  0.00  0.00    +0.000 A 
ENDBRANCH   1  13
BRANCH   5  14
ATOM     14  C   UNL     1       3.679   7.034  17.681  0.00  0.00    +0.000 C 
BRANCH  14  15
ATOM     15  C   UNL     1       4.882   6.160  17.403  0.00  0.00    +0.000 A 
ATOM     16  C   UNL     1       5.997   6.115  18.252  0.00  0.00    +0.000 A 
ATOM     17  C   UNL     1       7.050   5.233  17.997  0.00  0.00    +0.000 A 
ATOM     18  C   UNL     1       6.997   4.377  16.900  0.00  0.00    +0.000 A 
ATOM     19  C   UNL     1       5.897   4.406  16.049  0.00  0.00    +0.000 A 
ATOM     20  C   UNL     1       4.845   5.289  16.301  0.00  0.00    +0.000 A 
ENDBRANCH  14  15
ENDBRANCH   5  14
TORSDOF 3
ENDMDL
MODEL 7
REMARK VINA RESULT:      -7.3      1.866      5.046
REMARK  Name = 
REMARK  3 active torsions:
REMARK  status: ('A' for Active; 'I' for Inactive)
REMARK    1  A    between atoms: C_7  and  C_8
REMARK    2  A    between atoms: C_12  and  C_13
REMARK    3  A    between atoms: C_13  and  C_14
REMARK                            x       y       z     vdW  Elec       q    Type
REMARK                         _______ _______ _______ _____ _____    ______ ____
ROOT
ATOM      1  C   UNL     1       3.134   3.982  18.368  0.00  0.00    +0.000 A 
ATOM      2  N   UNL     1       2.533   2.842  18.860  0.00  0.00    +0.000 NA
ATOM      3  C   UNL     1       3.219   1.831  18.389  0.00  0.00    +0.000 A 
ATOM      4  N   UNL     1       4.215   2.256  17.567  0.00  0.00    +0.000 N 
ATOM      5  C   UNL     1       4.178   3.632  17.517  0.00  0.00    +0.000 A 
ATOM      6  H   UNL     1       4.875   1.659  17.089  0.00  0.00    +0.000 HD
ENDROOT
BRANCH   1  13
ATOM      7 CL   UNL     1       2.239   4.506  21.365  0.00  0.00    +0.000 Cl
ATOM      8  C   UNL     1       2.295   5.648  20.061  0.00  0.00    +0.000 A 
ATOM      9  C   UNL     1       1.938   6.964  20.393  0.00  0.00    +0.000 A 
ATOM     10  C   UNL     1       1.992   7.977  19.439  0.00  0.00    +0.000 A 
ATOM     11  C   UNL     1       2.372   7.672  18.139  0.00  0.00    +0.000 A 
ATOM     12  C   UNL     1       2.704   6.358  17.796  0.00  0.00    +0.000 A 
ATOM     13  C   UNL     1       2.706   5.324  18.751  0.00  0.00    +0.000 A 
ENDBRANCH   1  13
BRANCH   5  14
ATOM     14  C   UNL     1       5.150   4.383  16.668  0.00  0.00    +0.000 C 
BRANCH  14  15
ATOM     15  C   UNL     1       6.119   5.294  17.388  0.00  0.00    +0.000 A 
ATOM     16  C   UNL     1       6.837   4.890  18.523  0.00  0.00    +0.000 A 
ATOM     17  C   UNL     1       7.780   5.739  19.107  0.00  0.00    +0.000 A 
ATOM     18  C   UNL     1       8.030   6.994  18.557  0.00  0.00    +0.000 A 
ATOM     19  C   UNL     1       7.329   7.409  17.429  0.00  0.00    +0.000 A 
ATOM     20  C   UNL     1       6.384   6.563  16.846  0.00  0.00    +0.000 A 
ENDBRANCH  14  15
ENDBRANCH   5  14
TORSDOF 3
ENDMDL
MODEL 8
REMARK VINA RESULT:      -7.3      2.311      5.052
REMARK  Name = 
REMARK  3 active torsions:
REMARK  status: ('A' for Active; 'I' for Inactive)
REMARK    1  A    between atoms: C_7  and  C_8
REMARK    2  A    between atoms: C_12  and  C_13
REMARK    3  A    between atoms: C_13  and  C_14
REMARK                            x       y       z     vdW  Elec       q    Type
REMARK                         _______ _______ _______ _____ _____    ______ ____
ROOT
ATOM      1  C   UNL     1       2.537   5.482  19.584  0.00  0.00    +0.000 A 
ATOM      2  N   UNL     1       1.772   5.790  20.690  0.00  0.00    +0.000 NA
ATOM      3  C   UNL     1       1.600   7.088  20.668  0.00  0.00    +0.000 A 
ATOM      4  N   UNL     1       2.261   7.653  19.624  0.00  0.00    +0.000 N 
ATOM      5  C   UNL     1       2.889   6.651  18.916  0.00  0.00    +0.000 A 
ATOM      6  H   UNL     1       2.275   8.639  19.401  0.00  0.00    +0.000 HD
ENDROOT
BRANCH   1  13
ATOM      7 CL   UNL     1       0.999   4.146  17.154  0.00  0.00    +0.000 Cl
ATOM      8  C   UNL     1       2.233   3.438  18.144  0.00  0.00    +0.000 A 
ATOM      9  C   UNL     1       2.616   2.133  17.795  0.00  0.00    +0.000 A 
ATOM     10  C   UNL     1       3.632   1.480  18.488  0.00  0.00    +0.000 A 
ATOM     11  C   UNL     1       4.248   2.117  19.557  0.00  0.00    +0.000 A 
ATOM     12  C   UNL     1       3.854   3.407  19.926  0.00  0.00    +0.000 A 
ATOM     13  C   UNL     1       2.864   4.108  19.213  0.00  0.00    +0.000 A 
ENDBRANCH   1  13
BRANCH   5  14
ATOM     14  C   UNL     1       3.718   6.978  17.718  0.00  0.00    +0.000 C 
BRANCH  14  15
ATOM     15  C   UNL     1       4.865   6.042  17.409  0.00  0.00    +0.000 A 
ATOM     16  C   UNL     1       4.879   5.208  16.283  0.00  0.00    +0.000 A 
ATOM     17  C   UNL     1       5.996   4.418  15.996  0.00  0.00    +0.000 A 
ATOM     18  C   UNL     1       7.117   4.463  16.821  0.00  0.00    +0.000 A 
ATOM     19  C   UNL     1       7.121   5.289  17.942  0.00  0.00    +0.000 A 
ATOM     20  C   UNL     1       6.005   6.075  18.231  0.00  0.00    +0.000 A 
ENDBRANCH  14  15
ENDBRANCH   5  14
TORSDOF 3
ENDMDL
MODEL 9
REMARK VINA RESULT:      -7.3      2.075      4.097
REMARK  Name = 
REMARK  3 active torsions:
REMARK  status: ('A' for Active; 'I' for Inactive)
REMARK    1  A    between atoms: C_7  and  C_8
REMARK    2  A    between atoms: C_12  and  C_13
REMARK    3  A    between atoms: C_13  and  C_14
REMARK                            x       y       z     vdW  Elec       q    Type
REMARK                         _______ _______ _______ _____ _____    ______ ____
ROOT
ATOM      1  C   UNL     1       4.399   4.815  19.066  0.00  0.00    +0.000 A 
ATOM      2  N   UNL     1       5.685   4.452  19.412  0.00  0.00    +0.000 NA
ATOM      3  C   UNL     1       6.476   5.339  18.864  0.00  0.00    +0.000 A 
ATOM      4  N   UNL     1       5.771   6.240  18.130  0.00  0.00    +0.000 N 
ATOM      5  C   UNL     1       4.434   5.922  18.224  0.00  0.00    +0.000 A 
ATOM      6  H   UNL     1       6.165   7.017  17.617  0.00  0.00    +0.000 HD
ENDROOT
BRANCH   1  13
ATOM      7 CL   UNL     1       2.590   3.193  17.028  0.00  0.00    +0.000 Cl
ATOM      8  C   UNL     1       2.365   3.366  18.738  0.00  0.00    +0.000 A 
ATOM      9  C   UNL     1       1.272   2.669  19.278  0.00  0.00    +0.000 A 
ATOM     10  C   UNL     1       1.021   2.693  20.648  0.00  0.00    +0.000 A 
ATOM     11  C   UNL     1       1.841   3.443  21.481  0.00  0.00    +0.000 A 
ATOM     12  C   UNL     1       2.915   4.160  20.945  0.00  0.00    +0.000 A 
ATOM     13  C   UNL     1       3.222   4.113  19.572  0.00  0.00    +0.000 A 
ENDBRANCH   1  13
BRANCH   5  14
ATOM     14  C   UNL     1       3.412   6.732  17.497  0.00  0.00    +0.000 C 
BRANCH  14  15
ATOM     15  C   UNL     1       2.526   7.624  18.339  0.00  0.00    +0.000 A 
ATOM     16  C   UNL     1       2.251   7.361  19.688  0.00  0.00    +0.000 A 
ATOM     17  C   UNL     1       1.492   8.256  20.446  0.00  0.00    +0.000 A 
ATOM     18  C   UNL     1       1.011   9.430  19.872  0.00  0.00    +0.000 A 
ATOM     19  C   UNL     1       1.278   9.708  18.535  0.00  0.00    +0.000 A 
ATOM     20  C   UNL     1       2.034   8.813  17.775  0.00  0.00    +0.000 A 
ENDBRANCH  14  15
ENDBRANCH   5  14
TORSDOF 3
ENDMDL
