MODEL 1
REMARK VINA RESULT:      -7.9      0.000      0.000
REMARK  Name = 
REMARK  5 active torsions:
REMARK  status: ('A' for Active; 'I' for Inactive)
REMARK    1  A    between atoms: C_1  and  C_2
REMARK    2  A    between atoms: C_2  and  O_4
REMARK    3  A    between atoms: O_4  and  N_5
REMARK    4  A    between atoms: N_9  and  C_10
REMARK    5  A    between atoms: C_10  and  C_11
REMARK                            x       y       z     vdW  Elec       q    Type
REMARK                         _______ _______ _______ _____ _____    ______ ____
ROOT
ATOM      1  N   UNL     1       8.046   7.221  17.134  0.00  0.00    +0.000 NA
ATOM      2  C   UNL     1       7.229   6.227  17.262  0.00  0.00    +0.000 C 
ATOM      3  C   UNL     1       6.549   5.686  18.524  0.00  0.00    +0.000 C 
ATOM      4  O   UNL     1       6.726   6.088  19.655  0.00  0.00    +0.000 OA
ATOM      5  N   UNL     1       5.745   4.640  18.091  0.00  0.00    +0.000 N 
ATOM      6  C   UNL     1       5.879   4.457  16.702  0.00  0.00    +0.000 A 
ATOM      7  C   UNL     1       5.280   3.517  15.882  0.00  0.00    +0.000 A 
ATOM      8  C   UNL     1       5.628   3.513  14.522  0.00  0.00    +0.000 A 
ATOM      9  C   UNL     1       6.563   4.435  14.012  0.00  0.00    +0.000 A 
ATOM     10 CL   UNL     1       6.989   4.371  12.345  0.00  0.00    +0.000 Cl
ATOM     11  C   UNL     1       7.152   5.391  14.835  0.00  0.00    +0.000 A 
ATOM     12  C   UNL     1       6.780   5.378  16.166  0.00  0.00    +0.000 A 
ENDROOT
BRANCH   1  13
ATOM     13  O   UNL     1       8.258   7.852  18.371  0.00  0.00    +0.000 OA
BRANCH  13  15
ATOM     14  C   UNL     1       9.267   9.780  19.228  0.00  0.00    +0.000 C 
ATOM     15  C   UNL     1       8.314   9.214  18.217  0.00  0.00    +0.000 C 
ATOM     16  O   UNL     1       7.675   9.899  17.429  0.00  0.00    +0.000 OA
ENDBRANCH  13  15
ENDBRANCH   1  13
BRANCH   5  17
ATOM     17  C   UNL     1       5.128   3.698  19.000  0.00  0.00    +0.000 C 
BRANCH  17  18
ATOM     18  C   UNL     1       3.662   3.916  19.320  0.00  0.00    +0.000 A 
ATOM     19  C   UNL     1       3.195   5.125  19.870  0.00  0.00    +0.000 A 
ATOM     20  C   UNL     1       1.872   5.257  20.301  0.00  0.00    +0.000 A 
ATOM     21 CL   UNL     1       1.348   6.738  21.004  0.00  0.00    +0.000 Cl
ATOM     22  C   UNL     1       0.982   4.195  20.191  0.00  0.00    +0.000 A 
ATOM     23  C   UNL     1       1.417   2.992  19.639  0.00  0.00    +0.000 A 
ATOM     24  C   UNL     1       2.744   2.851  19.214  0.00  0.00    +0.000 A 
ATOM     25 CL   UNL     1       3.205   1.305  18.587  0.00  0.00    +0.000 Cl
ENDBRANCH  17  18
ENDBRANCH   5  17
TORSDOF 4
ENDMDL
MODEL 2
REMARK VINA RESULT:      -7.0      2.975      6.789
REMARK  Name = 
REMARK  5 active torsions:
REMARK  status: ('A' for Active; 'I' for Inactive)
REMARK    1  A    between atoms: C_1  and  C_2
REMARK    2  A    between atoms: C_2  and  O_4
REMARK    3  A    between atoms: O_4  and  N_5
REMARK    4  A    between atoms: N_9  and  C_10
REMARK    5  A    between atoms: C_10  and  C_11
REMARK                            x       y       z     vdW  Elec       q    Type
REMARK                         _______ _______ _______ _____ _____    ______ ____
ROOT
ATOM      1  N   UNL     1       2.473   4.672  20.821  0.00  0.00    +0.000 NA
ATOM      2  C   UNL     1       3.297   4.990  19.877  0.00  0.00    +0.000 C 
ATOM      3  C   UNL     1       4.549   4.250  19.391  0.00  0.00    +0.000 C 
ATOM      4  O   UNL     1       5.010   3.238  19.877  0.00  0.00    +0.000 OA
ATOM      5  N   UNL     1       5.034   5.002  18.330  0.00  0.00    +0.000 N 
ATOM      6  C   UNL     1       4.236   6.144  18.129  0.00  0.00    +0.000 A 
ATOM      7  C   UNL     1       4.382   7.161  17.202  0.00  0.00    +0.000 A 
ATOM      8  C   UNL     1       3.471   8.227  17.246  0.00  0.00    +0.000 A 
ATOM      9  C   UNL     1       2.443   8.261  18.208  0.00  0.00    +0.000 A 
ATOM     10 CL   UNL     1       1.369   9.606  18.251  0.00  0.00    +0.000 Cl
ATOM     11  C   UNL     1       2.286   7.229  19.130  0.00  0.00    +0.000 A 
ATOM     12  C   UNL     1       3.191   6.187  19.053  0.00  0.00    +0.000 A 
ENDROOT
BRANCH   1  13
ATOM     13  O   UNL     1       2.837   3.449  21.407  0.00  0.00    +0.000 OA
BRANCH  13  15
ATOM     14  C   UNL     1       1.322   2.238  20.099  0.00  0.00    +0.000 C 
ATOM     15  C   UNL     1       1.754   2.609  21.487  0.00  0.00    +0.000 C 
ATOM     16  O   UNL     1       1.176   2.237  22.500  0.00  0.00    +0.000 OA
ENDBRANCH  13  15
ENDBRANCH   1  13
BRANCH   5  17
ATOM     17  C   UNL     1       6.344   4.789  17.753  0.00  0.00    +0.000 C 
BRANCH  17  18
ATOM     18  C   UNL     1       6.398   4.500  16.265  0.00  0.00    +0.000 A 
ATOM     19  C   UNL     1       7.342   5.120  15.424  0.00  0.00    +0.000 A 
ATOM     20  C   UNL     1       7.283   4.963  14.037  0.00  0.00    +0.000 A 
ATOM     21 CL   UNL     1       8.429   5.768  13.037  0.00  0.00    +0.000 Cl
ATOM     22  C   UNL     1       6.290   4.184  13.454  0.00  0.00    +0.000 A 
ATOM     23  C   UNL     1       5.351   3.551  14.267  0.00  0.00    +0.000 A 
ATOM     24  C   UNL     1       5.401   3.712  15.657  0.00  0.00    +0.000 A 
ATOM     25 CL   UNL     1       4.165   2.927  16.580  0.00  0.00    +0.000 Cl
ENDBRANCH  17  18
ENDBRANCH   5  17
TORSDOF 4
ENDMDL
MODEL 3
REMARK VINA RESULT:      -7.0      2.858      4.373
REMARK  Name = 
REMARK  5 active torsions:
REMARK  status: ('A' for Active; 'I' for Inactive)
REMARK    1  A    between atoms: C_1  and  C_2
REMARK    2  A    between atoms: C_2  and  O_4
REMARK    3  A    between atoms: O_4  and  N_5
REMARK    4  A    between atoms: N_9  and  C_10
REMARK    5  A    between atoms: C_10  and  C_11
REMARK                            x       y       z     vdW  Elec       q    Type
REMARK                         _______ _______ _______ _____ _____    ______ ____
ROOT
ATOM      1  N   UNL     1       5.931   5.411  14.664  0.00  0.00    +0.000 NA
ATOM      2  C   UNL     1       5.961   5.153  15.930  0.00  0.00    +0.000 C 
ATOM      3  C   UNL     1       5.288   4.014  16.705  0.00  0.00    +0.000 C 
ATOM      4  O   UNL     1       4.544   3.178  16.236  0.00  0.00    +0.000 OA
ATOM      5  N   UNL     1       5.681   4.184  18.026  0.00  0.00    +0.000 N 
ATOM      6  C   UNL     1       6.499   5.321  18.155  0.00  0.00    +0.000 A 
ATOM      7  C   UNL     1       7.079   5.857  19.293  0.00  0.00    +0.000 A 
ATOM      8  C   UNL     1       7.814   7.045  19.158  0.00  0.00    +0.000 A 
ATOM      9  C   UNL     1       7.953   7.673  17.905  0.00  0.00    +0.000 A 
ATOM     10 CL   UNL     1       8.832   9.148  17.792  0.00  0.00    +0.000 Cl
ATOM     11  C   UNL     1       7.383   7.124  16.759  0.00  0.00    +0.000 A 
ATOM     12  C   UNL     1       6.676   5.948  16.920  0.00  0.00    +0.000 A 
ENDROOT
BRANCH   1  13
ATOM     13  O   UNL     1       5.179   4.444  13.977  0.00  0.00    +0.000 OA
BRANCH  13  15
ATOM     14  C   UNL     1       4.925   3.277  11.966  0.00  0.00    +0.000 C 
ATOM     15  C   UNL     1       5.879   3.960  12.901  0.00  0.00    +0.000 C 
ATOM     16  O   UNL     1       7.088   4.013  12.717  0.00  0.00    +0.000 OA
ENDBRANCH  13  15
ENDBRANCH   1  13
BRANCH   5  17
ATOM     17  C   UNL     1       5.064   3.471  19.124  0.00  0.00    +0.000 C 
BRANCH  17  18
ATOM     18  C   UNL     1       3.606   3.779  19.406  0.00  0.00    +0.000 A 
ATOM     19  C   UNL     1       3.201   5.013  19.950  0.00  0.00    +0.000 A 
ATOM     20  C   UNL     1       1.878   5.226  20.346  0.00  0.00    +0.000 A 
ATOM     21 CL   UNL     1       1.428   6.733  21.044  0.00  0.00    +0.000 Cl
ATOM     22  C   UNL     1       0.927   4.222  20.207  0.00  0.00    +0.000 A 
ATOM     23  C   UNL     1       1.301   2.995  19.660  0.00  0.00    +0.000 A 
ATOM     24  C   UNL     1       2.627   2.774  19.269  0.00  0.00    +0.000 A 
ATOM     25 CL   UNL     1       3.008   1.204  18.646  0.00  0.00    +0.000 Cl
ENDBRANCH  17  18
ENDBRANCH   5  17
TORSDOF 4
ENDMDL
MODEL 4
REMARK VINA RESULT:      -7.0      3.382      7.229
REMARK  Name = 
REMARK  5 active torsions:
REMARK  status: ('A' for Active; 'I' for Inactive)
REMARK    1  A    between atoms: C_1  and  C_2
REMARK    2  A    between atoms: C_2  and  O_4
REMARK    3  A    between atoms: O_4  and  N_5
REMARK    4  A    between atoms: N_9  and  C_10
REMARK    5  A    between atoms: C_10  and  C_11
REMARK                            x       y       z     vdW  Elec       q    Type
REMARK                         _______ _______ _______ _____ _____    ______ ____
ROOT
ATOM      1  N   UNL     1       1.988   5.492  20.614  0.00  0.00    +0.000 NA
ATOM      2  C   UNL     1       2.533   6.248  19.716  0.00  0.00    +0.000 C 
ATOM      3  C   UNL     1       3.806   6.016  18.895  0.00  0.00    +0.000 C 
ATOM      4  O   UNL     1       4.563   5.074  19.008  0.00  0.00    +0.000 OA
ATOM      5  N   UNL     1       3.907   7.115  18.053  0.00  0.00    +0.000 N 
ATOM      6  C   UNL     1       2.851   8.016  18.288  0.00  0.00    +0.000 A 
ATOM      7  C   UNL     1       2.594   9.237  17.689  0.00  0.00    +0.000 A 
ATOM      8  C   UNL     1       1.492   9.974  18.148  0.00  0.00    +0.000 A 
ATOM      9  C   UNL     1       0.677   9.487  19.189  0.00  0.00    +0.000 A 
ATOM     10 CL   UNL     1      -0.643  10.441  19.746  0.00  0.00    +0.000 Cl
ATOM     11  C   UNL     1       0.927   8.251  19.779  0.00  0.00    +0.000 A 
ATOM     12  C   UNL     1       2.012   7.542  19.298  0.00  0.00    +0.000 A 
ENDROOT
BRANCH   1  13
ATOM     13  O   UNL     1       2.717   4.302  20.770  0.00  0.00    +0.000 OA
BRANCH  13  15
ATOM     14  C   UNL     1       0.905   3.059  19.969  0.00  0.00    +0.000 C 
ATOM     15  C   UNL     1       1.882   3.261  21.089  0.00  0.00    +0.000 C 
ATOM     16  O   UNL     1       1.872   2.608  22.125  0.00  0.00    +0.000 OA
ENDBRANCH  13  15
ENDBRANCH   1  13
BRANCH   5  17
ATOM     17  C   UNL     1       5.103   7.412  17.294  0.00  0.00    +0.000 C 
BRANCH  17  18
ATOM     18  C   UNL     1       5.747   6.256  16.553  0.00  0.00    +0.000 A 
ATOM     19  C   UNL     1       5.167   5.704  15.394  0.00  0.00    +0.000 A 
ATOM     20  C   UNL     1       5.688   4.545  14.811  0.00  0.00    +0.000 A 
ATOM     21 CL   UNL     1       4.930   3.876  13.419  0.00  0.00    +0.000 Cl
ATOM     22  C   UNL     1       6.797   3.913  15.361  0.00  0.00    +0.000 A 
ATOM     23  C   UNL     1       7.396   4.448  16.500  0.00  0.00    +0.000 A 
ATOM     24  C   UNL     1       6.873   5.603  17.093  0.00  0.00    +0.000 A 
ATOM     25 CL   UNL     1       7.653   6.165  18.533  0.00  0.00    +0.000 Cl
ENDBRANCH  17  18
ENDBRANCH   5  17
TORSDOF 4
ENDMDL
MODEL 5
REMARK VINA RESULT:      -6.8      3.472      7.269
REMARK  Name = 
REMARK  5 active torsions:
REMARK  status: ('A' for Active; 'I' for Inactive)
REMARK    1  A    between atoms: C_1  and  C_2
REMARK    2  A    between atoms: C_2  and  O_4
REMARK    3  A    between atoms: O_4  and  N_5
REMARK    4  A    between atoms: N_9  and  C_10
REMARK    5  A    between atoms: C_10  and  C_11
REMARK                            x       y       z     vdW  Elec       q    Type
REMARK                         _______ _______ _______ _____ _____    ______ ____
ROOT
ATOM      1  N   UNL     1       1.873   5.253  21.186  0.00  0.00    +0.000 NA
ATOM      2  C   UNL     1       2.250   5.892  20.127  0.00  0.00    +0.000 C 
ATOM      3  C   UNL     1       3.159   5.426  18.984  0.00  0.00    +0.000 C 
ATOM      4  O   UNL     1       3.737   4.360  18.925  0.00  0.00    +0.000 OA
ATOM      5  N   UNL     1       3.198   6.485  18.088  0.00  0.00    +0.000 N 
ATOM      6  C   UNL     1       2.436   7.567  18.569  0.00  0.00    +0.000 A 
ATOM      7  C   UNL     1       2.231   8.813  18.002  0.00  0.00    +0.000 A 
ATOM      8  C   UNL     1       1.463   9.743  18.719  0.00  0.00    +0.000 A 
ATOM      9  C   UNL     1       0.922   9.418  19.978  0.00  0.00    +0.000 A 
ATOM     10 CL   UNL     1       0.017  10.602  20.840  0.00  0.00    +0.000 Cl
ATOM     11  C   UNL     1       1.115   8.158  20.540  0.00  0.00    +0.000 A 
ATOM     12  C   UNL     1       1.864   7.260  19.805  0.00  0.00    +0.000 A 
ENDROOT
BRANCH   1  13
ATOM     13  O   UNL     1       2.393   3.948  21.191  0.00  0.00    +0.000 OA
BRANCH  13  15
ATOM     14  C   UNL     1       0.715   2.838  19.998  0.00  0.00    +0.000 C 
ATOM     15  C   UNL     1       1.387   3.026  21.326  0.00  0.00    +0.000 C 
ATOM     16  O   UNL     1       1.031   2.460  22.352  0.00  0.00    +0.000 OA
ENDBRANCH  13  15
ENDBRANCH   1  13
BRANCH   5  17
ATOM     17  C   UNL     1       4.147   6.554  16.997  0.00  0.00    +0.000 C 
BRANCH  17  18
ATOM     18  C   UNL     1       5.438   5.776  17.163  0.00  0.00    +0.000 A 
ATOM     19  C   UNL     1       6.258   5.937  18.297  0.00  0.00    +0.000 A 
ATOM     20  C   UNL     1       7.516   5.332  18.367  0.00  0.00    +0.000 A 
ATOM     21 CL   UNL     1       8.508   5.582  19.751  0.00  0.00    +0.000 Cl
ATOM     22  C   UNL     1       7.986   4.551  17.317  0.00  0.00    +0.000 A 
ATOM     23  C   UNL     1       7.187   4.368  16.189  0.00  0.00    +0.000 A 
ATOM     24  C   UNL     1       5.930   4.979  16.110  0.00  0.00    +0.000 A 
ATOM     25 CL   UNL     1       5.031   4.734  14.651  0.00  0.00    +0.000 Cl
ENDBRANCH  17  18
ENDBRANCH   5  17
TORSDOF 4
ENDMDL
MODEL 6
REMARK VINA RESULT:      -6.8      3.559      7.465
REMARK  Name = 
REMARK  5 active torsions:
REMARK  status: ('A' for Active; 'I' for Inactive)
REMARK    1  A    between atoms: C_1  and  C_2
REMARK    2  A    between atoms: C_2  and  O_4
REMARK    3  A    between atoms: O_4  and  N_5
REMARK    4  A    between atoms: N_9  and  C_10
REMARK    5  A    between atoms: C_10  and  C_11
REMARK                            x       y       z     vdW  Elec       q    Type
REMARK                         _______ _______ _______ _____ _____    ______ ____
ROOT
ATOM      1  N   UNL     1       2.053   5.071  21.305  0.00  0.00    +0.000 NA
ATOM      2  C   UNL     1       2.243   5.813  20.264  0.00  0.00    +0.000 C 
ATOM      3  C   UNL     1       2.956   5.477  18.949  0.00  0.00    +0.000 C 
ATOM      4  O   UNL     1       3.527   4.437  18.696  0.00  0.00    +0.000 OA
ATOM      5  N   UNL     1       2.835   6.615  18.162  0.00  0.00    +0.000 N 
ATOM      6  C   UNL     1       2.152   7.627  18.861  0.00  0.00    +0.000 A 
ATOM      7  C   UNL     1       1.843   8.915  18.455  0.00  0.00    +0.000 A 
ATOM      8  C   UNL     1       1.195   9.755  19.372  0.00  0.00    +0.000 A 
ATOM      9  C   UNL     1       0.872   9.303  20.666  0.00  0.00    +0.000 A 
ATOM     10 CL   UNL     1       0.110  10.379  21.772  0.00  0.00    +0.000 Cl
ATOM     11  C   UNL     1       1.168   8.002  21.068  0.00  0.00    +0.000 A 
ATOM     12  C   UNL     1       1.795   7.194  20.139  0.00  0.00    +0.000 A 
ENDROOT
BRANCH   1  13
ATOM     13  O   UNL     1       2.580   3.785  21.102  0.00  0.00    +0.000 OA
BRANCH  13  15
ATOM     14  C   UNL     1       1.000   2.469  19.989  0.00  0.00    +0.000 C 
ATOM     15  C   UNL     1       1.619   2.829  21.307  0.00  0.00    +0.000 C 
ATOM     16  O   UNL     1       1.260   2.353  22.377  0.00  0.00    +0.000 OA
ENDBRANCH  13  15
ENDBRANCH   1  13
BRANCH   5  17
ATOM     17  C   UNL     1       3.590   6.806  16.942  0.00  0.00    +0.000 C 
BRANCH  17  18
ATOM     18  C   UNL     1       5.094   6.634  17.033  0.00  0.00    +0.000 A 
ATOM     19  C   UNL     1       5.923   7.636  17.572  0.00  0.00    +0.000 A 
ATOM     20  C   UNL     1       7.315   7.529  17.510  0.00  0.00    +0.000 A 
ATOM     21 CL   UNL     1       8.297   8.792  18.144  0.00  0.00    +0.000 Cl
ATOM     22  C   UNL     1       7.915   6.424  16.918  0.00  0.00    +0.000 A 
ATOM     23  C   UNL     1       7.115   5.413  16.388  0.00  0.00    +0.000 A 
ATOM     24  C   UNL     1       5.720   5.519  16.439  0.00  0.00    +0.000 A 
ATOM     25 CL   UNL     1       4.810   4.239  15.712  0.00  0.00    +0.000 Cl
ENDBRANCH  17  18
ENDBRANCH   5  17
TORSDOF 4
ENDMDL
MODEL 7
REMARK VINA RESULT:      -6.8      2.842      4.299
REMARK  Name = 
REMARK  5 active torsions:
REMARK  status: ('A' for Active; 'I' for Inactive)
REMARK    1  A    between atoms: C_1  and  C_2
REMARK    2  A    between atoms: C_2  and  O_4
REMARK    3  A    between atoms: O_4  and  N_5
REMARK    4  A    between atoms: N_9  and  C_10
REMARK    5  A    between atoms: C_10  and  C_11
REMARK                            x       y       z     vdW  Elec       q    Type
REMARK                         _______ _______ _______ _____ _____    ______ ____
ROOT
ATOM      1  N   UNL     1       6.232   6.504  15.723  0.00  0.00    +0.000 NA
ATOM      2  C   UNL     1       5.628   6.018  16.757  0.00  0.00    +0.000 C 
ATOM      3  C   UNL     1       5.894   4.710  17.512  0.00  0.00    +0.000 C 
ATOM      4  O   UNL     1       6.711   3.867  17.205  0.00  0.00    +0.000 OA
ATOM      5  N   UNL     1       4.989   4.700  18.564  0.00  0.00    +0.000 N 
ATOM      6  C   UNL     1       4.170   5.844  18.522  0.00  0.00    +0.000 A 
ATOM      7  C   UNL     1       3.132   6.208  19.362  0.00  0.00    +0.000 A 
ATOM      8  C   UNL     1       2.431   7.388  19.067  0.00  0.00    +0.000 A 
ATOM      9  C   UNL     1       2.772   8.173  17.948  0.00  0.00    +0.000 A 
ATOM     10 CL   UNL     1       1.862   9.592  17.603  0.00  0.00    +0.000 Cl
ATOM     11  C   UNL     1       3.828   7.814  17.114  0.00  0.00    +0.000 A 
ATOM     12  C   UNL     1       4.507   6.655  17.437  0.00  0.00    +0.000 A 
ENDROOT
BRANCH   1  13
ATOM     13  O   UNL     1       7.285   5.665  15.322  0.00  0.00    +0.000 OA
BRANCH  13  15
ATOM     14  C   UNL     1       7.958   5.435  13.094  0.00  0.00    +0.000 C 
ATOM     15  C   UNL     1       6.974   5.024  14.149  0.00  0.00    +0.000 C 
ATOM     16  O   UNL     1       6.031   4.270  13.942  0.00  0.00    +0.000 OA
ENDBRANCH  13  15
ENDBRANCH   1  13
BRANCH   5  17
ATOM     17  C   UNL     1       4.736   3.523  19.368  0.00  0.00    +0.000 C 
BRANCH  17  18
ATOM     18  C   UNL     1       3.284   3.151  19.598  0.00  0.00    +0.000 A 
ATOM     19  C   UNL     1       2.756   2.994  20.894  0.00  0.00    +0.000 A 
ATOM     20  C   UNL     1       1.463   2.503  21.090  0.00  0.00    +0.000 A 
ATOM     21 CL   UNL     1       0.865   2.287  22.689  0.00  0.00    +0.000 Cl
ATOM     22  C   UNL     1       0.663   2.162  20.006  0.00  0.00    +0.000 A 
ATOM     23  C   UNL     1       1.159   2.319  18.713  0.00  0.00    +0.000 A 
ATOM     24  C   UNL     1       2.457   2.802  18.511  0.00  0.00    +0.000 A 
ATOM     25 CL   UNL     1       3.004   2.917  16.873  0.00  0.00    +0.000 Cl
ENDBRANCH  17  18
ENDBRANCH   5  17
TORSDOF 4
ENDMDL
MODEL 8
REMARK VINA RESULT:      -6.7      3.811      6.338
REMARK  Name = 
REMARK  5 active torsions:
REMARK  status: ('A' for Active; 'I' for Inactive)
REMARK    1  A    between atoms: C_1  and  C_2
REMARK    2  A    between atoms: C_2  and  O_4
REMARK    3  A    between atoms: O_4  and  N_5
REMARK    4  A    between atoms: N_9  and  C_10
REMARK    5  A    between atoms: C_10  and  C_11
REMARK                            x       y       z     vdW  Elec       q    Type
REMARK                         _______ _______ _______ _____ _____    ______ ____
ROOT
ATOM      1  N   UNL     1       4.521   4.936  16.805  0.00  0.00    +0.000 NA
ATOM      2  C   UNL     1       3.822   5.740  17.538  0.00  0.00    +0.000 C 
ATOM      3  C   UNL     1       3.544   7.236  17.346  0.00  0.00    +0.000 C 
ATOM      4  O   UNL     1       4.006   7.937  16.469  0.00  0.00    +0.000 OA
ATOM      5  N   UNL     1       2.706   7.593  18.393  0.00  0.00    +0.000 N 
ATOM      6  C   UNL     1       2.462   6.487  19.229  0.00  0.00    +0.000 A 
ATOM      7  C   UNL     1       1.707   6.416  20.387  0.00  0.00    +0.000 A 
ATOM      8  C   UNL     1       1.668   5.191  21.071  0.00  0.00    +0.000 A 
ATOM      9  C   UNL     1       2.378   4.072  20.595  0.00  0.00    +0.000 A 
ATOM     10 CL   UNL     1       2.331   2.600  21.486  0.00  0.00    +0.000 Cl
ATOM     11  C   UNL     1       3.122   4.140  19.420  0.00  0.00    +0.000 A 
ATOM     12  C   UNL     1       3.133   5.355  18.762  0.00  0.00    +0.000 A 
ENDROOT
BRANCH   1  13
ATOM     13  O   UNL     1       5.034   5.607  15.682  0.00  0.00    +0.000 OA
BRANCH  13  15
ATOM     14  C   UNL     1       6.250   3.779  14.875  0.00  0.00    +0.000 C 
ATOM     15  C   UNL     1       6.309   5.182  15.404  0.00  0.00    +0.000 C 
ATOM     16  O   UNL     1       7.353   5.795  15.586  0.00  0.00    +0.000 OA
ENDBRANCH  13  15
ENDBRANCH   1  13
BRANCH   5  17
ATOM     17  C   UNL     1       2.412   8.970  18.725  0.00  0.00    +0.000 C 
BRANCH  17  18
ATOM     18  C   UNL     1       0.948   9.360  18.791  0.00  0.00    +0.000 A 
ATOM     19  C   UNL     1       0.145   9.421  17.636  0.00  0.00    +0.000 A 
ATOM     20  C   UNL     1      -1.157   9.928  17.690  0.00  0.00    +0.000 A 
ATOM     21 CL   UNL     1      -2.096  10.023  16.251  0.00  0.00    +0.000 Cl
ATOM     22  C   UNL     1      -1.691  10.381  18.891  0.00  0.00    +0.000 A 
ATOM     23  C   UNL     1      -0.920  10.320  20.050  0.00  0.00    +0.000 A 
ATOM     24  C   UNL     1       0.388   9.821  20.000  0.00  0.00    +0.000 A 
ATOM     25 CL   UNL     1       1.286   9.831  21.479  0.00  0.00    +0.000 Cl
ENDBRANCH  17  18
ENDBRANCH   5  17
TORSDOF 4
ENDMDL
MODEL 9
REMARK VINA RESULT:      -6.7      2.654      6.186
REMARK  Name = 
REMARK  5 active torsions:
REMARK  status: ('A' for Active; 'I' for Inactive)
REMARK    1  A    between atoms: C_1  and  C_2
REMARK    2  A    between atoms: C_2  and  O_4
REMARK    3  A    between atoms: O_4  and  N_5
REMARK    4  A    between atoms: N_9  and  C_10
REMARK    5  A    between atoms: C_10  and  C_11
REMARK                            x       y       z     vdW  Elec       q    Type
REMARK                         _______ _______ _______ _____ _____    ______ ____
ROOT
ATOM      1  N   UNL     1       2.255   7.259  18.244  0.00  0.00    +0.000 NA
ATOM      2  C   UNL     1       3.222   6.407  18.357  0.00  0.00    +0.000 C 
ATOM      3  C   UNL     1       4.608   6.420  17.703  0.00  0.00    +0.000 C 
ATOM      4  O   UNL     1       5.007   7.237  16.900  0.00  0.00    +0.000 OA
ATOM      5  N   UNL     1       5.259   5.297  18.197  0.00  0.00    +0.000 N 
ATOM      6  C   UNL     1       4.413   4.576  19.060  0.00  0.00    +0.000 A 
ATOM      7  C   UNL     1       4.658   3.394  19.738  0.00  0.00    +0.000 A 
ATOM      8  C   UNL     1       3.616   2.846  20.501  0.00  0.00    +0.000 A 
ATOM      9  C   UNL     1       2.359   3.479  20.570  0.00  0.00    +0.000 A 
ATOM     10 CL   UNL     1       1.097   2.753  21.488  0.00  0.00    +0.000 Cl
ATOM     11  C   UNL     1       2.119   4.676  19.901  0.00  0.00    +0.000 A 
ATOM     12  C   UNL     1       3.168   5.198  19.168  0.00  0.00    +0.000 A 
ENDROOT
BRANCH   1  13
ATOM     13  O   UNL     1       2.629   8.327  17.412  0.00  0.00    +0.000 OA
BRANCH  13  15
ATOM     14  C   UNL     1       1.107   9.230  18.941  0.00  0.00    +0.000 C 
ATOM     15  C   UNL     1       2.156   9.515  17.907  0.00  0.00    +0.000 C 
ATOM     16  O   UNL     1       2.476  10.645  17.559  0.00  0.00    +0.000 OA
ENDBRANCH  13  15
ENDBRANCH   1  13
BRANCH   5  17
ATOM     17  C   UNL     1       6.498   4.801  17.636  0.00  0.00    +0.000 C 
BRANCH  17  18
ATOM     18  C   UNL     1       6.509   4.512  16.148  0.00  0.00    +0.000 A 
ATOM     19  C   UNL     1       7.431   5.128  15.280  0.00  0.00    +0.000 A 
ATOM     20  C   UNL     1       7.331   4.971  13.895  0.00  0.00    +0.000 A 
ATOM     21 CL   UNL     1       8.452   5.771  12.863  0.00  0.00    +0.000 Cl
ATOM     22  C   UNL     1       6.320   4.195  13.341  0.00  0.00    +0.000 A 
ATOM     23  C   UNL     1       5.402   3.565  14.180  0.00  0.00    +0.000 A 
ATOM     24  C   UNL     1       5.492   3.727  15.568  0.00  0.00    +0.000 A 
ATOM     25 CL   UNL     1       4.280   2.947  16.526  0.00  0.00    +0.000 Cl
ENDBRANCH  17  18
ENDBRANCH   5  17
TORSDOF 4
ENDMDL
