MODEL 1
REMARK VINA RESULT:      -6.9      0.000      0.000
REMARK  Name = 
REMARK  10 active torsions:
REMARK  status: ('A' for Active; 'I' for Inactive)
REMARK    1  A    between atoms: C_1  and  O_2
REMARK    2  A    between atoms: O_2  and  C_3
REMARK    3  A    between atoms: C_5  and  C_6
REMARK    4  A    between atoms: C_6  and  N_7
REMARK    5  A    between atoms: C_17  and  C_18
REMARK    6  A    between atoms: C_17  and  C_19
REMARK    7  A    between atoms: C_21  and  O_22
REMARK    8  A    between atoms: O_22  and  C_23
REMARK    9  A    between atoms: C_24  and  O_25
REMARK   10  A    between atoms: O_25  and  C_26
REMARK                            x       y       z     vdW  Elec       q    Type
REMARK                         _______ _______ _______ _____ _____    ______ ____
ROOT
ATOM      1  C   UNL     1       2.778   7.787  17.935  0.00  0.00    +0.000 C 
ENDROOT
BRANCH   1   2
ATOM      2  N   UNL     1       2.062   8.612  18.945  0.00  0.00    +0.000 N 
ATOM      3  C   UNL     1       1.679   8.036  20.144  0.00  0.00    +0.000 C 
ATOM      4  C   UNL     1       0.957   8.582  21.113  0.00  0.00    +0.000 C 
ATOM      5  C   UNL     1       0.471   9.956  20.900  0.00  0.00    +0.000 C 
ATOM      6  N   UNL     1      -0.144  10.658  21.810  0.00  0.00    +0.000 N 
ATOM      7  C   UNL     1      -0.508  10.190  23.184  0.00  0.00    +0.000 C 
ATOM      8  C   UNL     1      -1.767  10.986  23.472  0.00  0.00    +0.000 C 
ATOM      9  C   UNL     1      -1.496  12.343  22.851  0.00  0.00    +0.000 C 
ATOM     10  C   UNL     1      -0.645  12.067  21.620  0.00  0.00    +0.000 C 
ATOM     11  C   UNL     1       0.696  10.640  19.560  0.00  0.00    +0.000 C 
ATOM     12  C   UNL     1       1.380   9.826  18.428  0.00  0.00    +0.000 C 
ATOM     13  C   UNL     1       0.300   9.428  17.395  0.00  0.00    +0.000 C 
ATOM     14  C   UNL     1       2.407  10.767  17.765  0.00  0.00    +0.000 C 
ENDBRANCH   1   2
BRANCH   1  17
ATOM     15  C   UNL     1       2.495   3.988  18.056  0.00  0.00    +0.000 A 
ATOM     16  C   UNL     1       2.112   5.338  18.083  0.00  0.00    +0.000 A 
ATOM     17  C   UNL     1       3.037   6.349  18.333  0.00  0.00    +0.000 A 
ATOM     18  C   UNL     1       4.321   5.971  18.743  0.00  0.00    +0.000 A 
ATOM     19  C   UNL     1       4.711   4.626  18.773  0.00  0.00    +0.000 A 
ATOM     20  C   UNL     1       3.805   3.610  18.408  0.00  0.00    +0.000 A 
BRANCH  15  22
ATOM     21  C   UNL     1       0.765   2.555  18.799  0.00  0.00    +0.000 C 
ATOM     22  O   UNL     1       1.567   3.036  17.720  0.00  0.00    +0.000 OA
ENDBRANCH  15  22
BRANCH  19  23
ATOM     23  O   UNL     1       6.013   4.460  19.181  0.00  0.00    +0.000 OA
ATOM     24  C   UNL     1       6.992   5.206  18.464  0.00  0.00    +0.000 C 
ENDBRANCH  19  23
BRANCH  20  25
ATOM     25  O   UNL     1       4.271   2.323  18.484  0.00  0.00    +0.000 OA
ATOM     26  C   UNL     1       4.293   1.680  19.752  0.00  0.00    +0.000 C 
ENDBRANCH  20  25
ENDBRANCH   1  17
TORSDOF 5
ENDMDL
MODEL 2
REMARK VINA RESULT:      -6.6      2.872      4.137
REMARK  Name = 
REMARK  10 active torsions:
REMARK  status: ('A' for Active; 'I' for Inactive)
REMARK    1  A    between atoms: C_1  and  O_2
REMARK    2  A    between atoms: O_2  and  C_3
REMARK    3  A    between atoms: C_5  and  C_6
REMARK    4  A    between atoms: C_6  and  N_7
REMARK    5  A    between atoms: C_17  and  C_18
REMARK    6  A    between atoms: C_17  and  C_19
REMARK    7  A    between atoms: C_21  and  O_22
REMARK    8  A    between atoms: O_22  and  C_23
REMARK    9  A    between atoms: C_24  and  O_25
REMARK   10  A    between atoms: O_25  and  C_26
REMARK                            x       y       z     vdW  Elec       q    Type
REMARK                         _______ _______ _______ _____ _____    ______ ____
ROOT
ATOM      1  C   UNL     1       2.001   9.775  18.705  0.00  0.00    +0.000 C 
ENDROOT
BRANCH   1   2
ATOM      2  N   UNL     1       0.563  10.156  18.721  0.00  0.00    +0.000 N 
ATOM      3  C   UNL     1      -0.256   9.762  17.676  0.00  0.00    +0.000 C 
ATOM      4  C   UNL     1      -1.525  10.086  17.472  0.00  0.00    +0.000 C 
ATOM      5  C   UNL     1      -2.155  10.991  18.448  0.00  0.00    +0.000 C 
ATOM      6  N   UNL     1      -3.422  11.297  18.442  0.00  0.00    +0.000 N 
ATOM      7  C   UNL     1      -4.432  10.839  17.437  0.00  0.00    +0.000 C 
ATOM      8  C   UNL     1      -5.412  11.998  17.414  0.00  0.00    +0.000 C 
ATOM      9  C   UNL     1      -5.484  12.449  18.860  0.00  0.00    +0.000 C 
ATOM     10  C   UNL     1      -4.093  12.216  19.431  0.00  0.00    +0.000 C 
ATOM     11  C   UNL     1      -1.318  11.614  19.555  0.00  0.00    +0.000 C 
ATOM     12  C   UNL     1       0.207  11.320  19.574  0.00  0.00    +0.000 C 
ATOM     13  C   UNL     1       0.952  12.583  19.084  0.00  0.00    +0.000 C 
ATOM     14  C   UNL     1       0.585  11.033  21.042  0.00  0.00    +0.000 C 
ENDBRANCH   1   2
BRANCH   1  17
ATOM     15  C   UNL     1       3.682   6.537  17.603  0.00  0.00    +0.000 A 
ATOM     16  C   UNL     1       3.084   7.804  17.520  0.00  0.00    +0.000 A 
ATOM     17  C   UNL     1       2.282   8.296  18.548  0.00  0.00    +0.000 A 
ATOM     18  C   UNL     1       1.935   7.418  19.581  0.00  0.00    +0.000 A 
ATOM     19  C   UNL     1       2.480   6.129  19.658  0.00  0.00    +0.000 A 
ATOM     20  C   UNL     1       3.382   5.674  18.675  0.00  0.00    +0.000 A 
BRANCH  15  22
ATOM     21  C   UNL     1       5.863   6.645  16.690  0.00  0.00    +0.000 C 
ATOM     22  O   UNL     1       4.533   6.131  16.607  0.00  0.00    +0.000 OA
ENDBRANCH  15  22
BRANCH  19  23
ATOM     23  O   UNL     1       2.035   5.429  20.753  0.00  0.00    +0.000 OA
ATOM     24  C   UNL     1       1.076   4.408  20.495  0.00  0.00    +0.000 C 
ENDBRANCH  19  23
BRANCH  20  25
ATOM     25  O   UNL     1       3.851   4.395  18.825  0.00  0.00    +0.000 OA
ATOM     26  C   UNL     1       5.153   4.205  19.364  0.00  0.00    +0.000 C 
ENDBRANCH  20  25
ENDBRANCH   1  17
TORSDOF 5
ENDMDL
MODEL 3
REMARK VINA RESULT:      -6.4      4.147      8.339
REMARK  Name = 
REMARK  10 active torsions:
REMARK  status: ('A' for Active; 'I' for Inactive)
REMARK    1  A    between atoms: C_1  and  O_2
REMARK    2  A    between atoms: O_2  and  C_3
REMARK    3  A    between atoms: C_5  and  C_6
REMARK    4  A    between atoms: C_6  and  N_7
REMARK    5  A    between atoms: C_17  and  C_18
REMARK    6  A    between atoms: C_17  and  C_19
REMARK    7  A    between atoms: C_21  and  O_22
REMARK    8  A    between atoms: O_22  and  C_23
REMARK    9  A    between atoms: C_24  and  O_25
REMARK   10  A    between atoms: O_25  and  C_26
REMARK                            x       y       z     vdW  Elec       q    Type
REMARK                         _______ _______ _______ _____ _____    ______ ____
ROOT
ATOM      1  C   UNL     1       0.521  11.105  20.231  0.00  0.00    +0.000 C 
ENDROOT
BRANCH   1   2
ATOM      2  N   UNL     1       1.171   9.790  19.985  0.00  0.00    +0.000 N 
ATOM      3  C   UNL     1       1.507   9.429  18.691  0.00  0.00    +0.000 C 
ATOM      4  C   UNL     1       1.999   8.271  18.273  0.00  0.00    +0.000 C 
ATOM      5  C   UNL     1       2.197   7.219  19.284  0.00  0.00    +0.000 C 
ATOM      6  N   UNL     1       2.782   6.079  19.040  0.00  0.00    +0.000 N 
ATOM      7  C   UNL     1       3.296   5.622  17.711  0.00  0.00    +0.000 C 
ATOM      8  C   UNL     1       3.130   4.116  17.802  0.00  0.00    +0.000 C 
ATOM      9  C   UNL     1       3.478   3.793  19.242  0.00  0.00    +0.000 C 
ATOM     10  C   UNL     1       3.003   4.988  20.056  0.00  0.00    +0.000 C 
ATOM     11  C   UNL     1       1.724   7.440  20.712  0.00  0.00    +0.000 C 
ATOM     12  C   UNL     1       0.977   8.761  21.040  0.00  0.00    +0.000 C 
ATOM     13  C   UNL     1      -0.528   8.442  21.198  0.00  0.00    +0.000 C 
ATOM     14  C   UNL     1       1.542   9.269  22.382  0.00  0.00    +0.000 C 
ENDBRANCH   1   2
BRANCH   1  17
ATOM     15  C   UNL     1      -2.398  10.556  17.842  0.00  0.00    +0.000 A 
ATOM     16  C   UNL     1      -1.080  10.598  18.322  0.00  0.00    +0.000 A 
ATOM     17  C   UNL     1      -0.735  11.372  19.429  0.00  0.00    +0.000 A 
ATOM     18  C   UNL     1      -1.699  12.252  19.934  0.00  0.00    +0.000 A 
ATOM     19  C   UNL     1      -3.009  12.265  19.437  0.00  0.00    +0.000 A 
ATOM     20  C   UNL     1      -3.386  11.397  18.392  0.00  0.00    +0.000 A 
BRANCH  15  22
ATOM     21  C   UNL     1      -2.739  10.321  15.513  0.00  0.00    +0.000 C 
ATOM     22  O   UNL     1      -2.707   9.714  16.805  0.00  0.00    +0.000 OA
ENDBRANCH  15  22
BRANCH  19  23
ATOM     23  O   UNL     1      -3.810  13.180  20.076  0.00  0.00    +0.000 OA
ATOM     24  C   UNL     1      -4.387  12.755  21.306  0.00  0.00    +0.000 C 
ENDBRANCH  19  23
BRANCH  20  25
ATOM     25  O   UNL     1      -4.684  11.492  17.961  0.00  0.00    +0.000 OA
ATOM     26  C   UNL     1      -5.652  10.613  18.520  0.00  0.00    +0.000 C 
ENDBRANCH  20  25
ENDBRANCH   1  17
TORSDOF 5
ENDMDL
MODEL 4
REMARK VINA RESULT:      -6.4      3.104      5.215
REMARK  Name = 
REMARK  10 active torsions:
REMARK  status: ('A' for Active; 'I' for Inactive)
REMARK    1  A    between atoms: C_1  and  O_2
REMARK    2  A    between atoms: O_2  and  C_3
REMARK    3  A    between atoms: C_5  and  C_6
REMARK    4  A    between atoms: C_6  and  N_7
REMARK    5  A    between atoms: C_17  and  C_18
REMARK    6  A    between atoms: C_17  and  C_19
REMARK    7  A    between atoms: C_21  and  O_22
REMARK    8  A    between atoms: O_22  and  C_23
REMARK    9  A    between atoms: C_24  and  O_25
REMARK   10  A    between atoms: O_25  and  C_26
REMARK                            x       y       z     vdW  Elec       q    Type
REMARK                         _______ _______ _______ _____ _____    ______ ____
ROOT
ATOM      1  C   UNL     1       3.644   4.275  17.277  0.00  0.00    +0.000 C 
ENDROOT
BRANCH   1   2
ATOM      2  N   UNL     1       2.945   5.350  18.032  0.00  0.00    +0.000 N 
ATOM      3  C   UNL     1       2.989   6.651  17.558  0.00  0.00    +0.000 C 
ATOM      4  C   UNL     1       2.513   7.743  18.140  0.00  0.00    +0.000 C 
ATOM      5  C   UNL     1       1.880   7.583  19.460  0.00  0.00    +0.000 C 
ATOM      6  N   UNL     1       1.265   8.543  20.091  0.00  0.00    +0.000 N 
ATOM      7  C   UNL     1       1.140   9.961  19.628  0.00  0.00    +0.000 C 
ATOM      8  C   UNL     1       1.081  10.723  20.939  0.00  0.00    +0.000 C 
ATOM      9  C   UNL     1       0.263   9.829  21.850  0.00  0.00    +0.000 C 
ATOM     10  C   UNL     1       0.603   8.405  21.439  0.00  0.00    +0.000 C 
ATOM     11  C   UNL     1       1.906   6.229  20.154  0.00  0.00    +0.000 C 
ATOM     12  C   UNL     1       2.671   5.067  19.464  0.00  0.00    +0.000 C 
ATOM     13  C   UNL     1       3.998   4.841  20.224  0.00  0.00    +0.000 C 
ATOM     14  C   UNL     1       1.780   3.814  19.593  0.00  0.00    +0.000 C 
ENDBRANCH   1   2
BRANCH   1  17
ATOM     15  C   UNL     1       6.899   5.816  16.030  0.00  0.00    +0.000 A 
ATOM     16  C   UNL     1       5.679   5.690  16.712  0.00  0.00    +0.000 A 
ATOM     17  C   UNL     1       4.731   4.742  16.332  0.00  0.00    +0.000 A 
ATOM     18  C   UNL     1       4.947   4.046  15.137  0.00  0.00    +0.000 A 
ATOM     19  C   UNL     1       6.137   4.193  14.411  0.00  0.00    +0.000 A 
ATOM     20  C   UNL     1       7.145   5.070  14.861  0.00  0.00    +0.000 A 
BRANCH  15  22
ATOM     21  C   UNL     1       7.390   7.583  17.525  0.00  0.00    +0.000 C 
ATOM     22  O   UNL     1       7.836   6.703  16.493  0.00  0.00    +0.000 OA
ENDBRANCH  15  22
BRANCH  19  23
ATOM     23  O   UNL     1       6.169   3.412  13.282  0.00  0.00    +0.000 OA
ATOM     24  C   UNL     1       5.138   3.650  12.328  0.00  0.00    +0.000 C 
ENDBRANCH  19  23
BRANCH  20  25
ATOM     25  O   UNL     1       8.266   5.160  14.078  0.00  0.00    +0.000 OA
ATOM     26  C   UNL     1       8.157   5.776  12.800  0.00  0.00    +0.000 C 
ENDBRANCH  20  25
ENDBRANCH   1  17
TORSDOF 5
ENDMDL
MODEL 5
REMARK VINA RESULT:      -6.4      0.713      2.572
REMARK  Name = 
REMARK  10 active torsions:
REMARK  status: ('A' for Active; 'I' for Inactive)
REMARK    1  A    between atoms: C_1  and  O_2
REMARK    2  A    between atoms: O_2  and  C_3
REMARK    3  A    between atoms: C_5  and  C_6
REMARK    4  A    between atoms: C_6  and  N_7
REMARK    5  A    between atoms: C_17  and  C_18
REMARK    6  A    between atoms: C_17  and  C_19
REMARK    7  A    between atoms: C_21  and  O_22
REMARK    8  A    between atoms: O_22  and  C_23
REMARK    9  A    between atoms: C_24  and  O_25
REMARK   10  A    between atoms: O_25  and  C_26
REMARK                            x       y       z     vdW  Elec       q    Type
REMARK                         _______ _______ _______ _____ _____    ______ ____
ROOT
ATOM      1  C   UNL     1       2.824   7.683  17.791  0.00  0.00    +0.000 C 
ENDROOT
BRANCH   1   2
ATOM      2  N   UNL     1       2.134   8.481  18.841  0.00  0.00    +0.000 N 
ATOM      3  C   UNL     1       1.780   7.873  20.033  0.00  0.00    +0.000 C 
ATOM      4  C   UNL     1       1.083   8.393  21.033  0.00  0.00    +0.000 C 
ATOM      5  C   UNL     1       0.595   9.773  20.871  0.00  0.00    +0.000 C 
ATOM      6  N   UNL     1       0.004  10.451  21.815  0.00  0.00    +0.000 N 
ATOM      7  C   UNL     1      -0.327   9.945  23.184  0.00  0.00    +0.000 C 
ATOM      8  C   UNL     1      -1.577  10.736  23.525  0.00  0.00    +0.000 C 
ATOM      9  C   UNL     1      -1.318  12.108  22.935  0.00  0.00    +0.000 C 
ATOM     10  C   UNL     1      -0.498  11.865  21.676  0.00  0.00    +0.000 C 
ATOM     11  C   UNL     1       0.789  10.494  19.545  0.00  0.00    +0.000 C 
ATOM     12  C   UNL     1       1.442   9.710  18.374  0.00  0.00    +0.000 C 
ATOM     13  C   UNL     1       0.336   9.343  17.358  0.00  0.00    +0.000 C 
ATOM     14  C   UNL     1       2.456  10.667  17.712  0.00  0.00    +0.000 C 
ENDBRANCH   1   2
BRANCH   1  17
ATOM     15  C   UNL     1       4.909   4.801  19.158  0.00  0.00    +0.000 A 
ATOM     16  C   UNL     1       4.559   5.928  18.399  0.00  0.00    +0.000 A 
ATOM     17  C   UNL     1       3.227   6.281  18.197  0.00  0.00    +0.000 A 
ATOM     18  C   UNL     1       2.242   5.378  18.613  0.00  0.00    +0.000 A 
ATOM     19  C   UNL     1       2.571   4.219  19.329  0.00  0.00    +0.000 A 
ATOM     20  C   UNL     1       3.915   3.922  19.632  0.00  0.00    +0.000 A 
BRANCH  15  22
ATOM     21  C   UNL     1       7.126   5.629  19.155  0.00  0.00    +0.000 C 
ATOM     22  O   UNL     1       6.233   4.542  19.401  0.00  0.00    +0.000 OA
ENDBRANCH  15  22
BRANCH  19  23
ATOM     23  O   UNL     1       1.468   3.473  19.667  0.00  0.00    +0.000 OA
ATOM     24  C   UNL     1       0.932   2.648  18.636  0.00  0.00    +0.000 C 
ENDBRANCH  19  23
BRANCH  20  25
ATOM     25  O   UNL     1       4.141   2.759  20.322  0.00  0.00    +0.000 OA
ATOM     26  C   UNL     1       4.374   1.565  19.585  0.00  0.00    +0.000 C 
ENDBRANCH  20  25
ENDBRANCH   1  17
TORSDOF 5
ENDMDL
MODEL 6
REMARK VINA RESULT:      -6.4      1.128      1.133
REMARK  Name = 
REMARK  10 active torsions:
REMARK  status: ('A' for Active; 'I' for Inactive)
REMARK    1  A    between atoms: C_1  and  O_2
REMARK    2  A    between atoms: O_2  and  C_3
REMARK    3  A    between atoms: C_5  and  C_6
REMARK    4  A    between atoms: C_6  and  N_7
REMARK    5  A    between atoms: C_17  and  C_18
REMARK    6  A    between atoms: C_17  and  C_19
REMARK    7  A    between atoms: C_21  and  O_22
REMARK    8  A    between atoms: O_22  and  C_23
REMARK    9  A    between atoms: C_24  and  O_25
REMARK   10  A    between atoms: O_25  and  C_26
REMARK                            x       y       z     vdW  Elec       q    Type
REMARK                         _______ _______ _______ _____ _____    ______ ____
ROOT
ATOM      1  C   UNL     1       2.469   7.848  18.167  0.00  0.00    +0.000 C 
ENDROOT
BRANCH   1   2
ATOM      2  N   UNL     1       1.762   8.750  19.116  0.00  0.00    +0.000 N 
ATOM      3  C   UNL     1       1.326   8.250  20.331  0.00  0.00    +0.000 C 
ATOM      4  C   UNL     1       0.603   8.871  21.252  0.00  0.00    +0.000 C 
ATOM      5  C   UNL     1       0.180  10.251  20.960  0.00  0.00    +0.000 C 
ATOM      6  N   UNL     1      -0.429  11.021  21.819  0.00  0.00    +0.000 N 
ATOM      7  C   UNL     1      -0.845  10.636  23.204  0.00  0.00    +0.000 C 
ATOM      8  C   UNL     1      -2.077  11.495  23.419  0.00  0.00    +0.000 C 
ATOM      9  C   UNL     1      -1.736  12.807  22.740  0.00  0.00    +0.000 C 
ATOM     10  C   UNL     1      -0.868  12.437  21.548  0.00  0.00    +0.000 C 
ATOM     11  C   UNL     1       0.465  10.858  19.595  0.00  0.00    +0.000 C 
ATOM     12  C   UNL     1       1.143   9.963  18.522  0.00  0.00    +0.000 C 
ATOM     13  C   UNL     1       0.073   9.557  17.482  0.00  0.00    +0.000 C 
ATOM     14  C   UNL     1       2.223  10.828  17.842  0.00  0.00    +0.000 C 
ENDBRANCH   1   2
BRANCH   1  17
ATOM     15  C   UNL     1       2.658   4.466  19.914  0.00  0.00    +0.000 A 
ATOM     16  C   UNL     1       2.325   5.809  19.678  0.00  0.00    +0.000 A 
ATOM     17  C   UNL     1       3.045   6.586  18.773  0.00  0.00    +0.000 A 
ATOM     18  C   UNL     1       4.224   6.047  18.244  0.00  0.00    +0.000 A 
ATOM     19  C   UNL     1       4.603   4.724  18.506  0.00  0.00    +0.000 A 
ATOM     20  C   UNL     1       3.811   3.903  19.333  0.00  0.00    +0.000 A 
BRANCH  15  22
ATOM     21  C   UNL     1       0.713   3.137  20.141  0.00  0.00    +0.000 C 
ATOM     22  O   UNL     1       1.868   3.717  20.748  0.00  0.00    +0.000 OA
ENDBRANCH  15  22
BRANCH  19  23
ATOM     23  O   UNL     1       5.777   4.375  17.882  0.00  0.00    +0.000 OA
ATOM     24  C   UNL     1       5.712   4.234  16.466  0.00  0.00    +0.000 C 
ENDBRANCH  19  23
BRANCH  20  25
ATOM     25  O   UNL     1       4.270   2.629  19.545  0.00  0.00    +0.000 OA
ATOM     26  C   UNL     1       3.767   1.579  18.727  0.00  0.00    +0.000 C 
ENDBRANCH  20  25
ENDBRANCH   1  17
TORSDOF 5
ENDMDL
MODEL 7
REMARK VINA RESULT:      -6.3      4.212      8.478
REMARK  Name = 
REMARK  10 active torsions:
REMARK  status: ('A' for Active; 'I' for Inactive)
REMARK    1  A    between atoms: C_1  and  O_2
REMARK    2  A    between atoms: O_2  and  C_3
REMARK    3  A    between atoms: C_5  and  C_6
REMARK    4  A    between atoms: C_6  and  N_7
REMARK    5  A    between atoms: C_17  and  C_18
REMARK    6  A    between atoms: C_17  and  C_19
REMARK    7  A    between atoms: C_21  and  O_22
REMARK    8  A    between atoms: O_22  and  C_23
REMARK    9  A    between atoms: C_24  and  O_25
REMARK   10  A    between atoms: O_25  and  C_26
REMARK                            x       y       z     vdW  Elec       q    Type
REMARK                         _______ _______ _______ _____ _____    ______ ____
ROOT
ATOM      1  C   UNL     1       0.492  11.033  19.846  0.00  0.00    +0.000 C 
ENDROOT
BRANCH   1   2
ATOM      2  N   UNL     1       1.187   9.729  19.673  0.00  0.00    +0.000 N 
ATOM      3  C   UNL     1       1.518   9.299  18.400  0.00  0.00    +0.000 C 
ATOM      4  C   UNL     1       2.046   8.135  18.047  0.00  0.00    +0.000 C 
ATOM      5  C   UNL     1       2.297   7.156  19.118  0.00  0.00    +0.000 C 
ATOM      6  N   UNL     1       2.920   6.025  18.937  0.00  0.00    +0.000 N 
ATOM      7  C   UNL     1       3.432   5.504  17.631  0.00  0.00    +0.000 C 
ATOM      8  C   UNL     1       3.323   4.002  17.819  0.00  0.00    +0.000 C 
ATOM      9  C   UNL     1       3.702   3.783  19.271  0.00  0.00    +0.000 C 
ATOM     10  C   UNL     1       3.195   5.009  20.016  0.00  0.00    +0.000 C 
ATOM     11  C   UNL     1       1.836   7.451  20.537  0.00  0.00    +0.000 C 
ATOM     12  C   UNL     1       1.045   8.763  20.793  0.00  0.00    +0.000 C 
ATOM     13  C   UNL     1      -0.444   8.400  20.996  0.00  0.00    +0.000 C 
ATOM     14  C   UNL     1       1.611   9.374  22.092  0.00  0.00    +0.000 C 
ENDBRANCH   1   2
BRANCH   1  17
ATOM     15  C   UNL     1      -3.129  12.192  19.581  0.00  0.00    +0.000 A 
ATOM     16  C   UNL     1      -1.886  11.876  20.152  0.00  0.00    +0.000 A 
ATOM     17  C   UNL     1      -0.982  11.037  19.504  0.00  0.00    +0.000 A 
ATOM     18  C   UNL     1      -1.422  10.367  18.357  0.00  0.00    +0.000 A 
ATOM     19  C   UNL     1      -2.680  10.627  17.796  0.00  0.00    +0.000 A 
ATOM     20  C   UNL     1      -3.548  11.564  18.391  0.00  0.00    +0.000 A 
BRANCH  15  22
ATOM     21  C   UNL     1      -3.284  14.062  21.021  0.00  0.00    +0.000 C 
ATOM     22  O   UNL     1      -3.949  13.090  20.214  0.00  0.00    +0.000 OA
ENDBRANCH  15  22
BRANCH  19  23
ATOM     23  O   UNL     1      -2.919   9.887  16.663  0.00  0.00    +0.000 OA
ATOM     24  C   UNL     1      -2.716  10.559  15.424  0.00  0.00    +0.000 C 
ENDBRANCH  19  23
BRANCH  20  25
ATOM     25  O   UNL     1      -4.763  11.741  17.781  0.00  0.00    +0.000 OA
ATOM     26  C   UNL     1      -5.875  10.986  18.246  0.00  0.00    +0.000 C 
ENDBRANCH  20  25
ENDBRANCH   1  17
TORSDOF 5
ENDMDL
MODEL 8
REMARK VINA RESULT:      -6.3      3.854      8.217
REMARK  Name = 
REMARK  10 active torsions:
REMARK  status: ('A' for Active; 'I' for Inactive)
REMARK    1  A    between atoms: C_1  and  O_2
REMARK    2  A    between atoms: O_2  and  C_3
REMARK    3  A    between atoms: C_5  and  C_6
REMARK    4  A    between atoms: C_6  and  N_7
REMARK    5  A    between atoms: C_17  and  C_18
REMARK    6  A    between atoms: C_17  and  C_19
REMARK    7  A    between atoms: C_21  and  O_22
REMARK    8  A    between atoms: O_22  and  C_23
REMARK    9  A    between atoms: C_24  and  O_25
REMARK   10  A    between atoms: O_25  and  C_26
REMARK                            x       y       z     vdW  Elec       q    Type
REMARK                         _______ _______ _______ _____ _____    ______ ____
ROOT
ATOM      1  C   UNL     1       5.349   6.182  18.514  0.00  0.00    +0.000 C 
ENDROOT
BRANCH   1   2
ATOM      2  N   UNL     1       5.564   5.679  17.131  0.00  0.00    +0.000 N 
ATOM      3  C   UNL     1       4.562   4.956  16.507  0.00  0.00    +0.000 C 
ATOM      4  C   UNL     1       4.610   4.353  15.327  0.00  0.00    +0.000 C 
ATOM      5  C   UNL     1       5.878   4.427  14.583  0.00  0.00    +0.000 C 
ATOM      6  N   UNL     1       6.033   3.987  13.366  0.00  0.00    +0.000 N 
ATOM      7  C   UNL     1       4.991   3.296  12.542  0.00  0.00    +0.000 C 
ATOM      8  C   UNL     1       5.828   2.380  11.668  0.00  0.00    +0.000 C 
ATOM      9  C   UNL     1       7.062   3.201  11.347  0.00  0.00    +0.000 C 
ATOM     10  C   UNL     1       7.317   4.055  12.580  0.00  0.00    +0.000 C 
ATOM     11  C   UNL     1       7.100   5.061  15.229  0.00  0.00    +0.000 C 
ATOM     12  C   UNL     1       6.980   5.555  16.697  0.00  0.00    +0.000 C 
ATOM     13  C   UNL     1       7.728   4.555  17.608  0.00  0.00    +0.000 C 
ATOM     14  C   UNL     1       7.674   6.931  16.760  0.00  0.00    +0.000 C 
ENDBRANCH   1   2
BRANCH   1  17
ATOM     15  C   UNL     1       2.133   5.237  20.328  0.00  0.00    +0.000 A 
ATOM     16  C   UNL     1       3.244   5.995  19.928  0.00  0.00    +0.000 A 
ATOM     17  C   UNL     1       4.360   5.395  19.347  0.00  0.00    +0.000 A 
ATOM     18  C   UNL     1       4.421   3.996  19.347  0.00  0.00    +0.000 A 
ATOM     19  C   UNL     1       3.343   3.218  19.789  0.00  0.00    +0.000 A 
ATOM     20  C   UNL     1       2.168   3.830  20.270  0.00  0.00    +0.000 A 
BRANCH  15  22
ATOM     21  C   UNL     1       1.174   7.284  21.030  0.00  0.00    +0.000 C 
ATOM     22  O   UNL     1       1.023   5.880  20.814  0.00  0.00    +0.000 OA
ENDBRANCH  15  22
BRANCH  19  23
ATOM     23  O   UNL     1       3.587   1.869  19.690  0.00  0.00    +0.000 OA
ATOM     24  C   UNL     1       3.614   1.335  18.370  0.00  0.00    +0.000 C 
ENDBRANCH  19  23
BRANCH  20  25
ATOM     25  O   UNL     1       1.174   2.988  20.695  0.00  0.00    +0.000 OA
ATOM     26  C   UNL     1       1.235   2.478  22.022  0.00  0.00    +0.000 C 
ENDBRANCH  20  25
ENDBRANCH   1  17
TORSDOF 5
ENDMDL
MODEL 9
REMARK VINA RESULT:      -6.3      2.498      3.672
REMARK  Name = 
REMARK  10 active torsions:
REMARK  status: ('A' for Active; 'I' for Inactive)
REMARK    1  A    between atoms: C_1  and  O_2
REMARK    2  A    between atoms: O_2  and  C_3
REMARK    3  A    between atoms: C_5  and  C_6
REMARK    4  A    between atoms: C_6  and  N_7
REMARK    5  A    between atoms: C_17  and  C_18
REMARK    6  A    between atoms: C_17  and  C_19
REMARK    7  A    between atoms: C_21  and  O_22
REMARK    8  A    between atoms: O_22  and  C_23
REMARK    9  A    between atoms: C_24  and  O_25
REMARK   10  A    between atoms: O_25  and  C_26
REMARK                            x       y       z     vdW  Elec       q    Type
REMARK                         _______ _______ _______ _____ _____    ______ ____
ROOT
ATOM      1  C   UNL     1       2.158   8.235  20.051  0.00  0.00    +0.000 C 
ENDROOT
BRANCH   1   2
ATOM      2  N   UNL     1       0.918   8.765  19.422  0.00  0.00    +0.000 N 
ATOM      3  C   UNL     1       0.817   8.801  18.042  0.00  0.00    +0.000 C 
ATOM      4  C   UNL     1      -0.159   9.321  17.312  0.00  0.00    +0.000 C 
ATOM      5  C   UNL     1      -1.270   9.965  18.033  0.00  0.00    +0.000 C 
ATOM      6  N   UNL     1      -2.351  10.409  17.454  0.00  0.00    +0.000 N 
ATOM      7  C   UNL     1      -2.629  10.395  15.984  0.00  0.00    +0.000 C 
ATOM      8  C   UNL     1      -3.512  11.618  15.812  0.00  0.00    +0.000 C 
ATOM      9  C   UNL     1      -4.379  11.625  17.056  0.00  0.00    +0.000 C 
ATOM     10  C   UNL     1      -3.504  11.066  18.168  0.00  0.00    +0.000 C 
ATOM     11  C   UNL     1      -1.202  10.125  19.544  0.00  0.00    +0.000 C 
ATOM     12  C   UNL     1       0.087   9.656  20.273  0.00  0.00    +0.000 C 
ATOM     13  C   UNL     1       0.898  10.909  20.677  0.00  0.00    +0.000 C 
ATOM     14  C   UNL     1      -0.369   8.903  21.539  0.00  0.00    +0.000 C 
ENDBRANCH   1   2
BRANCH   1  17
ATOM     15  C   UNL     1       1.723   4.452  19.880  0.00  0.00    +0.000 A 
ATOM     16  C   UNL     1       1.757   5.751  20.412  0.00  0.00    +0.000 A 
ATOM     17  C   UNL     1       2.455   6.776  19.777  0.00  0.00    +0.000 A 
ATOM     18  C   UNL     1       3.276   6.434  18.696  0.00  0.00    +0.000 A 
ATOM     19  C   UNL     1       3.297   5.132  18.179  0.00  0.00    +0.000 A 
ATOM     20  C   UNL     1       2.501   4.121  18.753  0.00  0.00    +0.000 A 
BRANCH  15  22
ATOM     21  C   UNL     1       1.553   2.854  21.616  0.00  0.00    +0.000 C 
ATOM     22  O   UNL     1       0.952   3.498  20.493  0.00  0.00    +0.000 OA
ENDBRANCH  15  22
BRANCH  19  23
ATOM     23  O   UNL     1       4.147   5.000  17.107  0.00  0.00    +0.000 OA
ATOM     24  C   UNL     1       4.823   6.185  16.697  0.00  0.00    +0.000 C 
ENDBRANCH  19  23
BRANCH  20  25
ATOM     25  O   UNL     1       2.599   2.875  18.190  0.00  0.00    +0.000 OA
ATOM     26  C   UNL     1       3.582   1.977  18.690  0.00  0.00    +0.000 C 
ENDBRANCH  20  25
ENDBRANCH   1  17
TORSDOF 5
ENDMDL
