MODEL 1
REMARK VINA RESULT:      -8.0      0.000      0.000
REMARK  Name = 
REMARK  7 active torsions:
REMARK  status: ('A' for Active; 'I' for Inactive)
REMARK    1  A    between atoms: N_4  and  C_5
REMARK    2  A    between atoms: C_5  and  C_7
REMARK    3  A    between atoms: N_12  and  C_13
REMARK    4  A    between atoms: C_13  and  C_14
REMARK    5  A    between atoms: C_14  and  C_15
REMARK    6  A    between atoms: C_15  and  C_16
REMARK    7  A    between atoms: C_23  and  N_24
REMARK                            x       y       z     vdW  Elec       q    Type
REMARK                         _______ _______ _______ _____ _____    ______ ____
ROOT
ATOM      1  C   UNL     1       3.468   4.327  18.456  0.00  0.00    +0.000 A 
ATOM      2  N   UNL     1       2.958   5.488  17.960  0.00  0.00    +0.000 NA
ATOM      3  C   UNL     1       3.867   6.463  17.756  0.00  0.00    +0.000 A 
ATOM      4 CL   UNL     1       3.192   7.892  17.069  0.00  0.00    +0.000 Cl
ATOM      5  C   UNL     1       5.247   6.331  18.014  0.00  0.00    +0.000 A 
ATOM      6  N   UNL     1       6.134   7.355  17.670  0.00  0.00    +0.000 N 
ATOM      7  N   UNL     1       5.720   5.179  18.549  0.00  0.00    +0.000 NA
ATOM      8  C   UNL     1       4.829   4.179  18.784  0.00  0.00    +0.000 A 
ATOM      9  H   UNL     1       5.940   8.212  18.183  0.00  0.00    +0.000 HD
ENDROOT
BRANCH   8  10
ATOM     10  N   UNL     1       5.403   3.000  19.247  0.00  0.00    +0.000 N 
ATOM     11  H   UNL     1       4.750   2.229  19.169  0.00  0.00    +0.000 HD
ATOM     12  H   UNL     1       6.332   2.820  18.867  0.00  0.00    +0.000 HD
ENDBRANCH   8  10
BRANCH   1  13
ATOM     13  C   UNL     1       2.485   3.211  18.692  0.00  0.00    +0.000 C 
ATOM     14  O   UNL     1       1.732   2.846  17.789  0.00  0.00    +0.000 OA
BRANCH  13  18
ATOM     15  N   UNL     1       1.594   2.421  22.035  0.00  0.00    +0.000 N 
ATOM     16  C   UNL     1       1.612   2.996  20.811  0.00  0.00    +0.000 C 
ATOM     17  N   UNL     1       0.584   3.862  20.656  0.00  0.00    +0.000 N 
ATOM     18  N   UNL     1       2.509   2.650  19.954  0.00  0.00    +0.000 NA
ATOM     19  H   UNL     1       1.297   2.989  22.812  0.00  0.00    +0.000 HD
ATOM     20  H   UNL     1       2.435   1.886  22.226  0.00  0.00    +0.000 HD
ATOM     21  H   UNL     1       0.315   4.394  21.469  0.00  0.00    +0.000 HD
ATOM     22  H   UNL     1       0.698   4.456  19.834  0.00  0.00    +0.000 HD
ENDBRANCH  13  18
ENDBRANCH   1  13
BRANCH   6  23
ATOM     23  C   UNL     1       7.541   7.037  17.499  0.00  0.00    +0.000 C 
BRANCH  23  24
ATOM     24  C   UNL     1       8.352   8.034  18.338  0.00  0.00    +0.000 C 
BRANCH  24  25
ATOM     25  C   UNL     1       8.266   9.452  17.771  0.00  0.00    +0.000 C 
BRANCH  25  26
ATOM     26  C   UNL     1       9.128  10.426  18.543  0.00  0.00    +0.000 A 
ATOM     27  C   UNL     1       9.917  11.367  17.866  0.00  0.00    +0.000 A 
ATOM     28  C   UNL     1      10.725  12.255  18.580  0.00  0.00    +0.000 A 
ATOM     29  C   UNL     1      10.761  12.203  19.973  0.00  0.00    +0.000 A 
ATOM     30  C   UNL     1       9.986  11.273  20.654  0.00  0.00    +0.000 A 
ATOM     31  C   UNL     1       9.173  10.383  19.946  0.00  0.00    +0.000 A 
ENDBRANCH  25  26
ENDBRANCH  24  25
ENDBRANCH  23  24
ENDBRANCH   6  23
TORSDOF 7
ENDMDL
MODEL 2
REMARK VINA RESULT:      -7.9      4.612      7.347
REMARK  Name = 
REMARK  7 active torsions:
REMARK  status: ('A' for Active; 'I' for Inactive)
REMARK    1  A    between atoms: N_4  and  C_5
REMARK    2  A    between atoms: C_5  and  C_7
REMARK    3  A    between atoms: N_12  and  C_13
REMARK    4  A    between atoms: C_13  and  C_14
REMARK    5  A    between atoms: C_14  and  C_15
REMARK    6  A    between atoms: C_15  and  C_16
REMARK    7  A    between atoms: C_23  and  N_24
REMARK                            x       y       z     vdW  Elec       q    Type
REMARK                         _______ _______ _______ _____ _____    ______ ____
ROOT
ATOM      1  C   UNL     1       5.394   5.259  16.910  0.00  0.00    +0.000 A 
ATOM      2  N   UNL     1       4.230   4.608  17.184  0.00  0.00    +0.000 NA
ATOM      3  C   UNL     1       3.247   5.390  17.676  0.00  0.00    +0.000 A 
ATOM      4 CL   UNL     1       1.772   4.542  17.949  0.00  0.00    +0.000 Cl
ATOM      5  C   UNL     1       3.371   6.777  17.898  0.00  0.00    +0.000 A 
ATOM      6  N   UNL     1       2.267   7.530  18.309  0.00  0.00    +0.000 N 
ATOM      7  N   UNL     1       4.556   7.390  17.659  0.00  0.00    +0.000 NA
ATOM      8  C   UNL     1       5.574   6.629  17.176  0.00  0.00    +0.000 A 
ATOM      9  H   UNL     1       1.925   7.235  19.220  0.00  0.00    +0.000 HD
ENDROOT
BRANCH   8  10
ATOM     10  N   UNL     1       6.726   7.346  16.871  0.00  0.00    +0.000 N 
ATOM     11  H   UNL     1       6.808   8.163  17.465  0.00  0.00    +0.000 HD
ATOM     12  H   UNL     1       7.564   6.769  16.812  0.00  0.00    +0.000 HD
ENDBRANCH   8  10
BRANCH   1  13
ATOM     13  C   UNL     1       6.514   4.421  16.352  0.00  0.00    +0.000 C 
ATOM     14  O   UNL     1       7.625   4.439  16.881  0.00  0.00    +0.000 OA
BRANCH  13  18
ATOM     15  N   UNL     1       6.280   3.296  12.995  0.00  0.00    +0.000 N 
ATOM     16  C   UNL     1       6.545   4.059  14.079  0.00  0.00    +0.000 C 
ATOM     17  N   UNL     1       7.228   5.178  13.743  0.00  0.00    +0.000 N 
ATOM     18  N   UNL     1       6.194   3.653  15.250  0.00  0.00    +0.000 NA
ATOM     19  H   UNL     1       6.068   3.771  12.132  0.00  0.00    +0.000 HD
ATOM     20  H   UNL     1       5.643   2.534  13.201  0.00  0.00    +0.000 HD
ATOM     21  H   UNL     1       6.989   5.605  12.861  0.00  0.00    +0.000 HD
ATOM     22  H   UNL     1       7.252   5.861  14.501  0.00  0.00    +0.000 HD
ENDBRANCH  13  18
ENDBRANCH   1  13
BRANCH   6  23
ATOM     23  C   UNL     1       2.272   8.965  18.080  0.00  0.00    +0.000 C 
BRANCH  23  24
ATOM     24  C   UNL     1       0.818   9.451  18.121  0.00  0.00    +0.000 C 
BRANCH  24  25
ATOM     25  C   UNL     1       0.674  10.740  18.932  0.00  0.00    +0.000 C 
BRANCH  25  26
ATOM     26  C   UNL     1       0.204  10.473  20.344  0.00  0.00    +0.000 A 
ATOM     27  C   UNL     1       0.148   9.161  20.838  0.00  0.00    +0.000 A 
ATOM     28  C   UNL     1      -0.302   8.915  22.137  0.00  0.00    +0.000 A 
ATOM     29  C   UNL     1      -0.709   9.973  22.949  0.00  0.00    +0.000 A 
ATOM     30  C   UNL     1      -0.660  11.276  22.470  0.00  0.00    +0.000 A 
ATOM     31  C   UNL     1      -0.209  11.530  21.171  0.00  0.00    +0.000 A 
ENDBRANCH  25  26
ENDBRANCH  24  25
ENDBRANCH  23  24
ENDBRANCH   6  23
TORSDOF 7
ENDMDL
MODEL 3
REMARK VINA RESULT:      -7.9      4.994      8.188
REMARK  Name = 
REMARK  7 active torsions:
REMARK  status: ('A' for Active; 'I' for Inactive)
REMARK    1  A    between atoms: N_4  and  C_5
REMARK    2  A    between atoms: C_5  and  C_7
REMARK    3  A    between atoms: N_12  and  C_13
REMARK    4  A    between atoms: C_13  and  C_14
REMARK    5  A    between atoms: C_14  and  C_15
REMARK    6  A    between atoms: C_15  and  C_16
REMARK    7  A    between atoms: C_23  and  N_24
REMARK                            x       y       z     vdW  Elec       q    Type
REMARK                         _______ _______ _______ _____ _____    ______ ____
ROOT
ATOM      1  C   UNL     1       5.380   5.226  16.944  0.00  0.00    +0.000 A 
ATOM      2  N   UNL     1       4.236   4.561  17.264  0.00  0.00    +0.000 NA
ATOM      3  C   UNL     1       3.256   5.333  17.775  0.00  0.00    +0.000 A 
ATOM      4 CL   UNL     1       1.805   4.466  18.106  0.00  0.00    +0.000 Cl
ATOM      5  C   UNL     1       3.363   6.725  17.973  0.00  0.00    +0.000 A 
ATOM      6  N   UNL     1       2.260   7.466  18.407  0.00  0.00    +0.000 N 
ATOM      7  N   UNL     1       4.529   7.354  17.688  0.00  0.00    +0.000 NA
ATOM      8  C   UNL     1       5.545   6.603  17.185  0.00  0.00    +0.000 A 
ATOM      9  H   UNL     1       1.952   7.179  19.333  0.00  0.00    +0.000 HD
ENDROOT
BRANCH   8  10
ATOM     10  N   UNL     1       6.675   7.334  16.833  0.00  0.00    +0.000 N 
ATOM     11  H   UNL     1       6.995   7.896  17.613  0.00  0.00    +0.000 HD
ATOM     12  H   UNL     1       7.396   6.778  16.376  0.00  0.00    +0.000 HD
ENDBRANCH   8  10
BRANCH   1  13
ATOM     13  C   UNL     1       6.496   4.398  16.364  0.00  0.00    +0.000 C 
ATOM     14  O   UNL     1       7.607   4.398  16.892  0.00  0.00    +0.000 OA
BRANCH  13  18
ATOM     15  N   UNL     1       6.280   3.347  12.981  0.00  0.00    +0.000 N 
ATOM     16  C   UNL     1       6.548   4.081  14.084  0.00  0.00    +0.000 C 
ATOM     17  N   UNL     1       7.263   5.189  13.780  0.00  0.00    +0.000 N 
ATOM     18  N   UNL     1       6.172   3.660  15.242  0.00  0.00    +0.000 NA
ATOM     19  H   UNL     1       6.091   3.844  12.125  0.00  0.00    +0.000 HD
ATOM     20  H   UNL     1       5.621   2.597  13.164  0.00  0.00    +0.000 HD
ATOM     21  H   UNL     1       7.048   5.639  12.903  0.00  0.00    +0.000 HD
ATOM     22  H   UNL     1       7.294   5.856  14.552  0.00  0.00    +0.000 HD
ENDBRANCH  13  18
ENDBRANCH   1  13
BRANCH   6  23
ATOM     23  C   UNL     1       2.234   8.897  18.158  0.00  0.00    +0.000 C 
BRANCH  23  24
ATOM     24  C   UNL     1       0.825   9.262  17.670  0.00  0.00    +0.000 C 
BRANCH  24  25
ATOM     25  C   UNL     1       0.143  10.261  18.606  0.00  0.00    +0.000 C 
BRANCH  25  26
ATOM     26  C   UNL     1      -1.285  10.540  18.197  0.00  0.00    +0.000 A 
ATOM     27  C   UNL     1      -2.062  11.462  18.913  0.00  0.00    +0.000 A 
ATOM     28  C   UNL     1      -3.387  11.707  18.543  0.00  0.00    +0.000 A 
ATOM     29  C   UNL     1      -3.949  11.024  17.465  0.00  0.00    +0.000 A 
ATOM     30  C   UNL     1      -3.190  10.107  16.750  0.00  0.00    +0.000 A 
ATOM     31  C   UNL     1      -1.863   9.859  17.113  0.00  0.00    +0.000 A 
ENDBRANCH  25  26
ENDBRANCH  24  25
ENDBRANCH  23  24
ENDBRANCH   6  23
TORSDOF 7
ENDMDL
MODEL 4
REMARK VINA RESULT:      -7.9      1.940      2.494
REMARK  Name = 
REMARK  7 active torsions:
REMARK  status: ('A' for Active; 'I' for Inactive)
REMARK    1  A    between atoms: N_4  and  C_5
REMARK    2  A    between atoms: C_5  and  C_7
REMARK    3  A    between atoms: N_12  and  C_13
REMARK    4  A    between atoms: C_13  and  C_14
REMARK    5  A    between atoms: C_14  and  C_15
REMARK    6  A    between atoms: C_15  and  C_16
REMARK    7  A    between atoms: C_23  and  N_24
REMARK                            x       y       z     vdW  Elec       q    Type
REMARK                         _______ _______ _______ _____ _____    ______ ____
ROOT
ATOM      1  C   UNL     1       4.257   4.762  17.362  0.00  0.00    +0.000 A 
ATOM      2  N   UNL     1       4.947   4.692  16.189  0.00  0.00    +0.000 NA
ATOM      3  C   UNL     1       5.986   5.546  16.093  0.00  0.00    +0.000 A 
ATOM      4 CL   UNL     1       6.871   5.382  14.624  0.00  0.00    +0.000 Cl
ATOM      5  C   UNL     1       6.367   6.452  17.105  0.00  0.00    +0.000 A 
ATOM      6  N   UNL     1       7.523   7.225  16.965  0.00  0.00    +0.000 N 
ATOM      7  N   UNL     1       5.635   6.531  18.243  0.00  0.00    +0.000 NA
ATOM      8  C   UNL     1       4.570   5.694  18.368  0.00  0.00    +0.000 A 
ATOM      9  H   UNL     1       7.460   7.861  16.174  0.00  0.00    +0.000 HD
ENDROOT
BRANCH   8  10
ATOM     10  N   UNL     1       3.925   5.771  19.598  0.00  0.00    +0.000 N 
ATOM     11  H   UNL     1       4.142   4.961  20.167  0.00  0.00    +0.000 HD
ATOM     12  H   UNL     1       4.039   6.670  20.064  0.00  0.00    +0.000 HD
ENDBRANCH   8  10
BRANCH   1  13
ATOM     13  C   UNL     1       3.092   3.818  17.509  0.00  0.00    +0.000 C 
ATOM     14  O   UNL     1       1.949   4.258  17.627  0.00  0.00    +0.000 OA
BRANCH  13  18
ATOM     15  N   UNL     1       3.908   0.542  18.602  0.00  0.00    +0.000 N 
ATOM     16  C   UNL     1       3.645   1.868  18.600  0.00  0.00    +0.000 C 
ATOM     17  N   UNL     1       3.623   2.370  19.857  0.00  0.00    +0.000 N 
ATOM     18  N   UNL     1       3.406   2.473  17.489  0.00  0.00    +0.000 NA
ATOM     19  H   UNL     1       4.558   0.197  19.289  0.00  0.00    +0.000 HD
ATOM     20  H   UNL     1       4.078   0.178  17.670  0.00  0.00    +0.000 HD
ATOM     21  H   UNL     1       4.282   1.978  20.511  0.00  0.00    +0.000 HD
ATOM     22  H   UNL     1       3.638   3.391  19.868  0.00  0.00    +0.000 HD
ENDBRANCH  13  18
ENDBRANCH   1  13
BRANCH   6  23
ATOM     23  C   UNL     1       8.149   7.773  18.156  0.00  0.00    +0.000 C 
BRANCH  23  24
ATOM     24  C   UNL     1       8.270   9.291  17.966  0.00  0.00    +0.000 C 
BRANCH  24  25
ATOM     25  C   UNL     1       9.049   9.944  19.109  0.00  0.00    +0.000 C 
BRANCH  25  26
ATOM     26  C   UNL     1       9.803  11.172  18.653  0.00  0.00    +0.000 A 
ATOM     27  C   UNL     1       9.181  12.126  17.834  0.00  0.00    +0.000 A 
ATOM     28  C   UNL     1       9.885  13.251  17.400  0.00  0.00    +0.000 A 
ATOM     29  C   UNL     1      11.218  13.428  17.770  0.00  0.00    +0.000 A 
ATOM     30  C   UNL     1      11.845  12.489  18.578  0.00  0.00    +0.000 A 
ATOM     31  C   UNL     1      11.147  11.361  19.018  0.00  0.00    +0.000 A 
ENDBRANCH  25  26
ENDBRANCH  24  25
ENDBRANCH  23  24
ENDBRANCH   6  23
TORSDOF 7
ENDMDL
MODEL 5
REMARK VINA RESULT:      -7.9      1.730      2.070
REMARK  Name = 
REMARK  7 active torsions:
REMARK  status: ('A' for Active; 'I' for Inactive)
REMARK    1  A    between atoms: N_4  and  C_5
REMARK    2  A    between atoms: C_5  and  C_7
REMARK    3  A    between atoms: N_12  and  C_13
REMARK    4  A    between atoms: C_13  and  C_14
REMARK    5  A    between atoms: C_14  and  C_15
REMARK    6  A    between atoms: C_15  and  C_16
REMARK    7  A    between atoms: C_23  and  N_24
REMARK                            x       y       z     vdW  Elec       q    Type
REMARK                         _______ _______ _______ _____ _____    ______ ____
ROOT
ATOM      1  C   UNL     1       4.180   4.357  17.682  0.00  0.00    +0.000 A 
ATOM      2  N   UNL     1       4.884   4.143  16.536  0.00  0.00    +0.000 NA
ATOM      3  C   UNL     1       5.922   4.983  16.346  0.00  0.00    +0.000 A 
ATOM      4 CL   UNL     1       6.826   4.638  14.920  0.00  0.00    +0.000 Cl
ATOM      5  C   UNL     1       6.288   6.010  17.239  0.00  0.00    +0.000 A 
ATOM      6  N   UNL     1       7.444   6.764  17.017  0.00  0.00    +0.000 N 
ATOM      7  N   UNL     1       5.542   6.229  18.349  0.00  0.00    +0.000 NA
ATOM      8  C   UNL     1       4.478   5.411  18.566  0.00  0.00    +0.000 A 
ATOM      9  H   UNL     1       7.389   7.295  16.151  0.00  0.00    +0.000 HD
ENDROOT
BRANCH   8  10
ATOM     10  N   UNL     1       3.818   5.640  19.769  0.00  0.00    +0.000 N 
ATOM     11  H   UNL     1       4.114   4.972  20.473  0.00  0.00    +0.000 HD
ATOM     12  H   UNL     1       3.832   6.615  20.065  0.00  0.00    +0.000 HD
ENDBRANCH   8  10
BRANCH   1  13
ATOM     13  C   UNL     1       3.016   3.435  17.934  0.00  0.00    +0.000 C 
ATOM     14  O   UNL     1       2.185   3.230  17.050  0.00  0.00    +0.000 OA
BRANCH  13  18
ATOM     15  N   UNL     1       1.839   2.392  21.115  0.00  0.00    +0.000 N 
ATOM     16  C   UNL     1       1.915   2.993  19.907  0.00  0.00    +0.000 C 
ATOM     17  N   UNL     1       0.768   3.645  19.605  0.00  0.00    +0.000 N 
ATOM     18  N   UNL     1       2.973   2.854  19.186  0.00  0.00    +0.000 NA
ATOM     19  H   UNL     1       1.330   2.869  21.841  0.00  0.00    +0.000 HD
ATOM     20  H   UNL     1       2.734   2.027  21.425  0.00  0.00    +0.000 HD
ATOM     21  H   UNL     1       0.288   4.092  20.372  0.00  0.00    +0.000 HD
ATOM     22  H   UNL     1       0.876   4.274  18.808  0.00  0.00    +0.000 HD
ENDBRANCH  13  18
ENDBRANCH   1  13
BRANCH   6  23
ATOM     23  C   UNL     1       8.053   7.461  18.137  0.00  0.00    +0.000 C 
BRANCH  23  24
ATOM     24  C   UNL     1       8.189   8.940  17.751  0.00  0.00    +0.000 C 
BRANCH  24  25
ATOM     25  C   UNL     1       8.910   9.744  18.833  0.00  0.00    +0.000 C 
BRANCH  25  26
ATOM     26  C   UNL     1       9.432  11.063  18.310  0.00  0.00    +0.000 A 
ATOM     27  C   UNL     1      10.747  11.168  17.833  0.00  0.00    +0.000 A 
ATOM     28  C   UNL     1      11.232  12.391  17.365  0.00  0.00    +0.000 A 
ATOM     29  C   UNL     1      10.414  13.520  17.380  0.00  0.00    +0.000 A 
ATOM     30  C   UNL     1       9.111  13.429  17.852  0.00  0.00    +0.000 A 
ATOM     31  C   UNL     1       8.617  12.207  18.320  0.00  0.00    +0.000 A 
ENDBRANCH  25  26
ENDBRANCH  24  25
ENDBRANCH  23  24
ENDBRANCH   6  23
TORSDOF 7
ENDMDL
MODEL 6
REMARK VINA RESULT:      -7.7      2.102      2.612
REMARK  Name = 
REMARK  7 active torsions:
REMARK  status: ('A' for Active; 'I' for Inactive)
REMARK    1  A    between atoms: N_4  and  C_5
REMARK    2  A    between atoms: C_5  and  C_7
REMARK    3  A    between atoms: N_12  and  C_13
REMARK    4  A    between atoms: C_13  and  C_14
REMARK    5  A    between atoms: C_14  and  C_15
REMARK    6  A    between atoms: C_15  and  C_16
REMARK    7  A    between atoms: C_23  and  N_24
REMARK                            x       y       z     vdW  Elec       q    Type
REMARK                         _______ _______ _______ _____ _____    ______ ____
ROOT
ATOM      1  C   UNL     1       3.888   4.537  17.255  0.00  0.00    +0.000 A 
ATOM      2  N   UNL     1       4.664   4.322  16.157  0.00  0.00    +0.000 NA
ATOM      3  C   UNL     1       5.740   5.129  16.058  0.00  0.00    +0.000 A 
ATOM      4 CL   UNL     1       6.729   4.783  14.691  0.00  0.00    +0.000 Cl
ATOM      5  C   UNL     1       6.076   6.124  16.998  0.00  0.00    +0.000 A 
ATOM      6  N   UNL     1       7.269   6.842  16.874  0.00  0.00    +0.000 N 
ATOM      7  N   UNL     1       5.261   6.347  18.058  0.00  0.00    +0.000 NA
ATOM      8  C   UNL     1       4.158   5.561  18.182  0.00  0.00    +0.000 A 
ATOM      9  H   UNL     1       7.293   7.392  16.019  0.00  0.00    +0.000 HD
ENDROOT
BRANCH   8  10
ATOM     10  N   UNL     1       3.423   5.788  19.341  0.00  0.00    +0.000 N 
ATOM     11  H   UNL     1       3.925   5.452  20.155  0.00  0.00    +0.000 HD
ATOM     12  H   UNL     1       3.062   6.738  19.417  0.00  0.00    +0.000 HD
ENDBRANCH   8  10
BRANCH   1  13
ATOM     13  C   UNL     1       2.680   3.651  17.404  0.00  0.00    +0.000 C 
ATOM     14  O   UNL     1       1.552   4.142  17.444  0.00  0.00    +0.000 OA
BRANCH  13  18
ATOM     15  N   UNL     1       3.974   0.531  18.490  0.00  0.00    +0.000 N 
ATOM     16  C   UNL     1       3.748   1.858  18.377  0.00  0.00    +0.000 C 
ATOM     17  N   UNL     1       4.414   2.557  19.324  0.00  0.00    +0.000 N 
ATOM     18  N   UNL     1       2.937   2.296  17.477  0.00  0.00    +0.000 NA
ATOM     19  H   UNL     1       4.896   0.238  18.772  0.00  0.00    +0.000 HD
ATOM     20  H   UNL     1       3.608   0.004  17.704  0.00  0.00    +0.000 HD
ATOM     21  H   UNL     1       5.326   2.212  19.582  0.00  0.00    +0.000 HD
ATOM     22  H   UNL     1       4.429   3.560  19.130  0.00  0.00    +0.000 HD
ENDBRANCH  13  18
ENDBRANCH   1  13
BRANCH   6  23
ATOM     23  C   UNL     1       7.821   7.494  18.049  0.00  0.00    +0.000 C 
BRANCH  23  24
ATOM     24  C   UNL     1       8.076   8.965  17.693  0.00  0.00    +0.000 C 
BRANCH  24  25
ATOM     25  C   UNL     1       8.894   9.676  18.772  0.00  0.00    +0.000 C 
BRANCH  25  26
ATOM     26  C   UNL     1       9.477  10.980  18.278  0.00  0.00    +0.000 A 
ATOM     27  C   UNL     1      10.865  11.178  18.264  0.00  0.00    +0.000 A 
ATOM     28  C   UNL     1      11.402  12.389  17.822  0.00  0.00    +0.000 A 
ATOM     29  C   UNL     1      10.557  13.416  17.401  0.00  0.00    +0.000 A 
ATOM     30  C   UNL     1       9.180  13.232  17.412  0.00  0.00    +0.000 A 
ATOM     31  C   UNL     1       8.636  12.021  17.851  0.00  0.00    +0.000 A 
ENDBRANCH  25  26
ENDBRANCH  24  25
ENDBRANCH  23  24
ENDBRANCH   6  23
TORSDOF 7
ENDMDL
MODEL 7
REMARK VINA RESULT:      -7.7      4.057      7.816
REMARK  Name = 
REMARK  7 active torsions:
REMARK  status: ('A' for Active; 'I' for Inactive)
REMARK    1  A    between atoms: N_4  and  C_5
REMARK    2  A    between atoms: C_5  and  C_7
REMARK    3  A    between atoms: N_12  and  C_13
REMARK    4  A    between atoms: C_13  and  C_14
REMARK    5  A    between atoms: C_14  and  C_15
REMARK    6  A    between atoms: C_15  and  C_16
REMARK    7  A    between atoms: C_23  and  N_24
REMARK                            x       y       z     vdW  Elec       q    Type
REMARK                         _______ _______ _______ _____ _____    ______ ____
ROOT
ATOM      1  C   UNL     1       5.757   6.150  17.468  0.00  0.00    +0.000 A 
ATOM      2  N   UNL     1       4.886   7.154  17.166  0.00  0.00    +0.000 NA
ATOM      3  C   UNL     1       3.720   7.113  17.843  0.00  0.00    +0.000 A 
ATOM      4 CL   UNL     1       2.675   8.434  17.481  0.00  0.00    +0.000 Cl
ATOM      5  C   UNL     1       3.391   6.132  18.800  0.00  0.00    +0.000 A 
ATOM      6  N   UNL     1       2.205   6.227  19.534  0.00  0.00    +0.000 N 
ATOM      7  N   UNL     1       4.258   5.120  19.047  0.00  0.00    +0.000 NA
ATOM      8  C   UNL     1       5.437   5.120  18.371  0.00  0.00    +0.000 A 
ATOM      9  H   UNL     1       1.384   6.173  18.935  0.00  0.00    +0.000 HD
ENDROOT
BRANCH   8  10
ATOM     10  N   UNL     1       6.310   4.103  18.745  0.00  0.00    +0.000 N 
ATOM     11  H   UNL     1       5.946   3.198  18.467  0.00  0.00    +0.000 HD
ATOM     12  H   UNL     1       7.279   4.278  18.484  0.00  0.00    +0.000 HD
ENDBRANCH   8  10
BRANCH   1  13
ATOM     13  C   UNL     1       7.073   6.165  16.736  0.00  0.00    +0.000 C 
ATOM     14  O   UNL     1       7.856   7.103  16.887  0.00  0.00    +0.000 OA
BRANCH  13  18
ATOM     15  N   UNL     1       6.830   3.841  14.066  0.00  0.00    +0.000 N 
ATOM     16  C   UNL     1       6.572   4.877  14.895  0.00  0.00    +0.000 C 
ATOM     17  N   UNL     1       5.534   5.622  14.450  0.00  0.00    +0.000 N 
ATOM     18  N   UNL     1       7.319   5.075  15.926  0.00  0.00    +0.000 NA
ATOM     19  H   UNL     1       6.043   3.390  13.627  0.00  0.00    +0.000 HD
ATOM     20  H   UNL     1       7.501   3.188  14.456  0.00  0.00    +0.000 HD
ATOM     21  H   UNL     1       4.780   5.124  14.002  0.00  0.00    +0.000 HD
ATOM     22  H   UNL     1       5.191   6.273  15.157  0.00  0.00    +0.000 HD
ENDBRANCH  13  18
ENDBRANCH   1  13
BRANCH   6  23
ATOM     23  C   UNL     1       2.102   5.518  20.798  0.00  0.00    +0.000 C 
BRANCH  23  24
ATOM     24  C   UNL     1       0.832   4.658  20.751  0.00  0.00    +0.000 C 
BRANCH  24  25
ATOM     25  C   UNL     1       1.139   3.180  20.994  0.00  0.00    +0.000 C 
BRANCH  25  26
ATOM     26  C   UNL     1       2.037   2.603  19.923  0.00  0.00    +0.000 A 
ATOM     27  C   UNL     1       3.289   2.068  20.258  0.00  0.00    +0.000 A 
ATOM     28  C   UNL     1       4.124   1.549  19.266  0.00  0.00    +0.000 A 
ATOM     29  C   UNL     1       3.722   1.572  17.931  0.00  0.00    +0.000 A 
ATOM     30  C   UNL     1       2.485   2.102  17.587  0.00  0.00    +0.000 A 
ATOM     31  C   UNL     1       1.643   2.621  18.575  0.00  0.00    +0.000 A 
ENDBRANCH  25  26
ENDBRANCH  24  25
ENDBRANCH  23  24
ENDBRANCH   6  23
TORSDOF 7
ENDMDL
MODEL 8
REMARK VINA RESULT:      -7.7      0.585      1.065
REMARK  Name = 
REMARK  7 active torsions:
REMARK  status: ('A' for Active; 'I' for Inactive)
REMARK    1  A    between atoms: N_4  and  C_5
REMARK    2  A    between atoms: C_5  and  C_7
REMARK    3  A    between atoms: N_12  and  C_13
REMARK    4  A    between atoms: C_13  and  C_14
REMARK    5  A    between atoms: C_14  and  C_15
REMARK    6  A    between atoms: C_15  and  C_16
REMARK    7  A    between atoms: C_23  and  N_24
REMARK                            x       y       z     vdW  Elec       q    Type
REMARK                         _______ _______ _______ _____ _____    ______ ____
ROOT
ATOM      1  C   UNL     1       3.420   4.244  18.424  0.00  0.00    +0.000 A 
ATOM      2  N   UNL     1       2.846   5.377  17.934  0.00  0.00    +0.000 NA
ATOM      3  C   UNL     1       3.697   6.407  17.747  0.00  0.00    +0.000 A 
ATOM      4 CL   UNL     1       2.944   7.799  17.066  0.00  0.00    +0.000 Cl
ATOM      5  C   UNL     1       5.079   6.355  18.018  0.00  0.00    +0.000 A 
ATOM      6  N   UNL     1       5.907   7.434  17.692  0.00  0.00    +0.000 N 
ATOM      7  N   UNL     1       5.616   5.228  18.548  0.00  0.00    +0.000 NA
ATOM      8  C   UNL     1       4.784   4.175  18.764  0.00  0.00    +0.000 A 
ATOM      9  H   UNL     1       5.656   8.272  18.211  0.00  0.00    +0.000 HD
ENDROOT
BRANCH   8  10
ATOM     10  N   UNL     1       5.424   3.028  19.223  0.00  0.00    +0.000 N 
ATOM     11  H   UNL     1       4.763   2.266  19.328  0.00  0.00    +0.000 HD
ATOM     12  H   UNL     1       6.271   2.797  18.705  0.00  0.00    +0.000 HD
ENDBRANCH   8  10
BRANCH   1  13
ATOM     13  C   UNL     1       2.503   3.069  18.641  0.00  0.00    +0.000 C 
ATOM     14  O   UNL     1       1.842   2.618  17.706  0.00  0.00    +0.000 OA
BRANCH  13  18
ATOM     15  N   UNL     1       1.491   2.409  21.977  0.00  0.00    +0.000 N 
ATOM     16  C   UNL     1       1.555   2.937  20.734  0.00  0.00    +0.000 C 
ATOM     17  N   UNL     1       0.536   3.798  20.509  0.00  0.00    +0.000 N 
ATOM     18  N   UNL     1       2.480   2.557  19.923  0.00  0.00    +0.000 NA
ATOM     19  H   UNL     1       1.168   3.008  22.721  0.00  0.00    +0.000 HD
ATOM     20  H   UNL     1       2.323   1.881  22.219  0.00  0.00    +0.000 HD
ATOM     21  H   UNL     1       0.239   4.362  21.291  0.00  0.00    +0.000 HD
ATOM     22  H   UNL     1       0.680   4.360  19.669  0.00  0.00    +0.000 HD
ENDBRANCH  13  18
ENDBRANCH   1  13
BRANCH   6  23
ATOM     23  C   UNL     1       7.331   7.202  17.532  0.00  0.00    +0.000 C 
BRANCH  23  24
ATOM     24  C   UNL     1       8.030   8.568  17.517  0.00  0.00    +0.000 C 
BRANCH  24  25
ATOM     25  C   UNL     1       8.738   8.858  18.841  0.00  0.00    +0.000 C 
BRANCH  25  26
ATOM     26  C   UNL     1       9.165  10.303  18.953  0.00  0.00    +0.000 A 
ATOM     27  C   UNL     1       9.888  10.746  20.070  0.00  0.00    +0.000 A 
ATOM     28  C   UNL     1      10.268  12.086  20.180  0.00  0.00    +0.000 A 
ATOM     29  C   UNL     1       9.921  12.995  19.182  0.00  0.00    +0.000 A 
ATOM     30  C   UNL     1       9.203  12.569  18.072  0.00  0.00    +0.000 A 
ATOM     31  C   UNL     1       8.821  11.229  17.954  0.00  0.00    +0.000 A 
ENDBRANCH  25  26
ENDBRANCH  24  25
ENDBRANCH  23  24
ENDBRANCH   6  23
TORSDOF 7
ENDMDL
MODEL 9
REMARK VINA RESULT:      -7.7      1.683      1.921
REMARK  Name = 
REMARK  7 active torsions:
REMARK  status: ('A' for Active; 'I' for Inactive)
REMARK    1  A    between atoms: N_4  and  C_5
REMARK    2  A    between atoms: C_5  and  C_7
REMARK    3  A    between atoms: N_12  and  C_13
REMARK    4  A    between atoms: C_13  and  C_14
REMARK    5  A    between atoms: C_14  and  C_15
REMARK    6  A    between atoms: C_15  and  C_16
REMARK    7  A    between atoms: C_23  and  N_24
REMARK                            x       y       z     vdW  Elec       q    Type
REMARK                         _______ _______ _______ _____ _____    ______ ____
ROOT
ATOM      1  C   UNL     1       4.305   4.045  17.721  0.00  0.00    +0.000 A 
ATOM      2  N   UNL     1       4.948   3.949  16.524  0.00  0.00    +0.000 NA
ATOM      3  C   UNL     1       5.851   4.922  16.288  0.00  0.00    +0.000 A 
ATOM      4 CL   UNL     1       6.688   4.729  14.795  0.00  0.00    +0.000 Cl
ATOM      5  C   UNL     1       6.143   5.970  17.185  0.00  0.00    +0.000 A 
ATOM      6  N   UNL     1       7.172   6.875  16.907  0.00  0.00    +0.000 N 
ATOM      7  N   UNL     1       5.455   6.066  18.349  0.00  0.00    +0.000 NA
ATOM      8  C   UNL     1       4.525   5.110  18.613  0.00  0.00    +0.000 A 
ATOM      9  H   UNL     1       6.987   7.411  16.063  0.00  0.00    +0.000 HD
ENDROOT
BRANCH   8  10
ATOM     10  N   UNL     1       3.928   5.225  19.864  0.00  0.00    +0.000 N 
ATOM     11  H   UNL     1       2.922   5.320  19.774  0.00  0.00    +0.000 HD
ATOM     12  H   UNL     1       4.238   4.521  20.532  0.00  0.00    +0.000 HD
ENDBRANCH   8  10
BRANCH   1  13
ATOM     13  C   UNL     1       3.292   2.972  18.023  0.00  0.00    +0.000 C 
ATOM     14  O   UNL     1       3.607   1.784  17.954  0.00  0.00    +0.000 OA
BRANCH  13  18
ATOM     15  N   UNL     1       0.322   3.503  19.891  0.00  0.00    +0.000 N 
ATOM     16  C   UNL     1       1.530   3.037  19.504  0.00  0.00    +0.000 C 
ATOM     17  N   UNL     1       2.075   2.231  20.444  0.00  0.00    +0.000 N 
ATOM     18  N   UNL     1       2.036   3.419  18.382  0.00  0.00    +0.000 NA
ATOM     19  H   UNL     1      -0.269   2.882  20.420  0.00  0.00    +0.000 HD
ATOM     20  H   UNL     1      -0.168   3.984  19.144  0.00  0.00    +0.000 HD
ATOM     21  H   UNL     1       1.438   1.641  20.957  0.00  0.00    +0.000 HD
ATOM     22  H   UNL     1       2.876   1.706  20.090  0.00  0.00    +0.000 HD
ENDBRANCH  13  18
ENDBRANCH   1  13
BRANCH   6  23
ATOM     23  C   UNL     1       7.763   7.623  18.003  0.00  0.00    +0.000 C 
BRANCH  23  24
ATOM     24  C   UNL     1       8.440   8.866  17.411  0.00  0.00    +0.000 C 
BRANCH  24  25
ATOM     25  C   UNL     1       8.134  10.122  18.228  0.00  0.00    +0.000 C 
BRANCH  25  26
ATOM     26  C   UNL     1       9.391  10.802  18.718  0.00  0.00    +0.000 A 
ATOM     27  C   UNL     1      10.403  11.160  17.815  0.00  0.00    +0.000 A 
ATOM     28  C   UNL     1      11.572  11.775  18.271  0.00  0.00    +0.000 A 
ATOM     29  C   UNL     1      11.745  12.025  19.632  0.00  0.00    +0.000 A 
ATOM     30  C   UNL     1      10.751  11.673  20.535  0.00  0.00    +0.000 A 
ATOM     31  C   UNL     1       9.578  11.060  20.086  0.00  0.00    +0.000 A 
ENDBRANCH  25  26
ENDBRANCH  24  25
ENDBRANCH  23  24
ENDBRANCH   6  23
TORSDOF 7
ENDMDL
