MODEL 1
REMARK VINA RESULT:     -10.1      0.000      0.000
REMARK  Name = 
REMARK  6 active torsions:
REMARK  status: ('A' for Active; 'I' for Inactive)
REMARK    1  A    between atoms: C_1  and  C_2
REMARK    2  A    between atoms: C_5  and  C_6
REMARK    3  A    between atoms: C_7  and  C_8
REMARK    4  A    between atoms: C_8  and  C_9
REMARK    5  A    between atoms: C_9  and  C_10
REMARK    6  A    between atoms: N_12  and  C_13
REMARK                            x       y       z     vdW  Elec       q    Type
REMARK                         _______ _______ _______ _____ _____    ______ ____
ROOT
ATOM      1  C   UNL     1       6.355   6.561  17.016  0.00  0.00    +0.000 A 
ATOM      2  C   UNL     1       6.867   5.377  16.484  0.00  0.00    +0.000 A 
ATOM      3  C   UNL     1       6.166   4.178  16.589  0.00  0.00    +0.000 A 
ATOM      4  C   UNL     1       4.958   4.122  17.281  0.00  0.00    +0.000 A 
ATOM      5  C   UNL     1       4.417   5.310  17.806  0.00  0.00    +0.000 A 
ATOM      6  C   UNL     1       5.119   6.524  17.671  0.00  0.00    +0.000 A 
ATOM      7  C   UNL     1       3.044   5.374  18.365  0.00  0.00    +0.000 C 
ATOM      8  O   UNL     1       2.326   6.331  18.087  0.00  0.00    +0.000 OA
ATOM      9  N   UNL     1       2.641   4.339  19.173  0.00  0.00    +0.000 N 
ATOM     10  C   UNL     1       1.283   4.137  19.613  0.00  0.00    +0.000 C 
ATOM     11  C   UNL     1       1.454   3.493  20.976  0.00  0.00    +0.000 C 
ATOM     12  C   UNL     1       2.737   2.667  20.849  0.00  0.00    +0.000 C 
ATOM     13  C   UNL     1       3.513   3.297  19.688  0.00  0.00    +0.000 C 
ATOM     14  C   UNL     1       3.790   2.331  18.534  0.00  0.00    +0.000 C 
ATOM     15  O   UNL     1       3.613   1.116  18.606  0.00  0.00    +0.000 OA
ATOM     16  N   UNL     1       4.409   2.836  17.419  0.00  0.00    +0.000 N 
ATOM     17  H   UNL     1       4.737   2.102  16.801  0.00  0.00    +0.000 HD
ENDROOT
BRANCH   1  20
ATOM     18  C   UNL     1       8.009   8.241  17.807  0.00  0.00    +0.000 C 
ATOM     19  O   UNL     1       8.454   7.604  18.758  0.00  0.00    +0.000 OA
ATOM     20  N   UNL     1       7.041   7.793  16.919  0.00  0.00    +0.000 N 
ATOM     21  H   UNL     1       6.890   8.338  16.078  0.00  0.00    +0.000 HD
BRANCH  18  22
ATOM     22  C   UNL     1       8.505   9.637  17.495  0.00  0.00    +0.000 C 
BRANCH  22  23
ATOM     23  C   UNL     1       9.028  10.298  18.770  0.00  0.00    +0.000 C 
BRANCH  23  30
ATOM     24  C   UNL     1      11.889  11.530  19.650  0.00  0.00    +0.000 C 
ATOM     25  C   UNL     1      10.789  12.216  18.927  0.00  0.00    +0.000 A 
ATOM     26  N   UNL     1      10.921  13.493  18.551  0.00  0.00    +0.000 NA
ATOM     27  N   UNL     1       9.775  13.768  17.914  0.00  0.00    +0.000 N 
ATOM     28  C   UNL     1       8.894  12.723  17.891  0.00  0.00    +0.000 A 
ATOM     29  C   UNL     1       7.566  12.825  17.240  0.00  0.00    +0.000 C 
ATOM     30  C   UNL     1       9.529  11.682  18.543  0.00  0.00    +0.000 A 
ATOM     31  H   UNL     1       9.660  14.693  17.515  0.00  0.00    +0.000 HD
ENDBRANCH  23  30
ENDBRANCH  22  23
ENDBRANCH  18  22
ENDBRANCH   1  20
TORSDOF 4
ENDMDL
MODEL 2
REMARK VINA RESULT:     -10.1      0.049      1.533
REMARK  Name = 
REMARK  6 active torsions:
REMARK  status: ('A' for Active; 'I' for Inactive)
REMARK    1  A    between atoms: C_1  and  C_2
REMARK    2  A    between atoms: C_5  and  C_6
REMARK    3  A    between atoms: C_7  and  C_8
REMARK    4  A    between atoms: C_8  and  C_9
REMARK    5  A    between atoms: C_9  and  C_10
REMARK    6  A    between atoms: N_12  and  C_13
REMARK                            x       y       z     vdW  Elec       q    Type
REMARK                         _______ _______ _______ _____ _____    ______ ____
ROOT
ATOM      1  C   UNL     1       6.362   6.570  17.017  0.00  0.00    +0.000 A 
ATOM      2  C   UNL     1       6.876   5.386  16.487  0.00  0.00    +0.000 A 
ATOM      3  C   UNL     1       6.174   4.187  16.590  0.00  0.00    +0.000 A 
ATOM      4  C   UNL     1       4.964   4.132  17.279  0.00  0.00    +0.000 A 
ATOM      5  C   UNL     1       4.422   5.319  17.802  0.00  0.00    +0.000 A 
ATOM      6  C   UNL     1       5.125   6.534  17.669  0.00  0.00    +0.000 A 
ATOM      7  C   UNL     1       3.047   5.385  18.356  0.00  0.00    +0.000 C 
ATOM      8  O   UNL     1       2.331   6.342  18.076  0.00  0.00    +0.000 OA
ATOM      9  N   UNL     1       2.642   4.350  19.164  0.00  0.00    +0.000 N 
ATOM     10  C   UNL     1       1.282   4.148  19.600  0.00  0.00    +0.000 C 
ATOM     11  C   UNL     1       1.448   3.504  20.963  0.00  0.00    +0.000 C 
ATOM     12  C   UNL     1       2.731   2.678  20.841  0.00  0.00    +0.000 C 
ATOM     13  C   UNL     1       3.511   3.308  19.681  0.00  0.00    +0.000 C 
ATOM     14  C   UNL     1       3.791   2.341  18.528  0.00  0.00    +0.000 C 
ATOM     15  O   UNL     1       3.614   1.126  18.601  0.00  0.00    +0.000 OA
ATOM     16  N   UNL     1       4.414   2.846  17.416  0.00  0.00    +0.000 N 
ATOM     17  H   UNL     1       4.744   2.112  16.798  0.00  0.00    +0.000 HD
ENDROOT
BRANCH   1  20
ATOM     18  C   UNL     1       8.006   8.255  17.820  0.00  0.00    +0.000 C 
ATOM     19  O   UNL     1       8.438   7.624  18.781  0.00  0.00    +0.000 OA
ATOM     20  N   UNL     1       7.049   7.801  16.922  0.00  0.00    +0.000 N 
ATOM     21  H   UNL     1       6.909   8.342  16.077  0.00  0.00    +0.000 HD
BRANCH  18  22
ATOM     22  C   UNL     1       8.505   9.650  17.508  0.00  0.00    +0.000 C 
BRANCH  22  23
ATOM     23  C   UNL     1       9.069  10.295  18.773  0.00  0.00    +0.000 C 
BRANCH  23  30
ATOM     24  C   UNL     1       7.636  12.748  17.223  0.00  0.00    +0.000 C 
ATOM     25  C   UNL     1       8.978  12.736  17.858  0.00  0.00    +0.000 A 
ATOM     26  N   UNL     1       9.744  13.831  17.838  0.00  0.00    +0.000 NA
ATOM     27  N   UNL     1      10.845  13.474  18.513  0.00  0.00    +0.000 N 
ATOM     28  C   UNL     1      10.830  12.177  18.943  0.00  0.00    +0.000 A 
ATOM     29  C   UNL     1      11.957  11.585  19.703  0.00  0.00    +0.000 C 
ATOM     30  C   UNL     1       9.615  11.660  18.535  0.00  0.00    +0.000 A 
ATOM     31  H   UNL     1      11.570  14.170  18.647  0.00  0.00    +0.000 HD
ENDBRANCH  23  30
ENDBRANCH  22  23
ENDBRANCH  18  22
ENDBRANCH   1  20
TORSDOF 4
ENDMDL
MODEL 3
REMARK VINA RESULT:      -9.7      1.000      1.202
REMARK  Name = 
REMARK  6 active torsions:
REMARK  status: ('A' for Active; 'I' for Inactive)
REMARK    1  A    between atoms: C_1  and  C_2
REMARK    2  A    between atoms: C_5  and  C_6
REMARK    3  A    between atoms: C_7  and  C_8
REMARK    4  A    between atoms: C_8  and  C_9
REMARK    5  A    between atoms: C_9  and  C_10
REMARK    6  A    between atoms: N_12  and  C_13
REMARK                            x       y       z     vdW  Elec       q    Type
REMARK                         _______ _______ _______ _____ _____    ______ ____
ROOT
ATOM      1  C   UNL     1       6.407   6.772  17.182  0.00  0.00    +0.000 A 
ATOM      2  C   UNL     1       6.954   5.621  16.612  0.00  0.00    +0.000 A 
ATOM      3  C   UNL     1       6.260   4.414  16.620  0.00  0.00    +0.000 A 
ATOM      4  C   UNL     1       5.022   4.313  17.251  0.00  0.00    +0.000 A 
ATOM      5  C   UNL     1       4.446   5.467  17.812  0.00  0.00    +0.000 A 
ATOM      6  C   UNL     1       5.142   6.692  17.775  0.00  0.00    +0.000 A 
ATOM      7  C   UNL     1       3.048   5.493  18.308  0.00  0.00    +0.000 C 
ATOM      8  O   UNL     1       2.335   6.458  18.048  0.00  0.00    +0.000 OA
ATOM      9  N   UNL     1       2.617   4.413  19.040  0.00  0.00    +0.000 N 
ATOM     10  C   UNL     1       1.242   4.179  19.404  0.00  0.00    +0.000 C 
ATOM     11  C   UNL     1       1.354   3.463  20.737  0.00  0.00    +0.000 C 
ATOM     12  C   UNL     1       2.649   2.654  20.628  0.00  0.00    +0.000 C 
ATOM     13  C   UNL     1       3.473   3.351  19.539  0.00  0.00    +0.000 C 
ATOM     14  C   UNL     1       3.812   2.450  18.350  0.00  0.00    +0.000 C 
ATOM     15  O   UNL     1       3.644   1.231  18.349  0.00  0.00    +0.000 OA
ATOM     16  N   UNL     1       4.479   3.018  17.294  0.00  0.00    +0.000 N 
ATOM     17  H   UNL     1       4.842   2.320  16.654  0.00  0.00    +0.000 HD
ENDROOT
BRANCH   1  20
ATOM     18  C   UNL     1       8.090   8.373  18.071  0.00  0.00    +0.000 C 
ATOM     19  O   UNL     1       8.576   7.645  18.932  0.00  0.00    +0.000 OA
ATOM     20  N   UNL     1       7.085   8.011  17.183  0.00  0.00    +0.000 N 
ATOM     21  H   UNL     1       6.898   8.639  16.410  0.00  0.00    +0.000 HD
BRANCH  18  22
ATOM     22  C   UNL     1       8.569   9.796  17.884  0.00  0.00    +0.000 C 
BRANCH  22  23
ATOM     23  C   UNL     1       9.613  10.136  18.947  0.00  0.00    +0.000 C 
BRANCH  23  30
ATOM     24  C   UNL     1       8.701  11.578  21.696  0.00  0.00    +0.000 C 
ATOM     25  C   UNL     1       9.265  12.216  20.481  0.00  0.00    +0.000 A 
ATOM     26  N   UNL     1       9.459  13.539  20.441  0.00  0.00    +0.000 NA
ATOM     27  N   UNL     1       9.996  13.756  19.233  0.00  0.00    +0.000 N 
ATOM     28  C   UNL     1      10.128  12.623  18.478  0.00  0.00    +0.000 A 
ATOM     29  C   UNL     1      10.694  12.650  17.109  0.00  0.00    +0.000 C 
ATOM     30  C   UNL     1       9.662  11.589  19.269  0.00  0.00    +0.000 A 
ATOM     31  H   UNL     1      10.252  14.705  18.987  0.00  0.00    +0.000 HD
ENDBRANCH  23  30
ENDBRANCH  22  23
ENDBRANCH  18  22
ENDBRANCH   1  20
TORSDOF 4
ENDMDL
MODEL 4
REMARK VINA RESULT:      -9.6      1.006      1.341
REMARK  Name = 
REMARK  6 active torsions:
REMARK  status: ('A' for Active; 'I' for Inactive)
REMARK    1  A    between atoms: C_1  and  C_2
REMARK    2  A    between atoms: C_5  and  C_6
REMARK    3  A    between atoms: C_7  and  C_8
REMARK    4  A    between atoms: C_8  and  C_9
REMARK    5  A    between atoms: C_9  and  C_10
REMARK    6  A    between atoms: N_12  and  C_13
REMARK                            x       y       z     vdW  Elec       q    Type
REMARK                         _______ _______ _______ _____ _____    ______ ____
ROOT
ATOM      1  C   UNL     1       6.404   6.793  17.195  0.00  0.00    +0.000 A 
ATOM      2  C   UNL     1       6.964   5.648  16.624  0.00  0.00    +0.000 A 
ATOM      3  C   UNL     1       6.279   4.435  16.624  0.00  0.00    +0.000 A 
ATOM      4  C   UNL     1       5.038   4.323  17.248  0.00  0.00    +0.000 A 
ATOM      5  C   UNL     1       4.450   5.470  17.809  0.00  0.00    +0.000 A 
ATOM      6  C   UNL     1       5.137   6.701  17.781  0.00  0.00    +0.000 A 
ATOM      7  C   UNL     1       3.049   5.483  18.298  0.00  0.00    +0.000 C 
ATOM      8  O   UNL     1       2.330   6.443  18.038  0.00  0.00    +0.000 OA
ATOM      9  N   UNL     1       2.623   4.397  19.025  0.00  0.00    +0.000 N 
ATOM     10  C   UNL     1       1.248   4.150  19.380  0.00  0.00    +0.000 C 
ATOM     11  C   UNL     1       1.359   3.431  20.712  0.00  0.00    +0.000 C 
ATOM     12  C   UNL     1       2.661   2.632  20.606  0.00  0.00    +0.000 C 
ATOM     13  C   UNL     1       3.485   3.340  19.525  0.00  0.00    +0.000 C 
ATOM     14  C   UNL     1       3.838   2.446  18.334  0.00  0.00    +0.000 C 
ATOM     15  O   UNL     1       3.679   1.226  18.328  0.00  0.00    +0.000 OA
ATOM     16  N   UNL     1       4.505   3.023  17.284  0.00  0.00    +0.000 N 
ATOM     17  H   UNL     1       4.878   2.331  16.643  0.00  0.00    +0.000 HD
ENDROOT
BRANCH   1  20
ATOM     18  C   UNL     1       8.085   8.395  18.083  0.00  0.00    +0.000 C 
ATOM     19  O   UNL     1       8.589   7.660  18.928  0.00  0.00    +0.000 OA
ATOM     20  N   UNL     1       7.072   8.037  17.204  0.00  0.00    +0.000 N 
ATOM     21  H   UNL     1       6.870   8.674  16.442  0.00  0.00    +0.000 HD
BRANCH  18  22
ATOM     22  C   UNL     1       8.550   9.825  17.910  0.00  0.00    +0.000 C 
BRANCH  22  23
ATOM     23  C   UNL     1       9.637  10.145  18.936  0.00  0.00    +0.000 C 
BRANCH  23  30
ATOM     24  C   UNL     1      10.642  12.651  17.151  0.00  0.00    +0.000 C 
ATOM     25  C   UNL     1      10.101  12.681  18.532  0.00  0.00    +0.000 A 
ATOM     26  N   UNL     1       9.973  13.842  19.183  0.00  0.00    +0.000 NA
ATOM     27  N   UNL     1       9.439  13.500  20.363  0.00  0.00    +0.000 N 
ATOM     28  C   UNL     1       9.244  12.155  20.510  0.00  0.00    +0.000 A 
ATOM     29  C   UNL     1       8.669  11.572  21.746  0.00  0.00    +0.000 C 
ATOM     30  C   UNL     1       9.663  11.583  19.323  0.00  0.00    +0.000 A 
ATOM     31  H   UNL     1       9.228  14.239  21.024  0.00  0.00    +0.000 HD
ENDBRANCH  23  30
ENDBRANCH  22  23
ENDBRANCH  18  22
ENDBRANCH   1  20
TORSDOF 4
ENDMDL
MODEL 5
REMARK VINA RESULT:      -9.0      1.903      2.375
REMARK  Name = 
REMARK  6 active torsions:
REMARK  status: ('A' for Active; 'I' for Inactive)
REMARK    1  A    between atoms: C_1  and  C_2
REMARK    2  A    between atoms: C_5  and  C_6
REMARK    3  A    between atoms: C_7  and  C_8
REMARK    4  A    between atoms: C_8  and  C_9
REMARK    5  A    between atoms: C_9  and  C_10
REMARK    6  A    between atoms: N_12  and  C_13
REMARK                            x       y       z     vdW  Elec       q    Type
REMARK                         _______ _______ _______ _____ _____    ______ ____
ROOT
ATOM      1  C   UNL     1       7.576   7.711  17.825  0.00  0.00    +0.000 A 
ATOM      2  C   UNL     1       8.237   6.942  18.785  0.00  0.00    +0.000 A 
ATOM      3  C   UNL     1       7.777   5.674  19.133  0.00  0.00    +0.000 A 
ATOM      4  C   UNL     1       6.607   5.166  18.570  0.00  0.00    +0.000 A 
ATOM      5  C   UNL     1       5.941   5.918  17.586  0.00  0.00    +0.000 A 
ATOM      6  C   UNL     1       6.429   7.189  17.218  0.00  0.00    +0.000 A 
ATOM      7  C   UNL     1       4.820   5.362  16.789  0.00  0.00    +0.000 C 
ATOM      8  O   UNL     1       4.777   5.577  15.580  0.00  0.00    +0.000 OA
ATOM      9  N   UNL     1       3.877   4.619  17.457  0.00  0.00    +0.000 N 
ATOM     10  C   UNL     1       2.858   3.832  16.807  0.00  0.00    +0.000 C 
ATOM     11  C   UNL     1       1.700   3.893  17.785  0.00  0.00    +0.000 C 
ATOM     12  C   UNL     1       2.365   3.968  19.161  0.00  0.00    +0.000 C 
ATOM     13  C   UNL     1       3.777   4.506  18.901  0.00  0.00    +0.000 C 
ATOM     14  C   UNL     1       4.891   3.562  19.358  0.00  0.00    +0.000 C 
ATOM     15  O   UNL     1       4.698   2.573  20.063  0.00  0.00    +0.000 OA
ATOM     16  N   UNL     1       6.184   3.931  19.089  0.00  0.00    +0.000 N 
ATOM     17  H   UNL     1       6.855   3.366  19.599  0.00  0.00    +0.000 HD
ENDROOT
BRANCH   1  20
ATOM     18  C   UNL     1       8.704   9.882  18.274  0.00  0.00    +0.000 C 
ATOM     19  O   UNL     1       9.073   9.646  19.421  0.00  0.00    +0.000 OA
ATOM     20  N   UNL     1       8.024   8.997  17.448  0.00  0.00    +0.000 N 
ATOM     21  H   UNL     1       7.935   9.246  16.470  0.00  0.00    +0.000 HD
BRANCH  18  22
ATOM     22  C   UNL     1       8.978  11.220  17.620  0.00  0.00    +0.000 C 
BRANCH  22  23
ATOM     23  C   UNL     1       9.678  12.148  18.612  0.00  0.00    +0.000 C 
BRANCH  23  30
ATOM     24  C   UNL     1      12.240  13.266  16.982  0.00  0.00    +0.000 C 
ATOM     25  C   UNL     1      11.009  14.006  17.355  0.00  0.00    +0.000 A 
ATOM     26  N   UNL     1      10.859  15.288  17.005  0.00  0.00    +0.000 NA
ATOM     27  N   UNL     1       9.647  15.616  17.471  0.00  0.00    +0.000 N 
ATOM     28  C   UNL     1       9.019  14.600  18.136  0.00  0.00    +0.000 A 
ATOM     29  C   UNL     1       7.672  14.761  18.733  0.00  0.00    +0.000 C 
ATOM     30  C   UNL     1       9.883  13.522  18.076  0.00  0.00    +0.000 A 
ATOM     31  H   UNL     1       9.306  16.555  17.297  0.00  0.00    +0.000 HD
ENDBRANCH  23  30
ENDBRANCH  22  23
ENDBRANCH  18  22
ENDBRANCH   1  20
TORSDOF 4
ENDMDL
MODEL 6
REMARK VINA RESULT:      -8.9      1.847      2.796
REMARK  Name = 
REMARK  6 active torsions:
REMARK  status: ('A' for Active; 'I' for Inactive)
REMARK    1  A    between atoms: C_1  and  C_2
REMARK    2  A    between atoms: C_5  and  C_6
REMARK    3  A    between atoms: C_7  and  C_8
REMARK    4  A    between atoms: C_8  and  C_9
REMARK    5  A    between atoms: C_9  and  C_10
REMARK    6  A    between atoms: N_12  and  C_13
REMARK                            x       y       z     vdW  Elec       q    Type
REMARK                         _______ _______ _______ _____ _____    ______ ____
ROOT
ATOM      1  C   UNL     1       7.678   7.869  17.919  0.00  0.00    +0.000 A 
ATOM      2  C   UNL     1       8.328   7.070  18.861  0.00  0.00    +0.000 A 
ATOM      3  C   UNL     1       7.867   5.790  19.160  0.00  0.00    +0.000 A 
ATOM      4  C   UNL     1       6.707   5.299  18.566  0.00  0.00    +0.000 A 
ATOM      5  C   UNL     1       6.051   6.082  17.599  0.00  0.00    +0.000 A 
ATOM      6  C   UNL     1       6.540   7.365  17.281  0.00  0.00    +0.000 A 
ATOM      7  C   UNL     1       4.942   5.550  16.769  0.00  0.00    +0.000 C 
ATOM      8  O   UNL     1       4.914   5.805  15.569  0.00  0.00    +0.000 OA
ATOM      9  N   UNL     1       3.992   4.782  17.400  0.00  0.00    +0.000 N 
ATOM     10  C   UNL     1       2.984   4.015  16.712  0.00  0.00    +0.000 C 
ATOM     11  C   UNL     1       1.813   4.040  17.675  0.00  0.00    +0.000 C 
ATOM     12  C   UNL     1       2.461   4.071  19.062  0.00  0.00    +0.000 C 
ATOM     13  C   UNL     1       3.874   4.621  18.839  0.00  0.00    +0.000 C 
ATOM     14  C   UNL     1       4.985   3.665  19.278  0.00  0.00    +0.000 C 
ATOM     15  O   UNL     1       4.786   2.652  19.947  0.00  0.00    +0.000 OA
ATOM     16  N   UNL     1       6.280   4.046  19.038  0.00  0.00    +0.000 N 
ATOM     17  H   UNL     1       6.946   3.466  19.537  0.00  0.00    +0.000 HD
ENDROOT
BRANCH   1  20
ATOM     18  C   UNL     1       8.824  10.013  18.444  0.00  0.00    +0.000 C 
ATOM     19  O   UNL     1       9.208   9.727  19.575  0.00  0.00    +0.000 OA
ATOM     20  N   UNL     1       8.127   9.168  17.591  0.00  0.00    +0.000 N 
ATOM     21  H   UNL     1       8.025   9.460  16.626  0.00  0.00    +0.000 HD
BRANCH  18  22
ATOM     22  C   UNL     1       9.095  11.377  17.845  0.00  0.00    +0.000 C 
BRANCH  22  23
ATOM     23  C   UNL     1       9.140  12.430  18.951  0.00  0.00    +0.000 C 
BRANCH  23  30
ATOM     24  C   UNL     1       9.209  15.486  17.889  0.00  0.00    +0.000 C 
ATOM     25  C   UNL     1      10.346  14.673  18.387  0.00  0.00    +0.000 A 
ATOM     26  N   UNL     1      11.576  15.195  18.443  0.00  0.00    +0.000 NA
ATOM     27  N   UNL     1      12.327  14.211  18.956  0.00  0.00    +0.000 N 
ATOM     28  C   UNL     1      11.632  13.061  19.207  0.00  0.00    +0.000 A 
ATOM     29  C   UNL     1      12.281  11.854  19.769  0.00  0.00    +0.000 C 
ATOM     30  C   UNL     1      10.323  13.328  18.849  0.00  0.00    +0.000 A 
ATOM     31  H   UNL     1      13.312  14.394  19.114  0.00  0.00    +0.000 HD
ENDBRANCH  23  30
ENDBRANCH  22  23
ENDBRANCH  18  22
ENDBRANCH   1  20
TORSDOF 4
ENDMDL
MODEL 7
REMARK VINA RESULT:      -8.7      5.023      8.299
REMARK  Name = 
REMARK  6 active torsions:
REMARK  status: ('A' for Active; 'I' for Inactive)
REMARK    1  A    between atoms: C_1  and  C_2
REMARK    2  A    between atoms: C_5  and  C_6
REMARK    3  A    between atoms: C_7  and  C_8
REMARK    4  A    between atoms: C_8  and  C_9
REMARK    5  A    between atoms: C_9  and  C_10
REMARK    6  A    between atoms: N_12  and  C_13
REMARK                            x       y       z     vdW  Elec       q    Type
REMARK                         _______ _______ _______ _____ _____    ______ ____
ROOT
ATOM      1  C   UNL     1       2.126   7.388  19.209  0.00  0.00    +0.000 A 
ATOM      2  C   UNL     1       2.070   7.348  20.603  0.00  0.00    +0.000 A 
ATOM      3  C   UNL     1       1.370   8.314  21.323  0.00  0.00    +0.000 A 
ATOM      4  C   UNL     1       0.756   9.379  20.668  0.00  0.00    +0.000 A 
ATOM      5  C   UNL     1       0.785   9.424  19.263  0.00  0.00    +0.000 A 
ATOM      6  C   UNL     1       1.471   8.427  18.539  0.00  0.00    +0.000 A 
ATOM      7  C   UNL     1      -0.020  10.398  18.485  0.00  0.00    +0.000 C 
ATOM      8  O   UNL     1      -0.615  10.020  17.480  0.00  0.00    +0.000 OA
ATOM      9  N   UNL     1      -0.060  11.693  18.943  0.00  0.00    +0.000 N 
ATOM     10  C   UNL     1      -0.960  12.701  18.441  0.00  0.00    +0.000 C 
ATOM     11  C   UNL     1      -0.165  13.984  18.600  0.00  0.00    +0.000 C 
ATOM     12  C   UNL     1       0.689  13.751  19.849  0.00  0.00    +0.000 C 
ATOM     13  C   UNL     1       0.778  12.228  20.002  0.00  0.00    +0.000 C 
ATOM     14  C   UNL     1       0.218  11.707  21.327  0.00  0.00    +0.000 C 
ATOM     15  O   UNL     1      -0.072  12.434  22.276  0.00  0.00    +0.000 OA
ATOM     16  N   UNL     1       0.186  10.348  21.511  0.00  0.00    +0.000 N 
ATOM     17  H   UNL     1       0.000  10.099  22.477  0.00  0.00    +0.000 HD
ENDROOT
BRANCH   1  20
ATOM     18  C   UNL     1       2.481   5.076  18.364  0.00  0.00    +0.000 C 
ATOM     19  O   UNL     1       1.491   4.557  18.872  0.00  0.00    +0.000 OA
ATOM     20  N   UNL     1       2.822   6.419  18.452  0.00  0.00    +0.000 N 
ATOM     21  H   UNL     1       3.561   6.754  17.845  0.00  0.00    +0.000 HD
BRANCH  18  22
ATOM     22  C   UNL     1       3.464   4.263  17.549  0.00  0.00    +0.000 C 
BRANCH  22  23
ATOM     23  C   UNL     1       4.364   5.195  16.739  0.00  0.00    +0.000 C 
BRANCH  23  30
ATOM     24  C   UNL     1       6.355   4.106  14.432  0.00  0.00    +0.000 C 
ATOM     25  C   UNL     1       6.681   4.391  15.851  0.00  0.00    +0.000 A 
ATOM     26  N   UNL     1       7.925   4.211  16.307  0.00  0.00    +0.000 NA
ATOM     27  N   UNL     1       7.862   4.585  17.592  0.00  0.00    +0.000 N 
ATOM     28  C   UNL     1       6.613   4.974  17.991  0.00  0.00    +0.000 A 
ATOM     29  C   UNL     1       6.330   5.418  19.376  0.00  0.00    +0.000 C 
ATOM     30  C   UNL     1       5.810   4.864  16.871  0.00  0.00    +0.000 A 
ATOM     31  H   UNL     1       8.713   4.554  18.142  0.00  0.00    +0.000 HD
ENDBRANCH  23  30
ENDBRANCH  22  23
ENDBRANCH  18  22
ENDBRANCH   1  20
TORSDOF 4
ENDMDL
MODEL 8
REMARK VINA RESULT:      -8.6      1.292      1.619
REMARK  Name = 
REMARK  6 active torsions:
REMARK  status: ('A' for Active; 'I' for Inactive)
REMARK    1  A    between atoms: C_1  and  C_2
REMARK    2  A    between atoms: C_5  and  C_6
REMARK    3  A    between atoms: C_7  and  C_8
REMARK    4  A    between atoms: C_8  and  C_9
REMARK    5  A    between atoms: C_9  and  C_10
REMARK    6  A    between atoms: N_12  and  C_13
REMARK                            x       y       z     vdW  Elec       q    Type
REMARK                         _______ _______ _______ _____ _____    ______ ____
ROOT
ATOM      1  C   UNL     1       6.845   7.193  17.616  0.00  0.00    +0.000 A 
ATOM      2  C   UNL     1       7.654   6.057  17.676  0.00  0.00    +0.000 A 
ATOM      3  C   UNL     1       7.111   4.798  17.922  0.00  0.00    +0.000 A 
ATOM      4  C   UNL     1       5.748   4.652  18.172  0.00  0.00    +0.000 A 
ATOM      5  C   UNL     1       4.915   5.782  18.095  0.00  0.00    +0.000 A 
ATOM      6  C   UNL     1       5.468   7.049  17.818  0.00  0.00    +0.000 A 
ATOM      7  C   UNL     1       3.435   5.679  18.136  0.00  0.00    +0.000 C 
ATOM      8  O   UNL     1       2.764   6.351  17.357  0.00  0.00    +0.000 OA
ATOM      9  N   UNL     1       2.887   4.818  19.055  0.00  0.00    +0.000 N 
ATOM     10  C   UNL     1       1.496   4.436  19.077  0.00  0.00    +0.000 C 
ATOM     11  C   UNL     1       1.224   4.209  20.552  0.00  0.00    +0.000 C 
ATOM     12  C   UNL     1       2.550   3.684  21.108  0.00  0.00    +0.000 C 
ATOM     13  C   UNL     1       3.622   4.159  20.120  0.00  0.00    +0.000 C 
ATOM     14  C   UNL     1       4.419   3.020  19.480  0.00  0.00    +0.000 C 
ATOM     15  O   UNL     1       4.373   1.854  19.870  0.00  0.00    +0.000 OA
ATOM     16  N   UNL     1       5.343   3.353  18.523  0.00  0.00    +0.000 N 
ATOM     17  H   UNL     1       5.961   2.579  18.306  0.00  0.00    +0.000 HD
ENDROOT
BRANCH   1  20
ATOM     18  C   UNL     1       8.312   9.130  18.146  0.00  0.00    +0.000 C 
ATOM     19  O   UNL     1       8.876   8.651  19.126  0.00  0.00    +0.000 OA
ATOM     20  N   UNL     1       7.368   8.481  17.362  0.00  0.00    +0.000 N 
ATOM     21  H   UNL     1       7.112   8.916  16.484  0.00  0.00    +0.000 HD
BRANCH  18  22
ATOM     22  C   UNL     1       8.616  10.536  17.675  0.00  0.00    +0.000 C 
BRANCH  22  23
ATOM     23  C   UNL     1      10.061  10.897  18.017  0.00  0.00    +0.000 C 
BRANCH  23  30
ATOM     24  C   UNL     1      11.193  13.683  16.822  0.00  0.00    +0.000 C 
ATOM     25  C   UNL     1      10.675  13.426  18.189  0.00  0.00    +0.000 A 
ATOM     26  N   UNL     1      10.628  14.413  19.090  0.00  0.00    +0.000 NA
ATOM     27  N   UNL     1      10.091  13.841  20.176  0.00  0.00    +0.000 N 
ATOM     28  C   UNL     1       9.815  12.511  20.018  0.00  0.00    +0.000 A 
ATOM     29  C   UNL     1       9.224  11.694  21.104  0.00  0.00    +0.000 C 
ATOM     30  C   UNL     1      10.181  12.204  18.721  0.00  0.00    +0.000 A 
ATOM     31  H   UNL     1       9.936  14.420  20.994  0.00  0.00    +0.000 HD
ENDBRANCH  23  30
ENDBRANCH  22  23
ENDBRANCH  18  22
ENDBRANCH   1  20
TORSDOF 4
ENDMDL
MODEL 9
REMARK VINA RESULT:      -8.6      5.129      8.291
REMARK  Name = 
REMARK  6 active torsions:
REMARK  status: ('A' for Active; 'I' for Inactive)
REMARK    1  A    between atoms: C_1  and  C_2
REMARK    2  A    between atoms: C_5  and  C_6
REMARK    3  A    between atoms: C_7  and  C_8
REMARK    4  A    between atoms: C_8  and  C_9
REMARK    5  A    between atoms: C_9  and  C_10
REMARK    6  A    between atoms: N_12  and  C_13
REMARK                            x       y       z     vdW  Elec       q    Type
REMARK                         _______ _______ _______ _____ _____    ______ ____
ROOT
ATOM      1  C   UNL     1       2.011   7.635  19.360  0.00  0.00    +0.000 A 
ATOM      2  C   UNL     1       1.865   7.435  20.733  0.00  0.00    +0.000 A 
ATOM      3  C   UNL     1       1.107   8.307  21.511  0.00  0.00    +0.000 A 
ATOM      4  C   UNL     1       0.522   9.436  20.943  0.00  0.00    +0.000 A 
ATOM      5  C   UNL     1       0.641   9.642  19.557  0.00  0.00    +0.000 A 
ATOM      6  C   UNL     1       1.386   8.740  18.771  0.00  0.00    +0.000 A 
ATOM      7  C   UNL     1      -0.126  10.694  18.844  0.00  0.00    +0.000 C 
ATOM      8  O   UNL     1      -0.649  10.429  17.765  0.00  0.00    +0.000 OA
ATOM      9  N   UNL     1      -0.215  11.927  19.443  0.00  0.00    +0.000 N 
ATOM     10  C   UNL     1      -1.094  12.980  19.000  0.00  0.00    +0.000 C 
ATOM     11  C   UNL     1      -0.329  14.241  19.356  0.00  0.00    +0.000 C 
ATOM     12  C   UNL     1       0.445  13.872  20.624  0.00  0.00    +0.000 C 
ATOM     13  C   UNL     1       0.546  12.343  20.608  0.00  0.00    +0.000 C 
ATOM     14  C   UNL     1      -0.091  11.670  21.826  0.00  0.00    +0.000 C 
ATOM     15  O   UNL     1      -0.453  12.281  22.830  0.00  0.00    +0.000 OA
ATOM     16  N   UNL     1      -0.116  10.299  21.851  0.00  0.00    +0.000 N 
ATOM     17  H   UNL     1      -0.360   9.939  22.768  0.00  0.00    +0.000 HD
ENDROOT
BRANCH   1  20
ATOM     18  C   UNL     1       2.491   5.420  18.336  0.00  0.00    +0.000 C 
ATOM     19  O   UNL     1       1.513   4.818  18.771  0.00  0.00    +0.000 OA
ATOM     20  N   UNL     1       2.769   6.764  18.545  0.00  0.00    +0.000 N 
ATOM     21  H   UNL     1       3.507   7.180  17.989  0.00  0.00    +0.000 HD
BRANCH  18  22
ATOM     22  C   UNL     1       3.529   4.721  17.484  0.00  0.00    +0.000 C 
BRANCH  22  23
ATOM     23  C   UNL     1       4.523   5.743  16.934  0.00  0.00    +0.000 C 
BRANCH  23  30
ATOM     24  C   UNL     1       6.760   5.495  19.259  0.00  0.00    +0.000 C 
ATOM     25  C   UNL     1       6.881   5.089  17.837  0.00  0.00    +0.000 A 
ATOM     26  N   UNL     1       8.013   4.539  17.386  0.00  0.00    +0.000 NA
ATOM     27  N   UNL     1       7.761   4.278  16.096  0.00  0.00    +0.000 N 
ATOM     28  C   UNL     1       6.515   4.667  15.690  0.00  0.00    +0.000 A 
ATOM     29  C   UNL     1       6.043   4.474  14.298  0.00  0.00    +0.000 C 
ATOM     30  C   UNL     1       5.904   5.200  16.810  0.00  0.00    +0.000 A 
ATOM     31  H   UNL     1       8.486   3.829  15.549  0.00  0.00    +0.000 HD
ENDBRANCH  23  30
ENDBRANCH  22  23
ENDBRANCH  18  22
ENDBRANCH   1  20
TORSDOF 4
ENDMDL
