MODEL 1
REMARK VINA RESULT:      -6.9      0.000      0.000
REMARK  Name = 
REMARK  9 active torsions:
REMARK  status: ('A' for Active; 'I' for Inactive)
REMARK    1  A    between atoms: C_1  and  C_2
REMARK    2  A    between atoms: C_2  and  N_3
REMARK    3  A    between atoms: N_3  and  C_4
REMARK    4  A    between atoms: C_4  and  C_5
REMARK    5  A    between atoms: C_11  and  C_13
REMARK    6  A    between atoms: C_13  and  N_14
REMARK    7  A    between atoms: N_17  and  C_18
REMARK    8  A    between atoms: C_28  and  C_29
REMARK    9  A    between atoms: C_30  and  C_31
REMARK                            x       y       z     vdW  Elec       q    Type
REMARK                         _______ _______ _______ _____ _____    ______ ____
ROOT
ATOM      1  N   UNL     1      -1.141  11.858  20.727  0.00  0.00    +0.000 N 
ATOM      2  C   UNL     1      -0.013  11.082  20.426  0.00  0.00    +0.000 A 
ATOM      3  O   UNL     1       0.961  11.105  21.190  0.00  0.00    +0.000 OA
ATOM      4  N   UNL     1      -0.076  10.249  19.290  0.00  0.00    +0.000 N 
ATOM      5  C   UNL     1      -1.140  10.220  18.372  0.00  0.00    +0.000 A 
ATOM      6  O   UNL     1      -1.138   9.551  17.339  0.00  0.00    +0.000 OA
ATOM      7  C   UNL     1      -2.265  11.074  18.704  0.00  0.00    +0.000 A 
ATOM      8  C   UNL     1      -3.522  11.252  18.006  0.00  0.00    +0.000 A 
ATOM      9  C   UNL     1      -3.947  10.541  16.757  0.00  0.00    +0.000 C 
ATOM     10  C   UNL     1      -4.315  12.191  18.655  0.00  0.00    +0.000 A 
ATOM     11  C   UNL     1      -5.668  12.698  18.277  0.00  0.00    +0.000 C 
ATOM     12  S   UNL     1      -3.570  12.798  20.071  0.00  0.00    +0.000 S 
ATOM     13  C   UNL     1      -2.200  11.839  19.837  0.00  0.00    +0.000 A 
ENDROOT
BRANCH   4  14
ATOM     14  C   UNL     1       1.001   9.322  19.078  0.00  0.00    +0.000 A 
ATOM     15  C   UNL     1       1.788   9.419  17.917  0.00  0.00    +0.000 A 
ATOM     16  C   UNL     1       2.776   8.469  17.642  0.00  0.00    +0.000 A 
ATOM     17  C   UNL     1       3.007   7.432  18.539  0.00  0.00    +0.000 A 
ATOM     18 CL   UNL     1       4.199   6.246  18.184  0.00  0.00    +0.000 Cl
ATOM     19  C   UNL     1       2.265   7.342  19.715  0.00  0.00    +0.000 A 
ATOM     20  C   UNL     1       1.261   8.280  19.980  0.00  0.00    +0.000 A 
ENDBRANCH   4  14
BRANCH   1  21
ATOM     21  C   UNL     1      -1.051  12.678  21.945  0.00  0.00    +0.000 C 
BRANCH  21  23
ATOM     22  N   UNL     1      -2.951  12.974  23.588  0.00  0.00    +0.000 N 
ATOM     23  C   UNL     1      -2.006  12.122  23.019  0.00  0.00    +0.000 C 
ATOM     24  O   UNL     1      -1.868  10.947  23.381  0.00  0.00    +0.000 OA
BRANCH  22  26
ATOM     25  C   UNL     1      -5.371  12.572  24.431  0.00  0.00    +0.000 C 
ATOM     26  C   UNL     1      -3.867  12.534  24.660  0.00  0.00    +0.000 C 
ENDBRANCH  22  26
BRANCH  22  27
ATOM     27  C   UNL     1      -3.098  14.389  23.212  0.00  0.00    +0.000 C 
BRANCH  27  28
ATOM     28  C   UNL     1      -2.500  15.391  24.178  0.00  0.00    +0.000 A 
ATOM     29  C   UNL     1      -1.296  15.177  24.866  0.00  0.00    +0.000 A 
ATOM     30  C   UNL     1      -0.848  16.091  25.823  0.00  0.00    +0.000 A 
ATOM     31  C   UNL     1      -1.589  17.237  26.102  0.00  0.00    +0.000 A 
ATOM     32  C   UNL     1      -2.764  17.487  25.400  0.00  0.00    +0.000 A 
ATOM     33  C   UNL     1      -3.214  16.575  24.442  0.00  0.00    +0.000 A 
ENDBRANCH  27  28
ENDBRANCH  22  27
ENDBRANCH  21  23
ENDBRANCH   1  21
TORSDOF 6
ENDMDL
MODEL 2
REMARK VINA RESULT:      -6.8      0.992      1.566
REMARK  Name = 
REMARK  9 active torsions:
REMARK  status: ('A' for Active; 'I' for Inactive)
REMARK    1  A    between atoms: C_1  and  C_2
REMARK    2  A    between atoms: C_2  and  N_3
REMARK    3  A    between atoms: N_3  and  C_4
REMARK    4  A    between atoms: C_4  and  C_5
REMARK    5  A    between atoms: C_11  and  C_13
REMARK    6  A    between atoms: C_13  and  N_14
REMARK    7  A    between atoms: N_17  and  C_18
REMARK    8  A    between atoms: C_28  and  C_29
REMARK    9  A    between atoms: C_30  and  C_31
REMARK                            x       y       z     vdW  Elec       q    Type
REMARK                         _______ _______ _______ _____ _____    ______ ____
ROOT
ATOM      1  N   UNL     1      -1.023  12.068  20.845  0.00  0.00    +0.000 N 
ATOM      2  C   UNL     1       0.072  11.270  20.485  0.00  0.00    +0.000 A 
ATOM      3  O   UNL     1       1.096  11.296  21.181  0.00  0.00    +0.000 OA
ATOM      4  N   UNL     1      -0.078  10.413  19.376  0.00  0.00    +0.000 N 
ATOM      5  C   UNL     1      -1.202  10.378  18.534  0.00  0.00    +0.000 A 
ATOM      6  O   UNL     1      -1.279   9.687  17.519  0.00  0.00    +0.000 OA
ATOM      7  C   UNL     1      -2.292  11.255  18.921  0.00  0.00    +0.000 A 
ATOM      8  C   UNL     1      -3.591  11.436  18.306  0.00  0.00    +0.000 A 
ATOM      9  C   UNL     1      -4.109  10.703  17.105  0.00  0.00    +0.000 C 
ATOM     10  C   UNL     1      -4.325  12.401  18.985  0.00  0.00    +0.000 A 
ATOM     11  C   UNL     1      -5.695  12.918  18.687  0.00  0.00    +0.000 C 
ATOM     12  S   UNL     1      -3.478  13.028  20.332  0.00  0.00    +0.000 S 
ATOM     13  C   UNL     1      -2.140  12.045  20.029  0.00  0.00    +0.000 A 
ENDROOT
BRANCH   4  14
ATOM     14  C   UNL     1       0.970   9.466  19.113  0.00  0.00    +0.000 A 
ATOM     15  C   UNL     1       1.731   9.574  17.936  0.00  0.00    +0.000 A 
ATOM     16  C   UNL     1       2.687   8.608  17.611  0.00  0.00    +0.000 A 
ATOM     17  C   UNL     1       2.914   7.543  18.476  0.00  0.00    +0.000 A 
ATOM     18 CL   UNL     1       4.068   6.337  18.060  0.00  0.00    +0.000 Cl
ATOM     19  C   UNL     1       2.199   7.439  19.667  0.00  0.00    +0.000 A 
ATOM     20  C   UNL     1       1.226   8.393  19.981  0.00  0.00    +0.000 A 
ENDBRANCH   4  14
BRANCH   1  21
ATOM     21  C   UNL     1      -0.840  12.914  22.034  0.00  0.00    +0.000 C 
BRANCH  21  23
ATOM     22  N   UNL     1      -2.559  13.523  23.787  0.00  0.00    +0.000 N 
ATOM     23  C   UNL     1      -1.862  12.519  23.117  0.00  0.00    +0.000 C 
ATOM     24  O   UNL     1      -1.996  11.320  23.394  0.00  0.00    +0.000 OA
BRANCH  22  26
ATOM     25  C   UNL     1      -4.831  12.535  24.554  0.00  0.00    +0.000 C 
ATOM     26  C   UNL     1      -3.516  13.232  24.873  0.00  0.00    +0.000 C 
ENDBRANCH  22  26
BRANCH  22  27
ATOM     27  C   UNL     1      -2.377  14.957  23.511  0.00  0.00    +0.000 C 
BRANCH  27  28
ATOM     28  C   UNL     1      -3.610  15.821  23.686  0.00  0.00    +0.000 A 
ATOM     29  C   UNL     1      -3.863  16.580  24.838  0.00  0.00    +0.000 A 
ATOM     30  C   UNL     1      -5.066  17.275  24.985  0.00  0.00    +0.000 A 
ATOM     31  C   UNL     1      -6.032  17.230  23.982  0.00  0.00    +0.000 A 
ATOM     32  C   UNL     1      -5.781  16.516  22.814  0.00  0.00    +0.000 A 
ATOM     33  C   UNL     1      -4.578  15.821  22.664  0.00  0.00    +0.000 A 
ENDBRANCH  27  28
ENDBRANCH  22  27
ENDBRANCH  21  23
ENDBRANCH   1  21
TORSDOF 6
ENDMDL
MODEL 3
REMARK VINA RESULT:      -6.8      1.213      2.525
REMARK  Name = 
REMARK  9 active torsions:
REMARK  status: ('A' for Active; 'I' for Inactive)
REMARK    1  A    between atoms: C_1  and  C_2
REMARK    2  A    between atoms: C_2  and  N_3
REMARK    3  A    between atoms: N_3  and  C_4
REMARK    4  A    between atoms: C_4  and  C_5
REMARK    5  A    between atoms: C_11  and  C_13
REMARK    6  A    between atoms: C_13  and  N_14
REMARK    7  A    between atoms: N_17  and  C_18
REMARK    8  A    between atoms: C_28  and  C_29
REMARK    9  A    between atoms: C_30  and  C_31
REMARK                            x       y       z     vdW  Elec       q    Type
REMARK                         _______ _______ _______ _____ _____    ______ ____
ROOT
ATOM      1  N   UNL     1      -0.954  11.811  21.095  0.00  0.00    +0.000 N 
ATOM      2  C   UNL     1       0.142  11.042  20.679  0.00  0.00    +0.000 A 
ATOM      3  O   UNL     1       1.146  10.976  21.402  0.00  0.00    +0.000 OA
ATOM      4  N   UNL     1       0.014  10.315  19.478  0.00  0.00    +0.000 N 
ATOM      5  C   UNL     1      -1.085  10.390  18.606  0.00  0.00    +0.000 A 
ATOM      6  O   UNL     1      -1.141   9.817  17.519  0.00  0.00    +0.000 OA
ATOM      7  C   UNL     1      -2.176  11.234  19.059  0.00  0.00    +0.000 A 
ATOM      8  C   UNL     1      -3.454  11.501  18.433  0.00  0.00    +0.000 A 
ATOM      9  C   UNL     1      -3.946  10.912  17.144  0.00  0.00    +0.000 C 
ATOM     10  C   UNL     1      -4.197  12.394  19.194  0.00  0.00    +0.000 A 
ATOM     11  C   UNL     1      -5.552  12.961  18.919  0.00  0.00    +0.000 C 
ATOM     12  S   UNL     1      -3.382  12.856  20.626  0.00  0.00    +0.000 S 
ATOM     13  C   UNL     1      -2.047  11.894  20.251  0.00  0.00    +0.000 A 
ENDROOT
BRANCH   4  14
ATOM     14  C   UNL     1       1.059   9.388  19.140  0.00  0.00    +0.000 A 
ATOM     15  C   UNL     1       1.797   9.568  17.957  0.00  0.00    +0.000 A 
ATOM     16  C   UNL     1       2.749   8.626  17.558  0.00  0.00    +0.000 A 
ATOM     17  C   UNL     1       2.994   7.512  18.354  0.00  0.00    +0.000 A 
ATOM     18 CL   UNL     1       4.142   6.336  17.847  0.00  0.00    +0.000 Cl
ATOM     19  C   UNL     1       2.302   7.336  19.551  0.00  0.00    +0.000 A 
ATOM     20  C   UNL     1       1.333   8.268  19.938  0.00  0.00    +0.000 A 
ENDBRANCH   4  14
BRANCH   1  21
ATOM     21  C   UNL     1      -0.795  12.517  22.376  0.00  0.00    +0.000 C 
BRANCH  21  23
ATOM     22  N   UNL     1      -0.884  14.954  23.044  0.00  0.00    +0.000 N 
ATOM     23  C   UNL     1      -0.470  14.000  22.117  0.00  0.00    +0.000 C 
ATOM     24  O   UNL     1       0.105  14.303  21.064  0.00  0.00    +0.000 OA
BRANCH  22  26
ATOM     25  C   UNL     1      -0.903  17.368  23.993  0.00  0.00    +0.000 C 
ATOM     26  C   UNL     1      -0.659  16.400  22.845  0.00  0.00    +0.000 C 
ENDBRANCH  22  26
BRANCH  22  27
ATOM     27  C   UNL     1      -1.615  14.622  24.277  0.00  0.00    +0.000 C 
BRANCH  27  28
ATOM     28  C   UNL     1      -3.099  14.362  24.110  0.00  0.00    +0.000 A 
ATOM     29  C   UNL     1      -3.715  13.152  24.464  0.00  0.00    +0.000 A 
ATOM     30  C   UNL     1      -5.067  12.933  24.190  0.00  0.00    +0.000 A 
ATOM     31  C   UNL     1      -5.828  13.919  23.568  0.00  0.00    +0.000 A 
ATOM     32  C   UNL     1      -5.244  15.141  23.247  0.00  0.00    +0.000 A 
ATOM     33  C   UNL     1      -3.892  15.363  23.520  0.00  0.00    +0.000 A 
ENDBRANCH  27  28
ENDBRANCH  22  27
ENDBRANCH  21  23
ENDBRANCH   1  21
TORSDOF 6
ENDMDL
MODEL 4
REMARK VINA RESULT:      -6.8      3.849      9.129
REMARK  Name = 
REMARK  9 active torsions:
REMARK  status: ('A' for Active; 'I' for Inactive)
REMARK    1  A    between atoms: C_1  and  C_2
REMARK    2  A    between atoms: C_2  and  N_3
REMARK    3  A    between atoms: N_3  and  C_4
REMARK    4  A    between atoms: C_4  and  C_5
REMARK    5  A    between atoms: C_11  and  C_13
REMARK    6  A    between atoms: C_13  and  N_14
REMARK    7  A    between atoms: N_17  and  C_18
REMARK    8  A    between atoms: C_28  and  C_29
REMARK    9  A    between atoms: C_30  and  C_31
REMARK                            x       y       z     vdW  Elec       q    Type
REMARK                         _______ _______ _______ _____ _____    ______ ____
ROOT
ATOM      1  N   UNL     1       0.245  11.314  18.726  0.00  0.00    +0.000 N 
ATOM      2  C   UNL     1      -1.090  11.391  19.147  0.00  0.00    +0.000 A 
ATOM      3  O   UNL     1      -1.789  10.369  19.134  0.00  0.00    +0.000 OA
ATOM      4  N   UNL     1      -1.551  12.629  19.639  0.00  0.00    +0.000 N 
ATOM      5  C   UNL     1      -0.810  13.822  19.635  0.00  0.00    +0.000 A 
ATOM      6  O   UNL     1      -1.260  14.912  19.986  0.00  0.00    +0.000 OA
ATOM      7  C   UNL     1       0.552  13.701  19.147  0.00  0.00    +0.000 A 
ATOM      8  C   UNL     1       1.586  14.711  19.045  0.00  0.00    +0.000 A 
ATOM      9  C   UNL     1       1.464  16.145  19.466  0.00  0.00    +0.000 C 
ATOM     10  C   UNL     1       2.744  14.174  18.496  0.00  0.00    +0.000 A 
ATOM     11  C   UNL     1       4.039  14.853  18.191  0.00  0.00    +0.000 C 
ATOM     12  S   UNL     1       2.583  12.505  18.155  0.00  0.00    +0.000 S 
ATOM     13  C   UNL     1       0.992  12.479  18.718  0.00  0.00    +0.000 A 
ENDROOT
BRANCH   4  14
ATOM     14  C   UNL     1      -2.857  12.668  20.237  0.00  0.00    +0.000 A 
ATOM     15  C   UNL     1      -2.984  12.735  21.636  0.00  0.00    +0.000 A 
ATOM     16  C   UNL     1      -4.241  12.674  22.244  0.00  0.00    +0.000 A 
ATOM     17  C   UNL     1      -5.384  12.577  21.458  0.00  0.00    +0.000 A 
ATOM     18 CL   UNL     1      -6.928  12.469  22.207  0.00  0.00    +0.000 Cl
ATOM     19  C   UNL     1      -5.283  12.551  20.069  0.00  0.00    +0.000 A 
ATOM     20  C   UNL     1      -4.023  12.589  19.461  0.00  0.00    +0.000 A 
ENDBRANCH   4  14
BRANCH   1  21
ATOM     21  C   UNL     1       0.699   9.993  18.263  0.00  0.00    +0.000 C 
BRANCH  21  23
ATOM     22  N   UNL     1       1.926   7.997  19.215  0.00  0.00    +0.000 N 
ATOM     23  C   UNL     1       1.219   9.173  19.459  0.00  0.00    +0.000 C 
ATOM     24  O   UNL     1       0.947   9.558  20.603  0.00  0.00    +0.000 OA
BRANCH  22  26
ATOM     25  C   UNL     1       1.454   6.154  20.977  0.00  0.00    +0.000 C 
ATOM     26  C   UNL     1       2.411   7.126  20.304  0.00  0.00    +0.000 C 
ENDBRANCH  22  26
BRANCH  22  27
ATOM     27  C   UNL     1       2.215   7.491  17.863  0.00  0.00    +0.000 C 
BRANCH  27  28
ATOM     28  C   UNL     1       2.806   6.097  17.796  0.00  0.00    +0.000 A 
ATOM     29  C   UNL     1       4.182   5.846  17.698  0.00  0.00    +0.000 A 
ATOM     30  C   UNL     1       4.661   4.544  17.534  0.00  0.00    +0.000 A 
ATOM     31  C   UNL     1       3.774   3.471  17.474  0.00  0.00    +0.000 A 
ATOM     32  C   UNL     1       2.408   3.697  17.610  0.00  0.00    +0.000 A 
ATOM     33  C   UNL     1       1.927   4.998  17.775  0.00  0.00    +0.000 A 
ENDBRANCH  27  28
ENDBRANCH  22  27
ENDBRANCH  21  23
ENDBRANCH   1  21
TORSDOF 6
ENDMDL
MODEL 5
REMARK VINA RESULT:      -6.8      3.820      9.109
REMARK  Name = 
REMARK  9 active torsions:
REMARK  status: ('A' for Active; 'I' for Inactive)
REMARK    1  A    between atoms: C_1  and  C_2
REMARK    2  A    between atoms: C_2  and  N_3
REMARK    3  A    between atoms: N_3  and  C_4
REMARK    4  A    between atoms: C_4  and  C_5
REMARK    5  A    between atoms: C_11  and  C_13
REMARK    6  A    between atoms: C_13  and  N_14
REMARK    7  A    between atoms: N_17  and  C_18
REMARK    8  A    between atoms: C_28  and  C_29
REMARK    9  A    between atoms: C_30  and  C_31
REMARK                            x       y       z     vdW  Elec       q    Type
REMARK                         _______ _______ _______ _____ _____    ______ ____
ROOT
ATOM      1  N   UNL     1       0.373  11.297  18.779  0.00  0.00    +0.000 N 
ATOM      2  C   UNL     1      -0.937  11.337  19.278  0.00  0.00    +0.000 A 
ATOM      3  O   UNL     1      -1.605  10.296  19.310  0.00  0.00    +0.000 OA
ATOM      4  N   UNL     1      -1.404  12.564  19.791  0.00  0.00    +0.000 N 
ATOM      5  C   UNL     1      -0.700  13.779  19.738  0.00  0.00    +0.000 A 
ATOM      6  O   UNL     1      -1.160  14.857  20.111  0.00  0.00    +0.000 OA
ATOM      7  C   UNL     1       0.634  13.695  19.172  0.00  0.00    +0.000 A 
ATOM      8  C   UNL     1       1.630  14.733  19.005  0.00  0.00    +0.000 A 
ATOM      9  C   UNL     1       1.491  16.166  19.426  0.00  0.00    +0.000 C 
ATOM     10  C   UNL     1       2.769  14.227  18.390  0.00  0.00    +0.000 A 
ATOM     11  C   UNL     1       4.024  14.942  18.006  0.00  0.00    +0.000 C 
ATOM     12  S   UNL     1       2.637  12.553  18.066  0.00  0.00    +0.000 S 
ATOM     13  C   UNL     1       1.084  12.483  18.722  0.00  0.00    +0.000 A 
ENDROOT
BRANCH   4  14
ATOM     14  C   UNL     1      -2.674  12.569  20.465  0.00  0.00    +0.000 A 
ATOM     15  C   UNL     1      -3.863  12.619  19.716  0.00  0.00    +0.000 A 
ATOM     16  C   UNL     1      -5.103  12.725  20.350  0.00  0.00    +0.000 A 
ATOM     17  C   UNL     1      -5.169  12.751  21.739  0.00  0.00    +0.000 A 
ATOM     18 CL   UNL     1      -6.693  12.914  22.519  0.00  0.00    +0.000 Cl
ATOM     19  C   UNL     1      -4.005  12.661  22.500  0.00  0.00    +0.000 A 
ATOM     20  C   UNL     1      -2.762  12.578  21.865  0.00  0.00    +0.000 A 
ENDBRANCH   4  14
BRANCH   1  21
ATOM     21  C   UNL     1       0.837   9.988  18.295  0.00  0.00    +0.000 C 
BRANCH  21  23
ATOM     22  N   UNL     1       1.921   7.900  19.225  0.00  0.00    +0.000 N 
ATOM     23  C   UNL     1       1.367   9.154  19.477  0.00  0.00    +0.000 C 
ATOM     24  O   UNL     1       1.237   9.604  20.623  0.00  0.00    +0.000 OA
BRANCH  22  26
ATOM     25  C   UNL     1       1.556   5.832  20.746  0.00  0.00    +0.000 C 
ATOM     26  C   UNL     1       2.402   7.017  20.306  0.00  0.00    +0.000 C 
ENDBRANCH  22  26
BRANCH  22  27
ATOM     27  C   UNL     1       2.037   7.323  17.877  0.00  0.00    +0.000 C 
BRANCH  27  28
ATOM     28  C   UNL     1       3.279   6.492  17.623  0.00  0.00    +0.000 A 
ATOM     29  C   UNL     1       4.534   7.049  17.331  0.00  0.00    +0.000 A 
ATOM     30  C   UNL     1       5.619   6.232  17.004  0.00  0.00    +0.000 A 
ATOM     31  C   UNL     1       5.472   4.847  16.970  0.00  0.00    +0.000 A 
ATOM     32  C   UNL     1       4.246   4.275  17.297  0.00  0.00    +0.000 A 
ATOM     33  C   UNL     1       3.159   5.090  17.625  0.00  0.00    +0.000 A 
ENDBRANCH  27  28
ENDBRANCH  22  27
ENDBRANCH  21  23
ENDBRANCH   1  21
TORSDOF 6
ENDMDL
MODEL 6
REMARK VINA RESULT:      -6.7      5.381     11.844
REMARK  Name = 
REMARK  9 active torsions:
REMARK  status: ('A' for Active; 'I' for Inactive)
REMARK    1  A    between atoms: C_1  and  C_2
REMARK    2  A    between atoms: C_2  and  N_3
REMARK    3  A    between atoms: N_3  and  C_4
REMARK    4  A    between atoms: C_4  and  C_5
REMARK    5  A    between atoms: C_11  and  C_13
REMARK    6  A    between atoms: C_13  and  N_14
REMARK    7  A    between atoms: N_17  and  C_18
REMARK    8  A    between atoms: C_28  and  C_29
REMARK    9  A    between atoms: C_30  and  C_31
REMARK                            x       y       z     vdW  Elec       q    Type
REMARK                         _______ _______ _______ _____ _____    ______ ____
ROOT
ATOM      1  N   UNL     1       3.161   6.647  17.867  0.00  0.00    +0.000 N 
ATOM      2  C   UNL     1       2.678   7.775  18.546  0.00  0.00    +0.000 A 
ATOM      3  O   UNL     1       2.921   8.903  18.098  0.00  0.00    +0.000 OA
ATOM      4  N   UNL     1       1.867   7.559  19.679  0.00  0.00    +0.000 N 
ATOM      5  C   UNL     1       1.598   6.302  20.247  0.00  0.00    +0.000 A 
ATOM      6  O   UNL     1       0.961   6.141  21.288  0.00  0.00    +0.000 OA
ATOM      7  C   UNL     1       2.158   5.169  19.534  0.00  0.00    +0.000 A 
ATOM      8  C   UNL     1       2.043   3.753  19.820  0.00  0.00    +0.000 A 
ATOM      9  C   UNL     1       1.266   3.141  20.946  0.00  0.00    +0.000 C 
ATOM     10  C   UNL     1       2.760   3.006  18.895  0.00  0.00    +0.000 A 
ATOM     11  C   UNL     1       2.937   1.524  18.821  0.00  0.00    +0.000 C 
ATOM     12  S   UNL     1       3.508   3.989  17.711  0.00  0.00    +0.000 S 
ATOM     13  C   UNL     1       2.904   5.401  18.410  0.00  0.00    +0.000 A 
ENDROOT
BRANCH   4  14
ATOM     14  C   UNL     1       1.223   8.700  20.270  0.00  0.00    +0.000 A 
ATOM     15  C   UNL     1       1.363   8.945  21.647  0.00  0.00    +0.000 A 
ATOM     16  C   UNL     1       0.667   9.989  22.261  0.00  0.00    +0.000 A 
ATOM     17  C   UNL     1      -0.151  10.817  21.499  0.00  0.00    +0.000 A 
ATOM     18 CL   UNL     1      -1.033  12.081  22.260  0.00  0.00    +0.000 Cl
ATOM     19  C   UNL     1      -0.271  10.615  20.126  0.00  0.00    +0.000 A 
ATOM     20  C   UNL     1       0.408   9.556  19.515  0.00  0.00    +0.000 A 
ENDBRANCH   4  14
BRANCH   1  21
ATOM     21  C   UNL     1       3.965   6.916  16.664  0.00  0.00    +0.000 C 
BRANCH  21  23
ATOM     22  N   UNL     1       6.120   5.612  16.434  0.00  0.00    +0.000 N 
ATOM     23  C   UNL     1       5.459   6.712  16.980  0.00  0.00    +0.000 C 
ATOM     24  O   UNL     1       6.014   7.504  17.751  0.00  0.00    +0.000 OA
BRANCH  22  26
ATOM     25  C   UNL     1       7.899   4.544  17.990  0.00  0.00    +0.000 C 
ATOM     26  C   UNL     1       7.536   5.316  16.730  0.00  0.00    +0.000 C 
ENDBRANCH  22  26
BRANCH  22  27
ATOM     27  C   UNL     1       5.467   4.628  15.557  0.00  0.00    +0.000 C 
BRANCH  27  28
ATOM     28  C   UNL     1       6.125   4.410  14.209  0.00  0.00    +0.000 A 
ATOM     29  C   UNL     1       7.233   5.147  13.763  0.00  0.00    +0.000 A 
ATOM     30  C   UNL     1       7.731   4.974  12.470  0.00  0.00    +0.000 A 
ATOM     31  C   UNL     1       7.139   4.057  11.604  0.00  0.00    +0.000 A 
ATOM     32  C   UNL     1       6.066   3.288  12.044  0.00  0.00    +0.000 A 
ATOM     33  C   UNL     1       5.565   3.458  13.337  0.00  0.00    +0.000 A 
ENDBRANCH  27  28
ENDBRANCH  22  27
ENDBRANCH  21  23
ENDBRANCH   1  21
TORSDOF 6
ENDMDL
MODEL 7
REMARK VINA RESULT:      -6.6      3.423      8.263
REMARK  Name = 
REMARK  9 active torsions:
REMARK  status: ('A' for Active; 'I' for Inactive)
REMARK    1  A    between atoms: C_1  and  C_2
REMARK    2  A    between atoms: C_2  and  N_3
REMARK    3  A    between atoms: N_3  and  C_4
REMARK    4  A    between atoms: C_4  and  C_5
REMARK    5  A    between atoms: C_11  and  C_13
REMARK    6  A    between atoms: C_13  and  N_14
REMARK    7  A    between atoms: N_17  and  C_18
REMARK    8  A    between atoms: C_28  and  C_29
REMARK    9  A    between atoms: C_30  and  C_31
REMARK                            x       y       z     vdW  Elec       q    Type
REMARK                         _______ _______ _______ _____ _____    ______ ____
ROOT
ATOM      1  N   UNL     1      -1.686  11.300  20.048  0.00  0.00    +0.000 N 
ATOM      2  C   UNL     1      -2.134  12.097  21.112  0.00  0.00    +0.000 A 
ATOM      3  O   UNL     1      -1.455  12.166  22.145  0.00  0.00    +0.000 OA
ATOM      4  N   UNL     1      -3.313  12.844  20.918  0.00  0.00    +0.000 N 
ATOM      5  C   UNL     1      -4.137  12.767  19.783  0.00  0.00    +0.000 A 
ATOM      6  O   UNL     1      -5.209  13.361  19.670  0.00  0.00    +0.000 OA
ATOM      7  C   UNL     1      -3.655  11.895  18.728  0.00  0.00    +0.000 A 
ATOM      8  C   UNL     1      -4.230  11.619  17.427  0.00  0.00    +0.000 A 
ATOM      9  C   UNL     1      -5.483  12.223  16.869  0.00  0.00    +0.000 C 
ATOM     10  C   UNL     1      -3.455  10.697  16.734  0.00  0.00    +0.000 A 
ATOM     11  C   UNL     1      -3.682  10.112  15.378  0.00  0.00    +0.000 C 
ATOM     12  S   UNL     1      -2.070  10.222  17.619  0.00  0.00    +0.000 S 
ATOM     13  C   UNL     1      -2.483  11.215  18.920  0.00  0.00    +0.000 A 
ENDROOT
BRANCH   4  14
ATOM     14  C   UNL     1      -3.678  13.796  21.932  0.00  0.00    +0.000 A 
ATOM     15  C   UNL     1      -4.584  13.429  22.942  0.00  0.00    +0.000 A 
ATOM     16  C   UNL     1      -5.029  14.366  23.878  0.00  0.00    +0.000 A 
ATOM     17  C   UNL     1      -4.548  15.670  23.833  0.00  0.00    +0.000 A 
ATOM     18 CL   UNL     1      -5.120  16.830  24.965  0.00  0.00    +0.000 Cl
ATOM     19  C   UNL     1      -3.619  16.043  22.865  0.00  0.00    +0.000 A 
ATOM     20  C   UNL     1      -3.191  15.111  21.913  0.00  0.00    +0.000 A 
ENDBRANCH   4  14
BRANCH   1  21
ATOM     21  C   UNL     1      -0.428  10.572  20.275  0.00  0.00    +0.000 C 
BRANCH  21  23
ATOM     22  N   UNL     1       1.465  10.901  18.630  0.00  0.00    +0.000 N 
ATOM     23  C   UNL     1       0.754  11.392  19.724  0.00  0.00    +0.000 C 
ATOM     24  O   UNL     1       1.069  12.438  20.304  0.00  0.00    +0.000 OA
BRANCH  22  26
ATOM     25  C   UNL     1       2.623  13.113  17.929  0.00  0.00    +0.000 C 
ATOM     26  C   UNL     1       2.642  11.599  18.075  0.00  0.00    +0.000 C 
ENDBRANCH  22  26
BRANCH  22  27
ATOM     27  C   UNL     1       1.141   9.633  17.956  0.00  0.00    +0.000 C 
BRANCH  27  28
ATOM     28  C   UNL     1       2.027   8.456  18.312  0.00  0.00    +0.000 A 
ATOM     29  C   UNL     1       3.016   7.948  17.456  0.00  0.00    +0.000 A 
ATOM     30  C   UNL     1       3.730   6.796  17.795  0.00  0.00    +0.000 A 
ATOM     31  C   UNL     1       3.475   6.138  18.996  0.00  0.00    +0.000 A 
ATOM     32  C   UNL     1       2.527   6.651  19.876  0.00  0.00    +0.000 A 
ATOM     33  C   UNL     1       1.812   7.803  19.540  0.00  0.00    +0.000 A 
ENDBRANCH  27  28
ENDBRANCH  22  27
ENDBRANCH  21  23
ENDBRANCH   1  21
TORSDOF 6
ENDMDL
MODEL 8
REMARK VINA RESULT:      -6.6      5.381      6.344
REMARK  Name = 
REMARK  9 active torsions:
REMARK  status: ('A' for Active; 'I' for Inactive)
REMARK    1  A    between atoms: C_1  and  C_2
REMARK    2  A    between atoms: C_2  and  N_3
REMARK    3  A    between atoms: N_3  and  C_4
REMARK    4  A    between atoms: C_4  and  C_5
REMARK    5  A    between atoms: C_11  and  C_13
REMARK    6  A    between atoms: C_13  and  N_14
REMARK    7  A    between atoms: N_17  and  C_18
REMARK    8  A    between atoms: C_28  and  C_29
REMARK    9  A    between atoms: C_30  and  C_31
REMARK                            x       y       z     vdW  Elec       q    Type
REMARK                         _______ _______ _______ _____ _____    ______ ____
ROOT
ATOM      1  N   UNL     1       1.675  15.323  20.396  0.00  0.00    +0.000 N 
ATOM      2  C   UNL     1       3.056  15.220  20.176  0.00  0.00    +0.000 A 
ATOM      3  O   UNL     1       3.732  14.481  20.905  0.00  0.00    +0.000 OA
ATOM      4  N   UNL     1       3.598  15.916  19.077  0.00  0.00    +0.000 N 
ATOM      5  C   UNL     1       2.881  16.797  18.250  0.00  0.00    +0.000 A 
ATOM      6  O   UNL     1       3.391  17.464  17.350  0.00  0.00    +0.000 OA
ATOM      7  C   UNL     1       1.464  16.905  18.544  0.00  0.00    +0.000 A 
ATOM      8  C   UNL     1       0.441  17.681  17.874  0.00  0.00    +0.000 A 
ATOM      9  C   UNL     1       0.640  18.549  16.668  0.00  0.00    +0.000 C 
ATOM     10  C   UNL     1      -0.789  17.517  18.500  0.00  0.00    +0.000 A 
ATOM     11  C   UNL     1      -2.103  18.141  18.163  0.00  0.00    +0.000 C 
ATOM     12  S   UNL     1      -0.701  16.436  19.823  0.00  0.00    +0.000 S 
ATOM     13  C   UNL     1       0.952  16.183  19.589  0.00  0.00    +0.000 A 
ENDROOT
BRANCH   4  14
ATOM     14  C   UNL     1       4.974  15.672  18.741  0.00  0.00    +0.000 A 
ATOM     15  C   UNL     1       5.305  14.612  17.878  0.00  0.00    +0.000 A 
ATOM     16  C   UNL     1       6.641  14.294  17.617  0.00  0.00    +0.000 A 
ATOM     17  C   UNL     1       7.656  15.052  18.190  0.00  0.00    +0.000 A 
ATOM     18 CL   UNL     1       9.299  14.640  17.894  0.00  0.00    +0.000 Cl
ATOM     19  C   UNL     1       7.349  16.131  19.015  0.00  0.00    +0.000 A 
ATOM     20  C   UNL     1       6.012  16.435  19.295  0.00  0.00    +0.000 A 
ENDBRANCH   4  14
BRANCH   1  21
ATOM     21  C   UNL     1       1.143  14.545  21.525  0.00  0.00    +0.000 C 
BRANCH  21  23
ATOM     22  N   UNL     1      -0.327  12.501  21.763  0.00  0.00    +0.000 N 
ATOM     23  C   UNL     1       0.644  13.176  21.025  0.00  0.00    +0.000 C 
ATOM     24  O   UNL     1       1.160  12.694  20.009  0.00  0.00    +0.000 OA
BRANCH  22  26
ATOM     25  C   UNL     1      -0.516   9.965  22.270  0.00  0.00    +0.000 C 
ATOM     26  C   UNL     1      -0.819  11.162  21.381  0.00  0.00    +0.000 C 
ENDBRANCH  22  26
BRANCH  22  27
ATOM     27  C   UNL     1      -0.916  13.030  23.003  0.00  0.00    +0.000 C 
BRANCH  27  28
ATOM     28  C   UNL     1      -2.393  13.362  22.939  0.00  0.00    +0.000 A 
ATOM     29  C   UNL     1      -2.908  14.454  22.224  0.00  0.00    +0.000 A 
ATOM     30  C   UNL     1      -4.268  14.771  22.287  0.00  0.00    +0.000 A 
ATOM     31  C   UNL     1      -5.135  14.000  23.057  0.00  0.00    +0.000 A 
ATOM     32  C   UNL     1      -4.649  12.888  23.739  0.00  0.00    +0.000 A 
ATOM     33  C   UNL     1      -3.290  12.569  23.678  0.00  0.00    +0.000 A 
ENDBRANCH  27  28
ENDBRANCH  22  27
ENDBRANCH  21  23
ENDBRANCH   1  21
TORSDOF 6
ENDMDL
MODEL 9
REMARK VINA RESULT:      -6.6      2.436      4.224
REMARK  Name = 
REMARK  9 active torsions:
REMARK  status: ('A' for Active; 'I' for Inactive)
REMARK    1  A    between atoms: C_1  and  C_2
REMARK    2  A    between atoms: C_2  and  N_3
REMARK    3  A    between atoms: N_3  and  C_4
REMARK    4  A    between atoms: C_4  and  C_5
REMARK    5  A    between atoms: C_11  and  C_13
REMARK    6  A    between atoms: C_13  and  N_14
REMARK    7  A    between atoms: N_17  and  C_18
REMARK    8  A    between atoms: C_28  and  C_29
REMARK    9  A    between atoms: C_30  and  C_31
REMARK                            x       y       z     vdW  Elec       q    Type
REMARK                         _______ _______ _______ _____ _____    ______ ____
ROOT
ATOM      1  N   UNL     1      -1.052  12.404  20.432  0.00  0.00    +0.000 N 
ATOM      2  C   UNL     1      -0.472  11.138  20.270  0.00  0.00    +0.000 A 
ATOM      3  O   UNL     1      -1.064  10.140  20.703  0.00  0.00    +0.000 OA
ATOM      4  N   UNL     1       0.736  11.059  19.549  0.00  0.00    +0.000 N 
ATOM      5  C   UNL     1       1.464  12.164  19.075  0.00  0.00    +0.000 A 
ATOM      6  O   UNL     1       2.561  12.080  18.525  0.00  0.00    +0.000 OA
ATOM      7  C   UNL     1       0.844  13.456  19.307  0.00  0.00    +0.000 A 
ATOM      8  C   UNL     1       1.299  14.776  18.921  0.00  0.00    +0.000 A 
ATOM      9  C   UNL     1       2.543  15.091  18.147  0.00  0.00    +0.000 C 
ATOM     10  C   UNL     1       0.413  15.750  19.367  0.00  0.00    +0.000 A 
ATOM     11  C   UNL     1       0.496  17.234  19.216  0.00  0.00    +0.000 C 
ATOM     12  S   UNL     1      -0.929  15.075  20.187  0.00  0.00    +0.000 S 
ATOM     13  C   UNL     1      -0.352  13.504  19.970  0.00  0.00    +0.000 A 
ENDROOT
BRANCH   4  14
ATOM     14  C   UNL     1       1.240   9.752  19.225  0.00  0.00    +0.000 A 
ATOM     15  C   UNL     1       1.481   8.822  20.251  0.00  0.00    +0.000 A 
ATOM     16  C   UNL     1       2.063   7.583  19.971  0.00  0.00    +0.000 A 
ATOM     17  C   UNL     1       2.381   7.250  18.659  0.00  0.00    +0.000 A 
ATOM     18 CL   UNL     1       3.127   5.739  18.318  0.00  0.00    +0.000 Cl
ATOM     19  C   UNL     1       2.113   8.142  17.622  0.00  0.00    +0.000 A 
ATOM     20  C   UNL     1       1.551   9.391  17.906  0.00  0.00    +0.000 A 
ENDBRANCH   4  14
BRANCH   1  21
ATOM     21  C   UNL     1      -2.335  12.436  21.152  0.00  0.00    +0.000 C 
BRANCH  21  23
ATOM     22  N   UNL     1      -2.989  13.831  23.158  0.00  0.00    +0.000 N 
ATOM     23  C   UNL     1      -2.108  12.905  22.601  0.00  0.00    +0.000 C 
ATOM     24  O   UNL     1      -1.117  12.483  23.211  0.00  0.00    +0.000 OA
BRANCH  22  26
ATOM     25  C   UNL     1      -3.330  15.761  24.856  0.00  0.00    +0.000 C 
ATOM     26  C   UNL     1      -2.811  14.371  24.521  0.00  0.00    +0.000 C 
ENDBRANCH  22  26
BRANCH  22  27
ATOM     27  C   UNL     1      -4.143  14.388  22.434  0.00  0.00    +0.000 C 
BRANCH  27  28
ATOM     28  C   UNL     1      -5.443  13.624  22.584  0.00  0.00    +0.000 A 
ATOM     29  C   UNL     1      -6.099  13.452  23.812  0.00  0.00    +0.000 A 
ATOM     30  C   UNL     1      -7.239  12.650  23.906  0.00  0.00    +0.000 A 
ATOM     31  C   UNL     1      -7.748  12.015  22.775  0.00  0.00    +0.000 A 
ATOM     32  C   UNL     1      -7.134  12.208  21.541  0.00  0.00    +0.000 A 
ATOM     33  C   UNL     1      -5.994  13.009  21.444  0.00  0.00    +0.000 A 
ENDBRANCH  27  28
ENDBRANCH  22  27
ENDBRANCH  21  23
ENDBRANCH   1  21
TORSDOF 6
ENDMDL
