MODEL 1
REMARK VINA RESULT:      -7.1      0.000      0.000
REMARK  Name = 
REMARK  5 active torsions:
REMARK  status: ('A' for Active; 'I' for Inactive)
REMARK    1  A    between atoms: P_2  and  O_3
REMARK    2  A    between atoms: P_2  and  O_4
REMARK    3  A    between atoms: P_2  and  C_5
REMARK    4  A    between atoms: C_5  and  C_6
REMARK    5  A    between atoms: C_8  and  C_9
REMARK                            x       y       z     vdW  Elec       q    Type
REMARK                         _______ _______ _______ _____ _____    ______ ____
ROOT
ATOM      1  C   UNL     1       4.562   5.075  17.102  0.00  0.00    +0.000 A 
ATOM      2  C   UNL     1       4.013   6.288  17.517  0.00  0.00    +0.000 A 
ATOM      3  C   UNL     1       2.723   6.331  18.069  0.00  0.00    +0.000 A 
ATOM      4  C   UNL     1       2.017   5.124  18.103  0.00  0.00    +0.000 A 
ATOM      5  C   UNL     1       2.616   3.966  17.631  0.00  0.00    +0.000 A 
ATOM      6  N   UNL     1       3.875   3.913  17.152  0.00  0.00    +0.000 NA
ENDROOT
BRANCH   3   7
ATOM      7  C   UNL     1       2.173   7.583  18.639  0.00  0.00    +0.000 A 
ATOM      8  C   UNL     1       1.791   7.685  19.988  0.00  0.00    +0.000 A 
ATOM      9  C   UNL     1       1.227   8.856  20.503  0.00  0.00    +0.000 A 
ATOM     10  C   UNL     1       1.042   9.962  19.678  0.00  0.00    +0.000 A 
ATOM     11  C   UNL     1       1.417   9.895  18.339  0.00  0.00    +0.000 A 
ATOM     12  C   UNL     1       1.969   8.716  17.827  0.00  0.00    +0.000 A 
ENDBRANCH   3   7
BRANCH   1  13
ATOM     13  C   UNL     1       6.006   5.000  16.680  0.00  0.00    +0.000 C 
BRANCH  13  15
ATOM     14  O   UNL     1       8.070   5.234  19.344  0.00  0.00    +0.000 OA
ATOM     15  P   UNL     1       7.123   5.127  18.124  0.00  0.00    +0.000 P 
BRANCH  15  16
ATOM     16  O   UNL     1       8.179   4.115  17.365  0.00  0.00    +0.000 OA
ATOM     17  H   UNL     1       7.985   4.179  16.406  0.00  0.00    +0.000 HD
ENDBRANCH  15  16
BRANCH  15  18
ATOM     18  O   UNL     1       6.249   3.931  18.840  0.00  0.00    +0.000 OA
ATOM     19  H   UNL     1       6.619   3.796  19.736  0.00  0.00    +0.000 HD
ENDBRANCH  15  18
ENDBRANCH  13  15
ENDBRANCH   1  13
TORSDOF 5
ENDMDL
MODEL 2
REMARK VINA RESULT:      -7.1      0.175      1.177
REMARK  Name = 
REMARK  5 active torsions:
REMARK  status: ('A' for Active; 'I' for Inactive)
REMARK    1  A    between atoms: P_2  and  O_3
REMARK    2  A    between atoms: P_2  and  O_4
REMARK    3  A    between atoms: P_2  and  C_5
REMARK    4  A    between atoms: C_5  and  C_6
REMARK    5  A    between atoms: C_8  and  C_9
REMARK                            x       y       z     vdW  Elec       q    Type
REMARK                         _______ _______ _______ _____ _____    ______ ____
ROOT
ATOM      1  C   UNL     1       4.630   5.040  17.029  0.00  0.00    +0.000 A 
ATOM      2  C   UNL     1       4.038   6.218  17.484  0.00  0.00    +0.000 A 
ATOM      3  C   UNL     1       2.739   6.200  18.015  0.00  0.00    +0.000 A 
ATOM      4  C   UNL     1       2.069   4.971  17.989  0.00  0.00    +0.000 A 
ATOM      5  C   UNL     1       2.710   3.853  17.479  0.00  0.00    +0.000 A 
ATOM      6  N   UNL     1       3.978   3.857  17.020  0.00  0.00    +0.000 NA
ENDROOT
BRANCH   3   7
ATOM      7  C   UNL     1       2.142   7.410  18.627  0.00  0.00    +0.000 A 
ATOM      8  C   UNL     1       1.861   8.565  17.875  0.00  0.00    +0.000 A 
ATOM      9  C   UNL     1       1.344   9.718  18.473  0.00  0.00    +0.000 A 
ATOM     10  C   UNL     1       1.084   9.739  19.840  0.00  0.00    +0.000 A 
ATOM     11  C   UNL     1       1.345   8.609  20.610  0.00  0.00    +0.000 A 
ATOM     12  C   UNL     1       1.874   7.462  20.008  0.00  0.00    +0.000 A 
ENDBRANCH   3   7
BRANCH   1  13
ATOM     13  C   UNL     1       6.082   5.025  16.629  0.00  0.00    +0.000 C 
BRANCH  13  15
ATOM     14  O   UNL     1       8.096   5.196  19.336  0.00  0.00    +0.000 OA
ATOM     15  P   UNL     1       7.173   5.118  18.095  0.00  0.00    +0.000 P 
BRANCH  15  16
ATOM     16  O   UNL     1       8.223   4.092  17.349  0.00  0.00    +0.000 OA
ATOM     17  H   UNL     1       8.967   4.643  17.026  0.00  0.00    +0.000 HD
ENDBRANCH  15  16
BRANCH  15  18
ATOM     18  O   UNL     1       6.261   3.934  18.784  0.00  0.00    +0.000 OA
ATOM     19  H   UNL     1       5.466   3.816  18.226  0.00  0.00    +0.000 HD
ENDBRANCH  15  18
ENDBRANCH  13  15
ENDBRANCH   1  13
TORSDOF 5
ENDMDL
MODEL 3
REMARK VINA RESULT:      -7.0      2.317      3.838
REMARK  Name = 
REMARK  5 active torsions:
REMARK  status: ('A' for Active; 'I' for Inactive)
REMARK    1  A    between atoms: P_2  and  O_3
REMARK    2  A    between atoms: P_2  and  O_4
REMARK    3  A    between atoms: P_2  and  C_5
REMARK    4  A    between atoms: C_5  and  C_6
REMARK    5  A    between atoms: C_8  and  C_9
REMARK                            x       y       z     vdW  Elec       q    Type
REMARK                         _______ _______ _______ _____ _____    ______ ____
ROOT
ATOM      1  C   UNL     1       4.469   6.259  16.860  0.00  0.00    +0.000 A 
ATOM      2  C   UNL     1       3.964   5.317  17.756  0.00  0.00    +0.000 A 
ATOM      3  C   UNL     1       2.958   5.673  18.668  0.00  0.00    +0.000 A 
ATOM      4  C   UNL     1       2.562   7.015  18.669  0.00  0.00    +0.000 A 
ATOM      5  C   UNL     1       3.144   7.902  17.777  0.00  0.00    +0.000 A 
ATOM      6  N   UNL     1       4.070   7.549  16.862  0.00  0.00    +0.000 NA
ENDROOT
BRANCH   3   7
ATOM      7  C   UNL     1       2.313   4.659  19.534  0.00  0.00    +0.000 A 
ATOM      8  C   UNL     1       2.646   4.518  20.893  0.00  0.00    +0.000 A 
ATOM      9  C   UNL     1       2.067   3.524  21.689  0.00  0.00    +0.000 A 
ATOM     10  C   UNL     1       1.127   2.654  21.143  0.00  0.00    +0.000 A 
ATOM     11  C   UNL     1       0.771   2.774  19.803  0.00  0.00    +0.000 A 
ATOM     12  C   UNL     1       1.364   3.761  19.010  0.00  0.00    +0.000 A 
ENDBRANCH   3   7
BRANCH   1  13
ATOM     13  C   UNL     1       5.413   5.836  15.765  0.00  0.00    +0.000 C 
BRANCH  13  15
ATOM     14  O   UNL     1       8.098   4.218  17.026  0.00  0.00    +0.000 OA
ATOM     15  P   UNL     1       6.867   4.959  16.448  0.00  0.00    +0.000 P 
BRANCH  15  16
ATOM     16  O   UNL     1       7.703   5.327  15.078  0.00  0.00    +0.000 OA
ATOM     17  H   UNL     1       7.391   6.212  14.791  0.00  0.00    +0.000 HD
ENDBRANCH  15  16
BRANCH  15  18
ATOM     18  O   UNL     1       6.229   3.558  15.870  0.00  0.00    +0.000 OA
ATOM     19  H   UNL     1       6.964   3.039  15.486  0.00  0.00    +0.000 HD
ENDBRANCH  15  18
ENDBRANCH  13  15
ENDBRANCH   1  13
TORSDOF 5
ENDMDL
MODEL 4
REMARK VINA RESULT:      -6.9      2.307      4.005
REMARK  Name = 
REMARK  5 active torsions:
REMARK  status: ('A' for Active; 'I' for Inactive)
REMARK    1  A    between atoms: P_2  and  O_3
REMARK    2  A    between atoms: P_2  and  O_4
REMARK    3  A    between atoms: P_2  and  C_5
REMARK    4  A    between atoms: C_5  and  C_6
REMARK    5  A    between atoms: C_8  and  C_9
REMARK                            x       y       z     vdW  Elec       q    Type
REMARK                         _______ _______ _______ _____ _____    ______ ____
ROOT
ATOM      1  C   UNL     1       4.489   6.344  16.784  0.00  0.00    +0.000 A 
ATOM      2  C   UNL     1       4.006   5.368  17.655  0.00  0.00    +0.000 A 
ATOM      3  C   UNL     1       2.996   5.678  18.579  0.00  0.00    +0.000 A 
ATOM      4  C   UNL     1       2.573   7.012  18.618  0.00  0.00    +0.000 A 
ATOM      5  C   UNL     1       3.134   7.934  17.749  0.00  0.00    +0.000 A 
ATOM      6  N   UNL     1       4.064   7.626  16.823  0.00  0.00    +0.000 NA
ENDROOT
BRANCH   3   7
ATOM      7  C   UNL     1       2.375   4.628  19.419  0.00  0.00    +0.000 A 
ATOM      8  C   UNL     1       1.489   3.674  18.887  0.00  0.00    +0.000 A 
ATOM      9  C   UNL     1       0.870   2.719  19.700  0.00  0.00    +0.000 A 
ATOM     10  C   UNL     1       1.134   2.688  21.066  0.00  0.00    +0.000 A 
ATOM     11  C   UNL     1       2.012   3.615  21.620  0.00  0.00    +0.000 A 
ATOM     12  C   UNL     1       2.618   4.576  20.805  0.00  0.00    +0.000 A 
ENDBRANCH   3   7
BRANCH   1  13
ATOM     13  C   UNL     1       5.438   5.971  15.676  0.00  0.00    +0.000 C 
BRANCH  13  15
ATOM     14  O   UNL     1       8.100   4.269  16.872  0.00  0.00    +0.000 OA
ATOM     15  P   UNL     1       6.880   5.049  16.323  0.00  0.00    +0.000 P 
BRANCH  15  16
ATOM     16  O   UNL     1       7.515   6.469  16.866  0.00  0.00    +0.000 OA
ATOM     17  H   UNL     1       8.426   6.269  17.167  0.00  0.00    +0.000 HD
ENDBRANCH  15  16
BRANCH  15  18
ATOM     18  O   UNL     1       7.549   5.143  14.823  0.00  0.00    +0.000 OA
ATOM     19  H   UNL     1       8.410   4.680  14.857  0.00  0.00    +0.000 HD
ENDBRANCH  15  18
ENDBRANCH  13  15
ENDBRANCH   1  13
TORSDOF 5
ENDMDL
MODEL 5
REMARK VINA RESULT:      -6.9      1.152      1.512
REMARK  Name = 
REMARK  5 active torsions:
REMARK  status: ('A' for Active; 'I' for Inactive)
REMARK    1  A    between atoms: P_2  and  O_3
REMARK    2  A    between atoms: P_2  and  O_4
REMARK    3  A    between atoms: P_2  and  C_5
REMARK    4  A    between atoms: C_5  and  C_6
REMARK    5  A    between atoms: C_8  and  C_9
REMARK                            x       y       z     vdW  Elec       q    Type
REMARK                         _______ _______ _______ _____ _____    ______ ____
ROOT
ATOM      1  C   UNL     1       4.635   4.739  18.297  0.00  0.00    +0.000 A 
ATOM      2  C   UNL     1       4.098   6.017  18.441  0.00  0.00    +0.000 A 
ATOM      3  C   UNL     1       2.711   6.194  18.568  0.00  0.00    +0.000 A 
ATOM      4  C   UNL     1       1.923   5.042  18.466  0.00  0.00    +0.000 A 
ATOM      5  C   UNL     1       2.530   3.810  18.278  0.00  0.00    +0.000 A 
ATOM      6  N   UNL     1       3.865   3.633  18.213  0.00  0.00    +0.000 NA
ENDROOT
BRANCH   3   7
ATOM      7  C   UNL     1       2.129   7.525  18.857  0.00  0.00    +0.000 A 
ATOM      8  C   UNL     1       1.664   7.875  20.137  0.00  0.00    +0.000 A 
ATOM      9  C   UNL     1       1.071   9.116  20.386  0.00  0.00    +0.000 A 
ATOM     10  C   UNL     1       0.941  10.046  19.358  0.00  0.00    +0.000 A 
ATOM     11  C   UNL     1       1.399   9.732  18.082  0.00  0.00    +0.000 A 
ATOM     12  C   UNL     1       1.979   8.483  17.836  0.00  0.00    +0.000 A 
ENDBRANCH   3   7
BRANCH   1  13
ATOM     13  C   UNL     1       6.127   4.533  18.343  0.00  0.00    +0.000 C 
BRANCH  13  15
ATOM     14  O   UNL     1       7.551   5.268  15.369  0.00  0.00    +0.000 OA
ATOM     15  P   UNL     1       6.899   4.931  16.732  0.00  0.00    +0.000 P 
BRANCH  15  16
ATOM     16  O   UNL     1       6.111   3.649  16.064  0.00  0.00    +0.000 OA
ATOM     17  H   UNL     1       6.793   3.106  15.615  0.00  0.00    +0.000 HD
ENDBRANCH  15  16
BRANCH  15  18
ATOM     18  O   UNL     1       8.218   4.072  17.210  0.00  0.00    +0.000 OA
ATOM     19  H   UNL     1       7.900   3.344  17.782  0.00  0.00    +0.000 HD
ENDBRANCH  15  18
ENDBRANCH  13  15
ENDBRANCH   1  13
TORSDOF 5
ENDMDL
MODEL 6
REMARK VINA RESULT:      -6.8      1.091      1.872
REMARK  Name = 
REMARK  5 active torsions:
REMARK  status: ('A' for Active; 'I' for Inactive)
REMARK    1  A    between atoms: P_2  and  O_3
REMARK    2  A    between atoms: P_2  and  O_4
REMARK    3  A    between atoms: P_2  and  C_5
REMARK    4  A    between atoms: C_5  and  C_6
REMARK    5  A    between atoms: C_8  and  C_9
REMARK                            x       y       z     vdW  Elec       q    Type
REMARK                         _______ _______ _______ _____ _____    ______ ____
ROOT
ATOM      1  C   UNL     1       4.598   4.723  18.088  0.00  0.00    +0.000 A 
ATOM      2  C   UNL     1       4.068   5.994  18.308  0.00  0.00    +0.000 A 
ATOM      3  C   UNL     1       2.678   6.183  18.360  0.00  0.00    +0.000 A 
ATOM      4  C   UNL     1       1.884   5.059  18.109  0.00  0.00    +0.000 A 
ATOM      5  C   UNL     1       2.488   3.837  17.855  0.00  0.00    +0.000 A 
ATOM      6  N   UNL     1       3.822   3.642  17.860  0.00  0.00    +0.000 NA
ENDROOT
BRANCH   3   7
ATOM      7  C   UNL     1       2.095   7.495  18.725  0.00  0.00    +0.000 A 
ATOM      8  C   UNL     1       1.952   8.535  17.789  0.00  0.00    +0.000 A 
ATOM      9  C   UNL     1       1.446   9.786  18.157  0.00  0.00    +0.000 A 
ATOM     10  C   UNL     1       1.059  10.022  19.472  0.00  0.00    +0.000 A 
ATOM     11  C   UNL     1       1.181   9.010  20.421  0.00  0.00    +0.000 A 
ATOM     12  C   UNL     1       1.700   7.765  20.049  0.00  0.00    +0.000 A 
ENDBRANCH   3   7
BRANCH   1  13
ATOM     13  C   UNL     1       6.081   4.487  18.211  0.00  0.00    +0.000 C 
BRANCH  13  15
ATOM     14  O   UNL     1       7.680   5.249  15.334  0.00  0.00    +0.000 OA
ATOM     15  P   UNL     1       6.948   4.900  16.653  0.00  0.00    +0.000 P 
BRANCH  15  16
ATOM     16  O   UNL     1       6.238   3.596  15.941  0.00  0.00    +0.000 OA
ATOM     17  H   UNL     1       6.043   3.856  15.016  0.00  0.00    +0.000 HD
ENDBRANCH  15  16
BRANCH  15  18
ATOM     18  O   UNL     1       8.253   4.076  17.221  0.00  0.00    +0.000 OA
ATOM     19  H   UNL     1       7.972   3.609  18.035  0.00  0.00    +0.000 HD
ENDBRANCH  15  18
ENDBRANCH  13  15
ENDBRANCH   1  13
TORSDOF 5
ENDMDL
MODEL 7
REMARK VINA RESULT:      -6.8      3.312      6.168
REMARK  Name = 
REMARK  5 active torsions:
REMARK  status: ('A' for Active; 'I' for Inactive)
REMARK    1  A    between atoms: P_2  and  O_3
REMARK    2  A    between atoms: P_2  and  O_4
REMARK    3  A    between atoms: P_2  and  C_5
REMARK    4  A    between atoms: C_5  and  C_6
REMARK    5  A    between atoms: C_8  and  C_9
REMARK                            x       y       z     vdW  Elec       q    Type
REMARK                         _______ _______ _______ _____ _____    ______ ____
ROOT
ATOM      1  C   UNL     1       3.929   4.361  17.617  0.00  0.00    +0.000 A 
ATOM      2  C   UNL     1       4.443   4.068  16.355  0.00  0.00    +0.000 A 
ATOM      3  C   UNL     1       5.309   4.968  15.715  0.00  0.00    +0.000 A 
ATOM      4  C   UNL     1       5.554   6.177  16.375  0.00  0.00    +0.000 A 
ATOM      5  C   UNL     1       4.970   6.413  17.610  0.00  0.00    +0.000 A 
ATOM      6  N   UNL     1       4.183   5.526  18.252  0.00  0.00    +0.000 NA
ENDROOT
BRANCH   3   7
ATOM      7  C   UNL     1       5.972   4.618  14.437  0.00  0.00    +0.000 A 
ATOM      8  C   UNL     1       7.191   5.201  14.044  0.00  0.00    +0.000 A 
ATOM      9  C   UNL     1       7.782   4.901  12.813  0.00  0.00    +0.000 A 
ATOM     10  C   UNL     1       7.171   3.998  11.948  0.00  0.00    +0.000 A 
ATOM     11  C   UNL     1       5.969   3.398  12.312  0.00  0.00    +0.000 A 
ATOM     12  C   UNL     1       5.376   3.713  13.539  0.00  0.00    +0.000 A 
ENDBRANCH   3   7
BRANCH   1  13
ATOM     13  C   UNL     1       3.148   3.323  18.380  0.00  0.00    +0.000 C 
BRANCH  13  15
ATOM     14  O   UNL     1       5.084   1.796  20.690  0.00  0.00    +0.000 OA
ATOM     15  P   UNL     1       4.197   2.495  19.631  0.00  0.00    +0.000 P 
BRANCH  15  16
ATOM     16  O   UNL     1       5.524   3.186  18.941  0.00  0.00    +0.000 OA
ATOM     17  H   UNL     1       5.314   4.138  18.828  0.00  0.00    +0.000 HD
ENDBRANCH  15  16
BRANCH  15  18
ATOM     18  O   UNL     1       4.200   1.160  18.670  0.00  0.00    +0.000 OA
ATOM     19  H   UNL     1       3.501   0.560  19.002  0.00  0.00    +0.000 HD
ENDBRANCH  15  18
ENDBRANCH  13  15
ENDBRANCH   1  13
TORSDOF 5
ENDMDL
MODEL 8
REMARK VINA RESULT:      -6.8      1.738      2.488
REMARK  Name = 
REMARK  5 active torsions:
REMARK  status: ('A' for Active; 'I' for Inactive)
REMARK    1  A    between atoms: P_2  and  O_3
REMARK    2  A    between atoms: P_2  and  O_4
REMARK    3  A    between atoms: P_2  and  C_5
REMARK    4  A    between atoms: C_5  and  C_6
REMARK    5  A    between atoms: C_8  and  C_9
REMARK                            x       y       z     vdW  Elec       q    Type
REMARK                         _______ _______ _______ _____ _____    ______ ____
ROOT
ATOM      1  C   UNL     1       3.633   4.482  17.911  0.00  0.00    +0.000 A 
ATOM      2  C   UNL     1       2.897   5.489  18.533  0.00  0.00    +0.000 A 
ATOM      3  C   UNL     1       3.085   6.832  18.173  0.00  0.00    +0.000 A 
ATOM      4  C   UNL     1       4.086   7.092  17.230  0.00  0.00    +0.000 A 
ATOM      5  C   UNL     1       4.807   6.039  16.689  0.00  0.00    +0.000 A 
ATOM      6  N   UNL     1       4.588   4.744  16.992  0.00  0.00    +0.000 NA
ENDROOT
BRANCH   3   7
ATOM      7  C   UNL     1       2.222   7.904  18.722  0.00  0.00    +0.000 A 
ATOM      8  C   UNL     1       1.849   7.941  20.078  0.00  0.00    +0.000 A 
ATOM      9  C   UNL     1       0.993   8.929  20.574  0.00  0.00    +0.000 A 
ATOM     10  C   UNL     1       0.498   9.914  19.724  0.00  0.00    +0.000 A 
ATOM     11  C   UNL     1       0.854   9.908  18.378  0.00  0.00    +0.000 A 
ATOM     12  C   UNL     1       1.701   8.909  17.885  0.00  0.00    +0.000 A 
ENDBRANCH   3   7
BRANCH   1  13
ATOM     13  C   UNL     1       3.306   3.034  18.165  0.00  0.00    +0.000 C 
BRANCH  13  15
ATOM     14  O   UNL     1       4.846   1.905  20.951  0.00  0.00    +0.000 OA
ATOM     15  P   UNL     1       4.140   2.422  19.674  0.00  0.00    +0.000 P 
BRANCH  15  16
ATOM     16  O   UNL     1       5.511   3.204  19.204  0.00  0.00    +0.000 OA
ATOM     17  H   UNL     1       5.558   4.027  19.736  0.00  0.00    +0.000 HD
ENDBRANCH  15  16
BRANCH  15  18
ATOM     18  O   UNL     1       4.470   1.029  18.864  0.00  0.00    +0.000 OA
ATOM     19  H   UNL     1       4.407   1.225  17.908  0.00  0.00    +0.000 HD
ENDBRANCH  15  18
ENDBRANCH  13  15
ENDBRANCH   1  13
TORSDOF 5
ENDMDL
MODEL 9
REMARK VINA RESULT:      -6.8      1.746      2.743
REMARK  Name = 
REMARK  5 active torsions:
REMARK  status: ('A' for Active; 'I' for Inactive)
REMARK    1  A    between atoms: P_2  and  O_3
REMARK    2  A    between atoms: P_2  and  O_4
REMARK    3  A    between atoms: P_2  and  C_5
REMARK    4  A    between atoms: C_5  and  C_6
REMARK    5  A    between atoms: C_8  and  C_9
REMARK                            x       y       z     vdW  Elec       q    Type
REMARK                         _______ _______ _______ _____ _____    ______ ____
ROOT
ATOM      1  C   UNL     1       3.560   4.610  17.792  0.00  0.00    +0.000 A 
ATOM      2  C   UNL     1       2.806   5.598  18.425  0.00  0.00    +0.000 A 
ATOM      3  C   UNL     1       3.012   6.952  18.121  0.00  0.00    +0.000 A 
ATOM      4  C   UNL     1       4.047   7.241  17.224  0.00  0.00    +0.000 A 
ATOM      5  C   UNL     1       4.782   6.205  16.669  0.00  0.00    +0.000 A 
ATOM      6  N   UNL     1       4.548   4.900  16.917  0.00  0.00    +0.000 NA
ENDROOT
BRANCH   3   7
ATOM      7  C   UNL     1       2.134   8.007  18.679  0.00  0.00    +0.000 A 
ATOM      8  C   UNL     1       1.656   9.072  17.896  0.00  0.00    +0.000 A 
ATOM      9  C   UNL     1       0.869  10.089  18.445  0.00  0.00    +0.000 A 
ATOM     10  C   UNL     1       0.531  10.056  19.795  0.00  0.00    +0.000 A 
ATOM     11  C   UNL     1       0.982   9.011  20.595  0.00  0.00    +0.000 A 
ATOM     12  C   UNL     1       1.780   8.004  20.042  0.00  0.00    +0.000 A 
ENDBRANCH   3   7
BRANCH   1  13
ATOM     13  C   UNL     1       3.218   3.155  17.981  0.00  0.00    +0.000 C 
BRANCH  13  15
ATOM     14  O   UNL     1       4.811   1.867  20.667  0.00  0.00    +0.000 OA
ATOM     15  P   UNL     1       4.081   2.457  19.436  0.00  0.00    +0.000 P 
BRANCH  15  16
ATOM     16  O   UNL     1       5.469   3.189  18.934  0.00  0.00    +0.000 OA
ATOM     17  H   UNL     1       5.493   3.099  17.958  0.00  0.00    +0.000 HD
ENDBRANCH  15  16
BRANCH  15  18
ATOM     18  O   UNL     1       4.311   1.076  18.572  0.00  0.00    +0.000 OA
ATOM     19  H   UNL     1       4.665   0.402  19.187  0.00  0.00    +0.000 HD
ENDBRANCH  15  18
ENDBRANCH  13  15
ENDBRANCH   1  13
TORSDOF 5
ENDMDL
