MODEL 1
REMARK VINA RESULT:      -6.9      0.000      0.000
REMARK  Name = 
REMARK  18 active torsions:
REMARK  status: ('A' for Active; 'I' for Inactive)
REMARK    1  A    between atoms: C_1  and  O_2
REMARK    2  A    between atoms: O_2  and  C_3
REMARK    3  A    between atoms: C_3  and  C_5
REMARK    4  A    between atoms: C_5  and  C_6
REMARK    5  A    between atoms: C_5  and  N_11
REMARK    6  A    between atoms: C_6  and  C_7
REMARK    7  A    between atoms: C_7  and  C_8
REMARK    8  A    between atoms: C_8  and  C_9
REMARK    9  A    between atoms: C_9  and  N_10
REMARK   10  A    between atoms: C_12  and  C_14
REMARK   11  A    between atoms: C_17  and  N_18
REMARK   12  A    between atoms: C_19  and  C_21
REMARK   13  A    between atoms: C_21  and  N_22
REMARK   14  A    between atoms: C_21  and  C_23
REMARK   15  A    between atoms: C_23  and  C_24
REMARK   16  A    between atoms: C_24  and  C_25
REMARK   17  A    between atoms: C_25  and  N_26
REMARK   18  A    between atoms: C_30  and  N_31
REMARK                            x       y       z     vdW  Elec       q    Type
REMARK                         _______ _______ _______ _____ _____    ______ ____
ROOT
ATOM      1  C   UNL     1       2.631   7.084  18.943  0.00  0.00    +0.000 A 
ATOM      2  C   UNL     1       2.477   7.843  17.788  0.00  0.00    +0.000 A 
ATOM      3  C   UNL     1       1.742   9.024  17.828  0.00  0.00    +0.000 A 
ATOM      4  C   UNL     1       1.133   9.458  19.011  0.00  0.00    +0.000 A 
ATOM      5  C   UNL     1       1.224   8.659  20.177  0.00  0.00    +0.000 A 
ATOM      6  C   UNL     1       2.011   7.492  20.131  0.00  0.00    +0.000 A 
ENDROOT
BRANCH   4   7
ATOM      7  N   UNL     1       0.432  10.684  19.077  0.00  0.00    +0.000 N 
ATOM      8  C   UNL     1       0.978  11.959  19.059  0.00  0.00    +0.000 C 
ATOM      9  O   UNL     1       2.168  12.247  18.964  0.00  0.00    +0.000 OA
ATOM     10  H   UNL     1      -0.564  10.598  19.213  0.00  0.00    +0.000 HD
BRANCH   8  11
ATOM     11  C   UNL     1      -0.063  13.087  19.175  0.00  0.00    +0.000 C 
BRANCH  11  12
ATOM     12  N   UNL     1      -0.611  13.418  17.849  0.00  0.00    +0.000 NA
ATOM     13  H   UNL     1      -1.183  12.662  17.486  0.00  0.00    +0.000 HD
ATOM     14  H   UNL     1       0.169  13.517  17.193  0.00  0.00    +0.000 HD
ENDBRANCH  11  12
BRANCH  11  15
ATOM     15  C   UNL     1      -1.186  12.724  20.156  0.00  0.00    +0.000 C 
BRANCH  15  16
ATOM     16  C   UNL     1      -2.598  13.011  19.620  0.00  0.00    +0.000 C 
BRANCH  16  17
ATOM     17  C   UNL     1      -3.270  11.753  19.071  0.00  0.00    +0.000 C 
BRANCH  17  18
ATOM     18  N   UNL     1      -3.451  11.835  17.641  0.00  0.00    +0.000 N 
ATOM     19  C   UNL     1      -2.696  11.173  16.744  0.00  0.00    +0.000 C 
ATOM     20  N   UNL     1      -1.703  10.405  16.971  0.00  0.00    +0.000 NA
ATOM     21  N   UNL     1      -3.102  11.369  15.469  0.00  0.00    +0.000 N 
ATOM     22  H   UNL     1      -4.173  12.449  17.298  0.00  0.00    +0.000 HD
ATOM     23  H   UNL     1      -1.540  10.348  17.976  0.00  0.00    +0.000 HD
ATOM     24  H   UNL     1      -3.427  12.298  15.240  0.00  0.00    +0.000 HD
ATOM     25  H   UNL     1      -2.388  11.043  14.831  0.00  0.00    +0.000 HD
ENDBRANCH  17  18
ENDBRANCH  16  17
ENDBRANCH  15  16
ENDBRANCH  11  15
ENDBRANCH   8  11
ENDBRANCH   4   7
BRANCH   1  27
ATOM     26  N   UNL     1       3.818   5.363  17.705  0.00  0.00    +0.000 N 
ATOM     27  C   UNL     1       3.446   5.843  18.942  0.00  0.00    +0.000 C 
ATOM     28  O   UNL     1       3.772   5.321  20.001  0.00  0.00    +0.000 OA
ATOM     29  H   UNL     1       3.616   5.886  16.863  0.00  0.00    +0.000 HD
BRANCH  26  30
ATOM     30  C   UNL     1       4.710   4.210  17.559  0.00  0.00    +0.000 C 
BRANCH  30  31
ATOM     31  C   UNL     1       5.920   4.523  16.656  0.00  0.00    +0.000 C 
ATOM     32  O   UNL     1       6.694   5.455  16.840  0.00  0.00    +0.000 OA
BRANCH  31  34
ATOM     33  C   UNL     1       6.301   4.216  14.369  0.00  0.00    +0.000 C 
ATOM     34  O   UNL     1       6.053   3.616  15.644  0.00  0.00    +0.000 OA
ENDBRANCH  31  34
ENDBRANCH  30  31
BRANCH  30  35
ATOM     35  C   UNL     1       3.903   3.023  17.012  0.00  0.00    +0.000 C 
BRANCH  35  36
ATOM     36  C   UNL     1       3.307   2.098  18.083  0.00  0.00    +0.000 C 
BRANCH  36  37
ATOM     37  C   UNL     1       1.842   2.394  18.423  0.00  0.00    +0.000 C 
BRANCH  37  38
ATOM     38  C   UNL     1       1.629   2.466  19.932  0.00  0.00    +0.000 C 
BRANCH  38  39
ATOM     39  N   UNL     1       0.596   3.433  20.271  0.00  0.00    +0.000 NA
ATOM     40  H   UNL     1       0.904   4.370  20.020  0.00  0.00    +0.000 HD
ATOM     41  H   UNL     1       0.464   3.428  21.281  0.00  0.00    +0.000 HD
ENDBRANCH  38  39
ENDBRANCH  37  38
ENDBRANCH  36  37
ENDBRANCH  35  36
ENDBRANCH  30  35
ENDBRANCH  26  30
ENDBRANCH   1  27
BRANCH   5  42
ATOM     42  N   UNL     1       0.746   9.088  21.429  0.00  0.00    +0.000 N 
ATOM     43  H   UNL     1       0.875  10.075  21.621  0.00  0.00    +0.000 HD
ATOM     44  H   UNL     1      -0.226   8.825  21.591  0.00  0.00    +0.000 HD
ENDBRANCH   5  42
TORSDOF 17
ENDMDL
MODEL 2
REMARK VINA RESULT:      -6.9      2.620      4.196
REMARK  Name = 
REMARK  18 active torsions:
REMARK  status: ('A' for Active; 'I' for Inactive)
REMARK    1  A    between atoms: C_1  and  O_2
REMARK    2  A    between atoms: O_2  and  C_3
REMARK    3  A    between atoms: C_3  and  C_5
REMARK    4  A    between atoms: C_5  and  C_6
REMARK    5  A    between atoms: C_5  and  N_11
REMARK    6  A    between atoms: C_6  and  C_7
REMARK    7  A    between atoms: C_7  and  C_8
REMARK    8  A    between atoms: C_8  and  C_9
REMARK    9  A    between atoms: C_9  and  N_10
REMARK   10  A    between atoms: C_12  and  C_14
REMARK   11  A    between atoms: C_17  and  N_18
REMARK   12  A    between atoms: C_19  and  C_21
REMARK   13  A    between atoms: C_21  and  N_22
REMARK   14  A    between atoms: C_21  and  C_23
REMARK   15  A    between atoms: C_23  and  C_24
REMARK   16  A    between atoms: C_24  and  C_25
REMARK   17  A    between atoms: C_25  and  N_26
REMARK   18  A    between atoms: C_30  and  N_31
REMARK                            x       y       z     vdW  Elec       q    Type
REMARK                         _______ _______ _______ _____ _____    ______ ____
ROOT
ATOM      1  C   UNL     1       3.207   6.496  18.639  0.00  0.00    +0.000 A 
ATOM      2  C   UNL     1       2.582   6.356  19.873  0.00  0.00    +0.000 A 
ATOM      3  C   UNL     1       1.724   7.350  20.331  0.00  0.00    +0.000 A 
ATOM      4  C   UNL     1       1.491   8.508  19.580  0.00  0.00    +0.000 A 
ATOM      5  C   UNL     1       2.176   8.695  18.355  0.00  0.00    +0.000 A 
ATOM      6  C   UNL     1       3.003   7.657  17.883  0.00  0.00    +0.000 A 
ENDROOT
BRANCH   4   7
ATOM      7  N   UNL     1       0.579   9.499  20.010  0.00  0.00    +0.000 N 
ATOM      8  C   UNL     1       0.622  10.212  21.200  0.00  0.00    +0.000 C 
ATOM      9  O   UNL     1       1.472  10.118  22.081  0.00  0.00    +0.000 OA
ATOM     10  H   UNL     1      -0.213   9.643  19.402  0.00  0.00    +0.000 HD
BRANCH   8  11
ATOM     11  C   UNL     1      -0.542  11.202  21.379  0.00  0.00    +0.000 C 
BRANCH  11  12
ATOM     12  N   UNL     1      -0.064  12.448  22.002  0.00  0.00    +0.000 NA
ATOM     13  H   UNL     1       0.195  12.302  22.972  0.00  0.00    +0.000 HD
ATOM     14  H   UNL     1      -0.839  13.118  22.018  0.00  0.00    +0.000 HD
ENDBRANCH  11  12
BRANCH  11  15
ATOM     15  C   UNL     1      -1.250  11.492  20.049  0.00  0.00    +0.000 C 
BRANCH  15  16
ATOM     16  C   UNL     1      -1.356  12.989  19.714  0.00  0.00    +0.000 C 
BRANCH  16  17
ATOM     17  C   UNL     1      -0.373  13.404  18.619  0.00  0.00    +0.000 C 
BRANCH  17  18
ATOM     18  N   UNL     1       0.919  13.737  19.171  0.00  0.00    +0.000 N 
ATOM     19  C   UNL     1       2.093  13.439  18.584  0.00  0.00    +0.000 C 
ATOM     20  N   UNL     1       2.283  12.806  17.492  0.00  0.00    +0.000 NA
ATOM     21  N   UNL     1       3.158  13.910  19.270  0.00  0.00    +0.000 N 
ATOM     22  H   UNL     1       0.936  14.199  20.068  0.00  0.00    +0.000 HD
ATOM     23  H   UNL     1       1.384  12.540  17.092  0.00  0.00    +0.000 HD
ATOM     24  H   UNL     1       3.095  13.871  20.278  0.00  0.00    +0.000 HD
ATOM     25  H   UNL     1       4.004  13.479  18.921  0.00  0.00    +0.000 HD
ENDBRANCH  17  18
ENDBRANCH  16  17
ENDBRANCH  15  16
ENDBRANCH  11  15
ENDBRANCH   8  11
ENDBRANCH   4   7
BRANCH   1  27
ATOM     26  N   UNL     1       4.702   5.702  16.896  0.00  0.00    +0.000 N 
ATOM     27  C   UNL     1       4.094   5.432  18.102  0.00  0.00    +0.000 C 
ATOM     28  O   UNL     1       4.271   4.400  18.738  0.00  0.00    +0.000 OA
ATOM     29  H   UNL     1       4.610   6.610  16.460  0.00  0.00    +0.000 HD
BRANCH  26  30
ATOM     30  C   UNL     1       5.683   4.789  16.303  0.00  0.00    +0.000 C 
BRANCH  30  31
ATOM     31  C   UNL     1       7.128   5.152  16.702  0.00  0.00    +0.000 C 
ATOM     32  O   UNL     1       7.932   4.357  17.174  0.00  0.00    +0.000 OA
BRANCH  31  34
ATOM     33  C   UNL     1       7.636   7.248  17.606  0.00  0.00    +0.000 C 
ATOM     34  O   UNL     1       7.423   6.457  16.432  0.00  0.00    +0.000 OA
ENDBRANCH  31  34
ENDBRANCH  30  31
BRANCH  30  35
ATOM     35  C   UNL     1       5.511   4.799  14.776  0.00  0.00    +0.000 C 
BRANCH  35  36
ATOM     36  C   UNL     1       6.456   3.860  14.014  0.00  0.00    +0.000 C 
BRANCH  36  37
ATOM     37  C   UNL     1       6.315   3.930  12.489  0.00  0.00    +0.000 C 
BRANCH  37  38
ATOM     38  C   UNL     1       5.469   2.776  11.958  0.00  0.00    +0.000 C 
BRANCH  38  39
ATOM     39  N   UNL     1       4.214   3.258  11.402  0.00  0.00    +0.000 NA
ATOM     40  H   UNL     1       3.945   2.683  10.607  0.00  0.00    +0.000 HD
ATOM     41  H   UNL     1       4.357   4.202  11.047  0.00  0.00    +0.000 HD
ENDBRANCH  38  39
ENDBRANCH  37  38
ENDBRANCH  36  37
ENDBRANCH  35  36
ENDBRANCH  30  35
ENDBRANCH  26  30
ENDBRANCH   1  27
BRANCH   5  42
ATOM     42  N   UNL     1       1.901   9.770  17.489  0.00  0.00    +0.000 N 
ATOM     43  H   UNL     1       2.651  10.005  16.848  0.00  0.00    +0.000 HD
ATOM     44  H   UNL     1       1.028   9.650  16.975  0.00  0.00    +0.000 HD
ENDBRANCH   5  42
TORSDOF 17
ENDMDL
MODEL 3
REMARK VINA RESULT:      -6.8      2.812      4.120
REMARK  Name = 
REMARK  18 active torsions:
REMARK  status: ('A' for Active; 'I' for Inactive)
REMARK    1  A    between atoms: C_1  and  O_2
REMARK    2  A    between atoms: O_2  and  C_3
REMARK    3  A    between atoms: C_3  and  C_5
REMARK    4  A    between atoms: C_5  and  C_6
REMARK    5  A    between atoms: C_5  and  N_11
REMARK    6  A    between atoms: C_6  and  C_7
REMARK    7  A    between atoms: C_7  and  C_8
REMARK    8  A    between atoms: C_8  and  C_9
REMARK    9  A    between atoms: C_9  and  N_10
REMARK   10  A    between atoms: C_12  and  C_14
REMARK   11  A    between atoms: C_17  and  N_18
REMARK   12  A    between atoms: C_19  and  C_21
REMARK   13  A    between atoms: C_21  and  N_22
REMARK   14  A    between atoms: C_21  and  C_23
REMARK   15  A    between atoms: C_23  and  C_24
REMARK   16  A    between atoms: C_24  and  C_25
REMARK   17  A    between atoms: C_25  and  N_26
REMARK   18  A    between atoms: C_30  and  N_31
REMARK                            x       y       z     vdW  Elec       q    Type
REMARK                         _______ _______ _______ _____ _____    ______ ____
ROOT
ATOM      1  C   UNL     1       2.450   7.209  19.404  0.00  0.00    +0.000 A 
ATOM      2  C   UNL     1       2.312   7.937  18.228  0.00  0.00    +0.000 A 
ATOM      3  C   UNL     1       1.515   9.077  18.208  0.00  0.00    +0.000 A 
ATOM      4  C   UNL     1       0.827   9.500  19.352  0.00  0.00    +0.000 A 
ATOM      5  C   UNL     1       0.903   8.728  20.536  0.00  0.00    +0.000 A 
ATOM      6  C   UNL     1       1.752   7.604  20.552  0.00  0.00    +0.000 A 
ENDROOT
BRANCH   4   7
ATOM      7  N   UNL     1       0.059  10.686  19.358  0.00  0.00    +0.000 N 
ATOM      8  C   UNL     1       0.362  11.872  20.012  0.00  0.00    +0.000 C 
ATOM      9  O   UNL     1       1.362  12.104  20.686  0.00  0.00    +0.000 OA
ATOM     10  H   UNL     1      -0.828  10.622  18.883  0.00  0.00    +0.000 HD
BRANCH   8  11
ATOM     11  C   UNL     1      -0.702  12.970  19.842  0.00  0.00    +0.000 C 
BRANCH  11  12
ATOM     12  N   UNL     1      -0.605  13.575  18.502  0.00  0.00    +0.000 NA
ATOM     13  H   UNL     1      -0.395  12.877  17.795  0.00  0.00    +0.000 HD
ATOM     14  H   UNL     1       0.189  14.223  18.498  0.00  0.00    +0.000 HD
ENDBRANCH  11  12
BRANCH  11  15
ATOM     15  C   UNL     1      -2.117  12.434  20.098  0.00  0.00    +0.000 C 
BRANCH  15  16
ATOM     16  C   UNL     1      -2.838  13.116  21.272  0.00  0.00    +0.000 C 
BRANCH  16  17
ATOM     17  C   UNL     1      -2.376  12.573  22.624  0.00  0.00    +0.000 C 
BRANCH  17  18
ATOM     18  N   UNL     1      -3.486  12.063  23.393  0.00  0.00    +0.000 N 
ATOM     19  C   UNL     1      -4.081  12.731  24.399  0.00  0.00    +0.000 C 
ATOM     20  N   UNL     1      -3.774  13.878  24.866  0.00  0.00    +0.000 NA
ATOM     21  N   UNL     1      -5.135  12.065  24.922  0.00  0.00    +0.000 N 
ATOM     22  H   UNL     1      -3.815  11.134  23.175  0.00  0.00    +0.000 HD
ATOM     23  H   UNL     1      -2.976  14.252  24.352  0.00  0.00    +0.000 HD
ATOM     24  H   UNL     1      -5.040  11.062  24.993  0.00  0.00    +0.000 HD
ATOM     25  H   UNL     1      -5.404  12.490  25.799  0.00  0.00    +0.000 HD
ENDBRANCH  17  18
ENDBRANCH  16  17
ENDBRANCH  15  16
ENDBRANCH  11  15
ENDBRANCH   8  11
ENDBRANCH   4   7
BRANCH   1  27
ATOM     26  N   UNL     1       4.453   6.045  18.672  0.00  0.00    +0.000 N 
ATOM     27  C   UNL     1       3.329   6.013  19.468  0.00  0.00    +0.000 C 
ATOM     28  O   UNL     1       3.051   5.086  20.217  0.00  0.00    +0.000 OA
ATOM     29  H   UNL     1       4.697   6.877  18.151  0.00  0.00    +0.000 HD
BRANCH  26  30
ATOM     30  C   UNL     1       5.462   4.983  18.716  0.00  0.00    +0.000 C 
BRANCH  30  31
ATOM     31  C   UNL     1       6.875   5.535  18.991  0.00  0.00    +0.000 C 
ATOM     32  O   UNL     1       7.412   5.536  20.092  0.00  0.00    +0.000 OA
BRANCH  31  34
ATOM     33  C   UNL     1       7.618   7.413  17.813  0.00  0.00    +0.000 C 
ATOM     34  O   UNL     1       7.478   5.990  17.854  0.00  0.00    +0.000 OA
ENDBRANCH  31  34
ENDBRANCH  30  31
BRANCH  30  35
ATOM     35  C   UNL     1       5.419   4.203  17.393  0.00  0.00    +0.000 C 
BRANCH  35  36
ATOM     36  C   UNL     1       4.539   4.828  16.302  0.00  0.00    +0.000 C 
BRANCH  36  37
ATOM     37  C   UNL     1       5.308   5.690  15.295  0.00  0.00    +0.000 C 
BRANCH  37  38
ATOM     38  C   UNL     1       6.347   4.865  14.541  0.00  0.00    +0.000 C 
BRANCH  38  39
ATOM     39  N   UNL     1       7.698   5.267  14.901  0.00  0.00    +0.000 NA
ATOM     40  H   UNL     1       7.996   4.768  15.736  0.00  0.00    +0.000 HD
ATOM     41  H   UNL     1       7.690   6.258  15.138  0.00  0.00    +0.000 HD
ENDBRANCH  38  39
ENDBRANCH  37  38
ENDBRANCH  36  37
ENDBRANCH  35  36
ENDBRANCH  30  35
ENDBRANCH  26  30
ENDBRANCH   1  27
BRANCH   5  42
ATOM     42  N   UNL     1       0.342   9.152  21.755  0.00  0.00    +0.000 N 
ATOM     43  H   UNL     1       0.428   8.491  22.519  0.00  0.00    +0.000 HD
ATOM     44  H   UNL     1       0.681  10.069  22.048  0.00  0.00    +0.000 HD
ENDBRANCH   5  42
TORSDOF 17
ENDMDL
MODEL 4
REMARK VINA RESULT:      -6.7      2.735      4.262
REMARK  Name = 
REMARK  18 active torsions:
REMARK  status: ('A' for Active; 'I' for Inactive)
REMARK    1  A    between atoms: C_1  and  O_2
REMARK    2  A    between atoms: O_2  and  C_3
REMARK    3  A    between atoms: C_3  and  C_5
REMARK    4  A    between atoms: C_5  and  C_6
REMARK    5  A    between atoms: C_5  and  N_11
REMARK    6  A    between atoms: C_6  and  C_7
REMARK    7  A    between atoms: C_7  and  C_8
REMARK    8  A    between atoms: C_8  and  C_9
REMARK    9  A    between atoms: C_9  and  N_10
REMARK   10  A    between atoms: C_12  and  C_14
REMARK   11  A    between atoms: C_17  and  N_18
REMARK   12  A    between atoms: C_19  and  C_21
REMARK   13  A    between atoms: C_21  and  N_22
REMARK   14  A    between atoms: C_21  and  C_23
REMARK   15  A    between atoms: C_23  and  C_24
REMARK   16  A    between atoms: C_24  and  C_25
REMARK   17  A    between atoms: C_25  and  N_26
REMARK   18  A    between atoms: C_30  and  N_31
REMARK                            x       y       z     vdW  Elec       q    Type
REMARK                         _______ _______ _______ _____ _____    ______ ____
ROOT
ATOM      1  C   UNL     1       2.956   6.939  18.275  0.00  0.00    +0.000 A 
ATOM      2  C   UNL     1       2.613   8.017  17.467  0.00  0.00    +0.000 A 
ATOM      3  C   UNL     1       1.873   9.070  17.993  0.00  0.00    +0.000 A 
ATOM      4  C   UNL     1       1.445   9.059  19.326  0.00  0.00    +0.000 A 
ATOM      5  C   UNL     1       1.727   7.936  20.140  0.00  0.00    +0.000 A 
ATOM      6  C   UNL     1       2.518   6.901  19.605  0.00  0.00    +0.000 A 
ENDROOT
BRANCH   4   7
ATOM      7  N   UNL     1       0.740  10.149  19.887  0.00  0.00    +0.000 N 
ATOM      8  C   UNL     1      -0.529  10.590  19.538  0.00  0.00    +0.000 C 
ATOM      9  O   UNL     1      -1.269  10.097  18.691  0.00  0.00    +0.000 OA
ATOM     10  H   UNL     1       1.256  10.686  20.566  0.00  0.00    +0.000 HD
BRANCH   8  11
ATOM     11  C   UNL     1      -1.000  11.826  20.323  0.00  0.00    +0.000 C 
BRANCH  11  12
ATOM     12  N   UNL     1      -0.809  11.619  21.769  0.00  0.00    +0.000 NA
ATOM     13  H   UNL     1      -1.512  12.113  22.309  0.00  0.00    +0.000 HD
ATOM     14  H   UNL     1       0.090  12.031  22.037  0.00  0.00    +0.000 HD
ENDBRANCH  11  12
BRANCH  11  15
ATOM     15  C   UNL     1      -0.286  13.102  19.855  0.00  0.00    +0.000 C 
BRANCH  15  16
ATOM     16  C   UNL     1       0.739  13.647  20.862  0.00  0.00    +0.000 C 
BRANCH  16  17
ATOM     17  C   UNL     1       2.166  13.223  20.517  0.00  0.00    +0.000 C 
BRANCH  17  18
ATOM     18  N   UNL     1       2.736  14.072  19.498  0.00  0.00    +0.000 N 
ATOM     19  C   UNL     1       2.886  13.713  18.210  0.00  0.00    +0.000 C 
ATOM     20  N   UNL     1       2.597  12.593  17.671  0.00  0.00    +0.000 NA
ATOM     21  N   UNL     1       3.389  14.706  17.442  0.00  0.00    +0.000 N 
ATOM     22  H   UNL     1       3.064  14.984  19.782  0.00  0.00    +0.000 HD
ATOM     23  H   UNL     1       2.212  11.965  18.376  0.00  0.00    +0.000 HD
ATOM     24  H   UNL     1       4.094  15.290  17.870  0.00  0.00    +0.000 HD
ATOM     25  H   UNL     1       3.688  14.330  16.553  0.00  0.00    +0.000 HD
ENDBRANCH  17  18
ENDBRANCH  16  17
ENDBRANCH  15  16
ENDBRANCH  11  15
ENDBRANCH   8  11
ENDBRANCH   4   7
BRANCH   1  27
ATOM     26  N   UNL     1       4.771   6.165  16.857  0.00  0.00    +0.000 N 
ATOM     27  C   UNL     1       3.783   5.821  17.754  0.00  0.00    +0.000 C 
ATOM     28  O   UNL     1       3.587   4.678  18.145  0.00  0.00    +0.000 OA
ATOM     29  H   UNL     1       4.965   7.135  16.645  0.00  0.00    +0.000 HD
BRANCH  26  30
ATOM     30  C   UNL     1       5.728   5.181  16.346  0.00  0.00    +0.000 C 
BRANCH  30  31
ATOM     31  C   UNL     1       7.156   5.435  16.868  0.00  0.00    +0.000 C 
ATOM     32  O   UNL     1       7.845   4.591  17.428  0.00  0.00    +0.000 OA
BRANCH  31  34
ATOM     33  C   UNL     1       7.793   7.495  17.773  0.00  0.00    +0.000 C 
ATOM     34  O   UNL     1       7.583   6.704  16.600  0.00  0.00    +0.000 OA
ENDBRANCH  31  34
ENDBRANCH  30  31
BRANCH  30  35
ATOM     35  C   UNL     1       5.688   5.201  14.810  0.00  0.00    +0.000 C 
BRANCH  35  36
ATOM     36  C   UNL     1       5.658   3.817  14.146  0.00  0.00    +0.000 C 
BRANCH  36  37
ATOM     37  C   UNL     1       6.343   3.762  12.777  0.00  0.00    +0.000 C 
BRANCH  37  38
ATOM     38  C   UNL     1       5.655   2.760  11.854  0.00  0.00    +0.000 C 
BRANCH  38  39
ATOM     39  N   UNL     1       4.327   3.220  11.477  0.00  0.00    +0.000 NA
ATOM     40  H   UNL     1       3.656   2.463  11.585  0.00  0.00    +0.000 HD
ATOM     41  H   UNL     1       4.336   3.466  10.489  0.00  0.00    +0.000 HD
ENDBRANCH  38  39
ENDBRANCH  37  38
ENDBRANCH  36  37
ENDBRANCH  35  36
ENDBRANCH  30  35
ENDBRANCH  26  30
ENDBRANCH   1  27
BRANCH   5  42
ATOM     42  N   UNL     1       1.439   7.906  21.518  0.00  0.00    +0.000 N 
ATOM     43  H   UNL     1       1.826   8.674  22.053  0.00  0.00    +0.000 HD
ATOM     44  H   UNL     1       0.441   7.814  21.710  0.00  0.00    +0.000 HD
ENDBRANCH   5  42
TORSDOF 17
ENDMDL
MODEL 5
REMARK VINA RESULT:      -6.7      1.473      1.950
REMARK  Name = 
REMARK  18 active torsions:
REMARK  status: ('A' for Active; 'I' for Inactive)
REMARK    1  A    between atoms: C_1  and  O_2
REMARK    2  A    between atoms: O_2  and  C_3
REMARK    3  A    between atoms: C_3  and  C_5
REMARK    4  A    between atoms: C_5  and  C_6
REMARK    5  A    between atoms: C_5  and  N_11
REMARK    6  A    between atoms: C_6  and  C_7
REMARK    7  A    between atoms: C_7  and  C_8
REMARK    8  A    between atoms: C_8  and  C_9
REMARK    9  A    between atoms: C_9  and  N_10
REMARK   10  A    between atoms: C_12  and  C_14
REMARK   11  A    between atoms: C_17  and  N_18
REMARK   12  A    between atoms: C_19  and  C_21
REMARK   13  A    between atoms: C_21  and  N_22
REMARK   14  A    between atoms: C_21  and  C_23
REMARK   15  A    between atoms: C_23  and  C_24
REMARK   16  A    between atoms: C_24  and  C_25
REMARK   17  A    between atoms: C_25  and  N_26
REMARK   18  A    between atoms: C_30  and  N_31
REMARK                            x       y       z     vdW  Elec       q    Type
REMARK                         _______ _______ _______ _____ _____    ______ ____
ROOT
ATOM      1  C   UNL     1       2.380   7.307  19.261  0.00  0.00    +0.000 A 
ATOM      2  C   UNL     1       2.359   7.844  17.979  0.00  0.00    +0.000 A 
ATOM      3  C   UNL     1       1.649   9.014  17.730  0.00  0.00    +0.000 A 
ATOM      4  C   UNL     1       0.932   9.657  18.747  0.00  0.00    +0.000 A 
ATOM      5  C   UNL     1       0.888   9.082  20.040  0.00  0.00    +0.000 A 
ATOM      6  C   UNL     1       1.652   7.924  20.287  0.00  0.00    +0.000 A 
ENDROOT
BRANCH   4   7
ATOM      7  N   UNL     1       0.253  10.875  18.519  0.00  0.00    +0.000 N 
ATOM      8  C   UNL     1       0.610  12.131  18.989  0.00  0.00    +0.000 C 
ATOM      9  O   UNL     1       1.592  12.405  19.674  0.00  0.00    +0.000 OA
ATOM     10  H   UNL     1      -0.614  10.791  18.010  0.00  0.00    +0.000 HD
BRANCH   8  11
ATOM     11  C   UNL     1      -0.363  13.252  18.583  0.00  0.00    +0.000 C 
BRANCH  11  12
ATOM     12  N   UNL     1      -1.133  12.856  17.392  0.00  0.00    +0.000 NA
ATOM     13  H   UNL     1      -2.115  13.094  17.490  0.00  0.00    +0.000 HD
ATOM     14  H   UNL     1      -1.100  11.835  17.312  0.00  0.00    +0.000 HD
ENDBRANCH  11  12
BRANCH  11  15
ATOM     15  C   UNL     1      -1.299  13.636  19.737  0.00  0.00    +0.000 C 
BRANCH  15  16
ATOM     16  C   UNL     1      -2.109  12.457  20.300  0.00  0.00    +0.000 C 
BRANCH  16  17
ATOM     17  C   UNL     1      -3.589  12.547  19.929  0.00  0.00    +0.000 C 
BRANCH  17  18
ATOM     18  N   UNL     1      -3.817  12.125  18.568  0.00  0.00    +0.000 N 
ATOM     19  C   UNL     1      -5.016  11.753  18.081  0.00  0.00    +0.000 C 
ATOM     20  N   UNL     1      -6.125  11.676  18.707  0.00  0.00    +0.000 NA
ATOM     21  N   UNL     1      -4.979  11.459  16.761  0.00  0.00    +0.000 N 
ATOM     22  H   UNL     1      -3.017  12.083  17.954  0.00  0.00    +0.000 HD
ATOM     23  H   UNL     1      -5.987  11.949  19.679  0.00  0.00    +0.000 HD
ATOM     24  H   UNL     1      -4.151  10.982  16.432  0.00  0.00    +0.000 HD
ATOM     25  H   UNL     1      -5.830  10.980  16.496  0.00  0.00    +0.000 HD
ENDBRANCH  17  18
ENDBRANCH  16  17
ENDBRANCH  15  16
ENDBRANCH  11  15
ENDBRANCH   8  11
ENDBRANCH   4   7
BRANCH   1  27
ATOM     26  N   UNL     1       4.348   5.935  18.877  0.00  0.00    +0.000 N 
ATOM     27  C   UNL     1       3.165   6.084  19.568  0.00  0.00    +0.000 C 
ATOM     28  O   UNL     1       2.766   5.293  20.412  0.00  0.00    +0.000 OA
ATOM     29  H   UNL     1       4.690   6.667  18.267  0.00  0.00    +0.000 HD
BRANCH  26  30
ATOM     30  C   UNL     1       5.274   4.834  19.157  0.00  0.00    +0.000 C 
BRANCH  30  31
ATOM     31  C   UNL     1       6.744   5.294  19.146  0.00  0.00    +0.000 C 
ATOM     32  O   UNL     1       7.456   5.352  20.142  0.00  0.00    +0.000 OA
BRANCH  31  34
ATOM     33  C   UNL     1       7.561   6.967  17.729  0.00  0.00    +0.000 C 
ATOM     34  O   UNL     1       7.179   5.597  17.887  0.00  0.00    +0.000 OA
ENDBRANCH  31  34
ENDBRANCH  30  31
BRANCH  30  35
ATOM     35  C   UNL     1       5.036   3.714  18.132  0.00  0.00    +0.000 C 
BRANCH  35  36
ATOM     36  C   UNL     1       4.039   4.058  17.017  0.00  0.00    +0.000 C 
BRANCH  36  37
ATOM     37  C   UNL     1       2.679   3.366  17.156  0.00  0.00    +0.000 C 
BRANCH  37  38
ATOM     38  C   UNL     1       2.724   2.268  18.216  0.00  0.00    +0.000 C 
BRANCH  38  39
ATOM     39  N   UNL     1       1.805   2.554  19.307  0.00  0.00    +0.000 NA
ATOM     40  H   UNL     1       1.841   1.805  19.995  0.00  0.00    +0.000 HD
ATOM     41  H   UNL     1       0.856   2.569  18.937  0.00  0.00    +0.000 HD
ENDBRANCH  38  39
ENDBRANCH  37  38
ENDBRANCH  36  37
ENDBRANCH  35  36
ENDBRANCH  30  35
ENDBRANCH  26  30
ENDBRANCH   1  27
BRANCH   5  42
ATOM     42  N   UNL     1       0.295   9.731  21.139  0.00  0.00    +0.000 N 
ATOM     43  H   UNL     1      -0.659   9.450  21.337  0.00  0.00    +0.000 HD
ATOM     44  H   UNL     1       0.860   9.669  21.986  0.00  0.00    +0.000 HD
ENDBRANCH   5  42
TORSDOF 17
ENDMDL
MODEL 6
REMARK VINA RESULT:      -6.5      2.635      3.513
REMARK  Name = 
REMARK  18 active torsions:
REMARK  status: ('A' for Active; 'I' for Inactive)
REMARK    1  A    between atoms: C_1  and  O_2
REMARK    2  A    between atoms: O_2  and  C_3
REMARK    3  A    between atoms: C_3  and  C_5
REMARK    4  A    between atoms: C_5  and  C_6
REMARK    5  A    between atoms: C_5  and  N_11
REMARK    6  A    between atoms: C_6  and  C_7
REMARK    7  A    between atoms: C_7  and  C_8
REMARK    8  A    between atoms: C_8  and  C_9
REMARK    9  A    between atoms: C_9  and  N_10
REMARK   10  A    between atoms: C_12  and  C_14
REMARK   11  A    between atoms: C_17  and  N_18
REMARK   12  A    between atoms: C_19  and  C_21
REMARK   13  A    between atoms: C_21  and  N_22
REMARK   14  A    between atoms: C_21  and  C_23
REMARK   15  A    between atoms: C_23  and  C_24
REMARK   16  A    between atoms: C_24  and  C_25
REMARK   17  A    between atoms: C_25  and  N_26
REMARK   18  A    between atoms: C_30  and  N_31
REMARK                            x       y       z     vdW  Elec       q    Type
REMARK                         _______ _______ _______ _____ _____    ______ ____
ROOT
ATOM      1  C   UNL     1       2.220   7.218  19.705  0.00  0.00    +0.000 A 
ATOM      2  C   UNL     1       1.570   7.509  20.899  0.00  0.00    +0.000 A 
ATOM      3  C   UNL     1       0.845   8.691  21.022  0.00  0.00    +0.000 A 
ATOM      4  C   UNL     1       0.773   9.609  19.968  0.00  0.00    +0.000 A 
ATOM      5  C   UNL     1       1.488   9.357  18.773  0.00  0.00    +0.000 A 
ATOM      6  C   UNL     1       2.176   8.134  18.647  0.00  0.00    +0.000 A 
ENDROOT
BRANCH   4   7
ATOM      7  N   UNL     1      -0.005  10.785  20.063  0.00  0.00    +0.000 N 
ATOM      8  C   UNL     1       0.374  11.993  20.632  0.00  0.00    +0.000 C 
ATOM      9  O   UNL     1       1.462  12.255  21.139  0.00  0.00    +0.000 OA
ATOM     10  H   UNL     1      -0.954  10.697  19.732  0.00  0.00    +0.000 HD
BRANCH   8  11
ATOM     11  C   UNL     1      -0.722  13.072  20.600  0.00  0.00    +0.000 C 
BRANCH  11  12
ATOM     12  N   UNL     1      -1.268  13.208  19.239  0.00  0.00    +0.000 NA
ATOM     13  H   UNL     1      -2.280  13.138  19.238  0.00  0.00    +0.000 HD
ATOM     14  H   UNL     1      -0.933  12.419  18.678  0.00  0.00    +0.000 HD
ENDBRANCH  11  12
BRANCH  11  15
ATOM     15  C   UNL     1      -1.839  12.777  21.610  0.00  0.00    +0.000 C 
BRANCH  15  16
ATOM     16  C   UNL     1      -1.471  13.118  23.063  0.00  0.00    +0.000 C 
BRANCH  16  17
ATOM     17  C   UNL     1      -2.586  13.885  23.774  0.00  0.00    +0.000 C 
BRANCH  17  18
ATOM     18  N   UNL     1      -3.889  13.410  23.373  0.00  0.00    +0.000 N 
ATOM     19  C   UNL     1      -4.746  12.770  24.191  0.00  0.00    +0.000 C 
ATOM     20  N   UNL     1      -4.569  12.447  25.412  0.00  0.00    +0.000 NA
ATOM     21  N   UNL     1      -5.925  12.480  23.594  0.00  0.00    +0.000 N 
ATOM     22  H   UNL     1      -4.158  13.546  22.410  0.00  0.00    +0.000 HD
ATOM     23  H   UNL     1      -3.644  12.753  25.715  0.00  0.00    +0.000 HD
ATOM     24  H   UNL     1      -5.879  12.203  22.624  0.00  0.00    +0.000 HD
ATOM     25  H   UNL     1      -6.438  11.818  24.160  0.00  0.00    +0.000 HD
ENDBRANCH  17  18
ENDBRANCH  16  17
ENDBRANCH  15  16
ENDBRANCH  11  15
ENDBRANCH   8  11
ENDBRANCH   4   7
BRANCH   1  27
ATOM     26  N   UNL     1       3.647   5.803  18.339  0.00  0.00    +0.000 N 
ATOM     27  C   UNL     1       2.964   5.944  19.528  0.00  0.00    +0.000 C 
ATOM     28  O   UNL     1       2.969   5.106  20.420  0.00  0.00    +0.000 OA
ATOM     29  H   UNL     1       3.701   6.566  17.677  0.00  0.00    +0.000 HD
BRANCH  26  30
ATOM     30  C   UNL     1       4.509   4.648  18.075  0.00  0.00    +0.000 C 
BRANCH  30  31
ATOM     31  C   UNL     1       5.885   5.065  17.521  0.00  0.00    +0.000 C 
ATOM     32  O   UNL     1       6.405   4.573  16.526  0.00  0.00    +0.000 OA
BRANCH  31  34
ATOM     33  C   UNL     1       7.262   6.955  17.466  0.00  0.00    +0.000 C 
ATOM     34  O   UNL     1       6.446   6.077  18.247  0.00  0.00    +0.000 OA
ENDBRANCH  31  34
ENDBRANCH  30  31
BRANCH  30  35
ATOM     35  C   UNL     1       3.785   3.700  17.106  0.00  0.00    +0.000 C 
BRANCH  35  36
ATOM     36  C   UNL     1       3.142   2.471  17.763  0.00  0.00    +0.000 C 
BRANCH  36  37
ATOM     37  C   UNL     1       1.687   2.682  18.198  0.00  0.00    +0.000 C 
BRANCH  37  38
ATOM     38  C   UNL     1       1.469   2.223  19.637  0.00  0.00    +0.000 C 
BRANCH  38  39
ATOM     39  N   UNL     1       0.609   3.149  20.358  0.00  0.00    +0.000 NA
ATOM     40  H   UNL     1      -0.367   2.928  20.176  0.00  0.00    +0.000 HD
ATOM     41  H   UNL     1       0.770   4.089  19.999  0.00  0.00    +0.000 HD
ENDBRANCH  38  39
ENDBRANCH  37  38
ENDBRANCH  36  37
ENDBRANCH  35  36
ENDBRANCH  30  35
ENDBRANCH  26  30
ENDBRANCH   1  27
BRANCH   5  42
ATOM     42  N   UNL     1       1.365  10.169  17.630  0.00  0.00    +0.000 N 
ATOM     43  H   UNL     1       1.649   9.730  16.761  0.00  0.00    +0.000 HD
ATOM     44  H   UNL     1       0.432  10.570  17.529  0.00  0.00    +0.000 HD
ENDBRANCH   5  42
TORSDOF 17
ENDMDL
MODEL 7
REMARK VINA RESULT:      -6.5      2.631      4.288
REMARK  Name = 
REMARK  18 active torsions:
REMARK  status: ('A' for Active; 'I' for Inactive)
REMARK    1  A    between atoms: C_1  and  O_2
REMARK    2  A    between atoms: O_2  and  C_3
REMARK    3  A    between atoms: C_3  and  C_5
REMARK    4  A    between atoms: C_5  and  C_6
REMARK    5  A    between atoms: C_5  and  N_11
REMARK    6  A    between atoms: C_6  and  C_7
REMARK    7  A    between atoms: C_7  and  C_8
REMARK    8  A    between atoms: C_8  and  C_9
REMARK    9  A    between atoms: C_9  and  N_10
REMARK   10  A    between atoms: C_12  and  C_14
REMARK   11  A    between atoms: C_17  and  N_18
REMARK   12  A    between atoms: C_19  and  C_21
REMARK   13  A    between atoms: C_21  and  N_22
REMARK   14  A    between atoms: C_21  and  C_23
REMARK   15  A    between atoms: C_23  and  C_24
REMARK   16  A    between atoms: C_24  and  C_25
REMARK   17  A    between atoms: C_25  and  N_26
REMARK   18  A    between atoms: C_30  and  N_31
REMARK                            x       y       z     vdW  Elec       q    Type
REMARK                         _______ _______ _______ _____ _____    ______ ____
ROOT
ATOM      1  C   UNL     1       2.639   7.032  18.751  0.00  0.00    +0.000 A 
ATOM      2  C   UNL     1       2.231   6.863  20.069  0.00  0.00    +0.000 A 
ATOM      3  C   UNL     1       1.418   7.819  20.670  0.00  0.00    +0.000 A 
ATOM      4  C   UNL     1       1.016   8.967  19.977  0.00  0.00    +0.000 A 
ATOM      5  C   UNL     1       1.483   9.185  18.658  0.00  0.00    +0.000 A 
ATOM      6  C   UNL     1       2.265   8.185  18.048  0.00  0.00    +0.000 A 
ENDROOT
BRANCH   4   7
ATOM      7  N   UNL     1       0.147   9.917  20.559  0.00  0.00    +0.000 N 
ATOM      8  C   UNL     1       0.477  11.191  20.999  0.00  0.00    +0.000 C 
ATOM      9  O   UNL     1       1.582  11.724  20.941  0.00  0.00    +0.000 OA
ATOM     10  H   UNL     1      -0.795   9.591  20.720  0.00  0.00    +0.000 HD
BRANCH   8  11
ATOM     11  C   UNL     1      -0.702  11.966  21.614  0.00  0.00    +0.000 C 
BRANCH  11  12
ATOM     12  N   UNL     1      -0.690  11.838  23.081  0.00  0.00    +0.000 NA
ATOM     13  H   UNL     1      -0.873  12.728  23.532  0.00  0.00    +0.000 HD
ATOM     14  H   UNL     1       0.254  11.566  23.373  0.00  0.00    +0.000 HD
ENDBRANCH  11  12
BRANCH  11  15
ATOM     15  C   UNL     1      -0.690  13.443  21.194  0.00  0.00    +0.000 C 
BRANCH  15  16
ATOM     16  C   UNL     1      -1.130  13.681  19.741  0.00  0.00    +0.000 C 
BRANCH  16  17
ATOM     17  C   UNL     1      -0.098  14.488  18.953  0.00  0.00    +0.000 C 
BRANCH  17  18
ATOM     18  N   UNL     1       1.011  13.662  18.539  0.00  0.00    +0.000 N 
ATOM     19  C   UNL     1       2.243  14.131  18.262  0.00  0.00    +0.000 C 
ATOM     20  N   UNL     1       2.641  15.343  18.281  0.00  0.00    +0.000 NA
ATOM     21  N   UNL     1       3.122  13.150  17.955  0.00  0.00    +0.000 N 
ATOM     22  H   UNL     1       0.839  12.674  18.427  0.00  0.00    +0.000 HD
ATOM     23  H   UNL     1       1.868  15.951  18.550  0.00  0.00    +0.000 HD
ATOM     24  H   UNL     1       2.761  12.380  17.410  0.00  0.00    +0.000 HD
ATOM     25  H   UNL     1       3.953  13.555  17.545  0.00  0.00    +0.000 HD
ENDBRANCH  17  18
ENDBRANCH  16  17
ENDBRANCH  15  16
ENDBRANCH  11  15
ENDBRANCH   8  11
ENDBRANCH   4   7
BRANCH   1  27
ATOM     26  N   UNL     1       4.588   6.475  17.410  0.00  0.00    +0.000 N 
ATOM     27  C   UNL     1       3.470   6.008  18.067  0.00  0.00    +0.000 C 
ATOM     28  O   UNL     1       3.162   4.825  18.130  0.00  0.00    +0.000 OA
ATOM     29  H   UNL     1       4.860   7.447  17.475  0.00  0.00    +0.000 HD
BRANCH  26  30
ATOM     30  C   UNL     1       5.553   5.567  16.785  0.00  0.00    +0.000 C 
BRANCH  30  31
ATOM     31  C   UNL     1       7.008   5.929  17.145  0.00  0.00    +0.000 C 
ATOM     32  O   UNL     1       7.772   5.189  17.753  0.00  0.00    +0.000 OA
BRANCH  31  34
ATOM     33  C   UNL     1       7.827   8.050  17.694  0.00  0.00    +0.000 C 
ATOM     34  O   UNL     1       7.362   7.161  16.674  0.00  0.00    +0.000 OA
ENDBRANCH  31  34
ENDBRANCH  30  31
BRANCH  30  35
ATOM     35  C   UNL     1       5.338   5.584  15.264  0.00  0.00    +0.000 C 
BRANCH  35  36
ATOM     36  C   UNL     1       6.148   4.538  14.485  0.00  0.00    +0.000 C 
BRANCH  36  37
ATOM     37  C   UNL     1       5.411   3.944  13.280  0.00  0.00    +0.000 C 
BRANCH  37  38
ATOM     38  C   UNL     1       6.393   3.466  12.213  0.00  0.00    +0.000 C 
BRANCH  38  39
ATOM     39  N   UNL     1       6.163   2.069  11.877  0.00  0.00    +0.000 NA
ATOM     40  H   UNL     1       6.326   1.486  12.695  0.00  0.00    +0.000 HD
ATOM     41  H   UNL     1       6.845   1.787  11.175  0.00  0.00    +0.000 HD
ENDBRANCH  38  39
ENDBRANCH  37  38
ENDBRANCH  36  37
ENDBRANCH  35  36
ENDBRANCH  30  35
ENDBRANCH  26  30
ENDBRANCH   1  27
BRANCH   5  42
ATOM     42  N   UNL     1       1.025  10.249  17.858  0.00  0.00    +0.000 N 
ATOM     43  H   UNL     1       0.484  10.951  18.349  0.00  0.00    +0.000 HD
ATOM     44  H   UNL     1       1.774  10.694  17.327  0.00  0.00    +0.000 HD
ENDBRANCH   5  42
TORSDOF 17
ENDMDL
MODEL 8
REMARK VINA RESULT:      -6.5      2.629      3.214
REMARK  Name = 
REMARK  18 active torsions:
REMARK  status: ('A' for Active; 'I' for Inactive)
REMARK    1  A    between atoms: C_1  and  O_2
REMARK    2  A    between atoms: O_2  and  C_3
REMARK    3  A    between atoms: C_3  and  C_5
REMARK    4  A    between atoms: C_5  and  C_6
REMARK    5  A    between atoms: C_5  and  N_11
REMARK    6  A    between atoms: C_6  and  C_7
REMARK    7  A    between atoms: C_7  and  C_8
REMARK    8  A    between atoms: C_8  and  C_9
REMARK    9  A    between atoms: C_9  and  N_10
REMARK   10  A    between atoms: C_12  and  C_14
REMARK   11  A    between atoms: C_17  and  N_18
REMARK   12  A    between atoms: C_19  and  C_21
REMARK   13  A    between atoms: C_21  and  N_22
REMARK   14  A    between atoms: C_21  and  C_23
REMARK   15  A    between atoms: C_23  and  C_24
REMARK   16  A    between atoms: C_24  and  C_25
REMARK   17  A    between atoms: C_25  and  N_26
REMARK   18  A    between atoms: C_30  and  N_31
REMARK                            x       y       z     vdW  Elec       q    Type
REMARK                         _______ _______ _______ _____ _____    ______ ____
ROOT
ATOM      1  C   UNL     1       2.234   7.332  19.337  0.00  0.00    +0.000 A 
ATOM      2  C   UNL     1       2.094   8.249  18.301  0.00  0.00    +0.000 A 
ATOM      3  C   UNL     1       1.462   9.466  18.534  0.00  0.00    +0.000 A 
ATOM      4  C   UNL     1       0.940   9.782  19.794  0.00  0.00    +0.000 A 
ATOM      5  C   UNL     1       1.014   8.829  20.838  0.00  0.00    +0.000 A 
ATOM      6  C   UNL     1       1.700   7.622  20.599  0.00  0.00    +0.000 A 
ENDROOT
BRANCH   4   7
ATOM      7  N   UNL     1       0.345  11.037  20.056  0.00  0.00    +0.000 N 
ATOM      8  C   UNL     1      -0.915  11.461  19.659  0.00  0.00    +0.000 C 
ATOM      9  O   UNL     1      -1.742  10.812  19.025  0.00  0.00    +0.000 OA
ATOM     10  H   UNL     1       0.939  11.701  20.529  0.00  0.00    +0.000 HD
BRANCH   8  11
ATOM     11  C   UNL     1      -1.253  12.901  20.083  0.00  0.00    +0.000 C 
BRANCH  11  12
ATOM     12  N   UNL     1      -1.141  13.814  18.932  0.00  0.00    +0.000 NA
ATOM     13  H   UNL     1      -2.053  14.123  18.614  0.00  0.00    +0.000 HD
ATOM     14  H   UNL     1      -0.732  13.295  18.148  0.00  0.00    +0.000 HD
ENDBRANCH  11  12
BRANCH  11  15
ATOM     15  C   UNL     1      -2.647  12.993  20.719  0.00  0.00    +0.000 C 
BRANCH  15  16
ATOM     16  C   UNL     1      -2.664  12.695  22.227  0.00  0.00    +0.000 C 
BRANCH  16  17
ATOM     17  C   UNL     1      -3.521  13.696  23.001  0.00  0.00    +0.000 C 
BRANCH  17  18
ATOM     18  N   UNL     1      -4.894  13.258  23.086  0.00  0.00    +0.000 N 
ATOM     19  C   UNL     1      -5.399  12.543  24.109  0.00  0.00    +0.000 C 
ATOM     20  N   UNL     1      -4.783  12.107  25.138  0.00  0.00    +0.000 NA
ATOM     21  N   UNL     1      -6.724  12.308  23.982  0.00  0.00    +0.000 N 
ATOM     22  H   UNL     1      -5.503  13.483  22.314  0.00  0.00    +0.000 HD
ATOM     23  H   UNL     1      -3.803  12.385  25.091  0.00  0.00    +0.000 HD
ATOM     24  H   UNL     1      -7.059  12.122  23.047  0.00  0.00    +0.000 HD
ATOM     25  H   UNL     1      -7.007  11.594  24.641  0.00  0.00    +0.000 HD
ENDBRANCH  17  18
ENDBRANCH  16  17
ENDBRANCH  15  16
ENDBRANCH  11  15
ENDBRANCH   8  11
ENDBRANCH   4   7
BRANCH   1  27
ATOM     26  N   UNL     1       3.141   5.663  17.822  0.00  0.00    +0.000 N 
ATOM     27  C   UNL     1       2.944   6.044  19.132  0.00  0.00    +0.000 C 
ATOM     28  O   UNL     1       3.340   5.400  20.094  0.00  0.00    +0.000 OA
ATOM     29  H   UNL     1       2.891   6.279  17.059  0.00  0.00    +0.000 HD
BRANCH  26  30
ATOM     30  C   UNL     1       3.919   4.472  17.471  0.00  0.00    +0.000 C 
BRANCH  30  31
ATOM     31  C   UNL     1       5.035   4.786  16.456  0.00  0.00    +0.000 C 
ATOM     32  O   UNL     1       5.413   5.918  16.174  0.00  0.00    +0.000 OA
BRANCH  31  34
ATOM     33  C   UNL     1       6.271   3.871  14.693  0.00  0.00    +0.000 C 
ATOM     34  O   UNL     1       5.585   3.652  15.930  0.00  0.00    +0.000 OA
ENDBRANCH  31  34
ENDBRANCH  30  31
BRANCH  30  35
ATOM     35  C   UNL     1       2.964   3.397  16.930  0.00  0.00    +0.000 C 
BRANCH  35  36
ATOM     36  C   UNL     1       2.922   2.099  17.748  0.00  0.00    +0.000 C 
BRANCH  36  37
ATOM     37  C   UNL     1       2.408   2.276  19.180  0.00  0.00    +0.000 C 
BRANCH  37  38
ATOM     38  C   UNL     1       0.952   2.734  19.192  0.00  0.00    +0.000 C 
BRANCH  38  39
ATOM     39  N   UNL     1       0.665   3.541  20.368  0.00  0.00    +0.000 NA
ATOM     40  H   UNL     1       1.094   3.119  21.189  0.00  0.00    +0.000 HD
ATOM     41  H   UNL     1      -0.342   3.537  20.528  0.00  0.00    +0.000 HD
ENDBRANCH  38  39
ENDBRANCH  37  38
ENDBRANCH  36  37
ENDBRANCH  35  36
ENDBRANCH  30  35
ENDBRANCH  26  30
ENDBRANCH   1  27
BRANCH   5  42
ATOM     42  N   UNL     1       0.625   9.119  22.159  0.00  0.00    +0.000 N 
ATOM     43  H   UNL     1      -0.335   8.884  22.384  0.00  0.00    +0.000 HD
ATOM     44  H   UNL     1       1.255   8.717  22.854  0.00  0.00    +0.000 HD
ENDBRANCH   5  42
TORSDOF 17
ENDMDL
MODEL 9
REMARK VINA RESULT:      -6.5      1.891      2.290
REMARK  Name = 
REMARK  18 active torsions:
REMARK  status: ('A' for Active; 'I' for Inactive)
REMARK    1  A    between atoms: C_1  and  O_2
REMARK    2  A    between atoms: O_2  and  C_3
REMARK    3  A    between atoms: C_3  and  C_5
REMARK    4  A    between atoms: C_5  and  C_6
REMARK    5  A    between atoms: C_5  and  N_11
REMARK    6  A    between atoms: C_6  and  C_7
REMARK    7  A    between atoms: C_7  and  C_8
REMARK    8  A    between atoms: C_8  and  C_9
REMARK    9  A    between atoms: C_9  and  N_10
REMARK   10  A    between atoms: C_12  and  C_14
REMARK   11  A    between atoms: C_17  and  N_18
REMARK   12  A    between atoms: C_19  and  C_21
REMARK   13  A    between atoms: C_21  and  N_22
REMARK   14  A    between atoms: C_21  and  C_23
REMARK   15  A    between atoms: C_23  and  C_24
REMARK   16  A    between atoms: C_24  and  C_25
REMARK   17  A    between atoms: C_25  and  N_26
REMARK   18  A    between atoms: C_30  and  N_31
REMARK                            x       y       z     vdW  Elec       q    Type
REMARK                         _______ _______ _______ _____ _____    ______ ____
ROOT
ATOM      1  C   UNL     1       2.971   6.951  18.827  0.00  0.00    +0.000 A 
ATOM      2  C   UNL     1       2.842   7.802  17.735  0.00  0.00    +0.000 A 
ATOM      3  C   UNL     1       1.990   8.899  17.809  0.00  0.00    +0.000 A 
ATOM      4  C   UNL     1       1.236   9.154  18.961  0.00  0.00    +0.000 A 
ATOM      5  C   UNL     1       1.305   8.256  20.053  0.00  0.00    +0.000 A 
ATOM      6  C   UNL     1       2.209   7.178  19.980  0.00  0.00    +0.000 A 
ENDROOT
BRANCH   4   7
ATOM      7  N   UNL     1       0.409  10.296  19.067  0.00  0.00    +0.000 N 
ATOM      8  C   UNL     1      -0.752  10.554  18.351  0.00  0.00    +0.000 C 
ATOM      9  O   UNL     1      -1.273   9.825  17.512  0.00  0.00    +0.000 OA
ATOM     10  H   UNL     1       0.750  11.013  19.688  0.00  0.00    +0.000 HD
BRANCH   8  11
ATOM     11  C   UNL     1      -1.404  11.907  18.684  0.00  0.00    +0.000 C 
BRANCH  11  12
ATOM     12  N   UNL     1      -1.106  12.892  17.631  0.00  0.00    +0.000 NA
ATOM     13  H   UNL     1      -0.144  13.210  17.683  0.00  0.00    +0.000 HD
ATOM     14  H   UNL     1      -1.684  13.723  17.794  0.00  0.00    +0.000 HD
ENDBRANCH  11  12
BRANCH  11  15
ATOM     15  C   UNL     1      -2.919  11.771  18.892  0.00  0.00    +0.000 C 
BRANCH  15  16
ATOM     16  C   UNL     1      -3.724  11.709  17.584  0.00  0.00    +0.000 C 
BRANCH  16  17
ATOM     17  C   UNL     1      -5.226  11.853  17.826  0.00  0.00    +0.000 C 
BRANCH  17  18
ATOM     18  N   UNL     1      -5.815  10.601  18.237  0.00  0.00    +0.000 N 
ATOM     19  C   UNL     1      -6.899  10.498  19.030  0.00  0.00    +0.000 C 
ATOM     20  N   UNL     1      -7.565  11.443  19.570  0.00  0.00    +0.000 NA
ATOM     21  N   UNL     1      -7.291   9.218  19.221  0.00  0.00    +0.000 N 
ATOM     22  H   UNL     1      -5.366   9.752  17.929  0.00  0.00    +0.000 HD
ATOM     23  H   UNL     1      -7.155  12.340  19.312  0.00  0.00    +0.000 HD
ATOM     24  H   UNL     1      -6.554   8.534  19.313  0.00  0.00    +0.000 HD
ATOM     25  H   UNL     1      -7.953   9.177  19.984  0.00  0.00    +0.000 HD
ENDBRANCH  17  18
ENDBRANCH  16  17
ENDBRANCH  15  16
ENDBRANCH  11  15
ENDBRANCH   8  11
ENDBRANCH   4   7
BRANCH   1  27
ATOM     26  N   UNL     1       4.132   5.235  17.557  0.00  0.00    +0.000 N 
ATOM     27  C   UNL     1       3.906   5.797  18.795  0.00  0.00    +0.000 C 
ATOM     28  O   UNL     1       4.447   5.416  19.825  0.00  0.00    +0.000 OA
ATOM     29  H   UNL     1       3.745   5.650  16.720  0.00  0.00    +0.000 HD
BRANCH  26  30
ATOM     30  C   UNL     1       5.111   4.162  17.362  0.00  0.00    +0.000 C 
BRANCH  30  31
ATOM     31  C   UNL     1       6.179   4.535  16.315  0.00  0.00    +0.000 C 
ATOM     32  O   UNL     1       7.383   4.574  16.543  0.00  0.00    +0.000 OA
BRANCH  31  34
ATOM     33  C   UNL     1       6.293   4.098  14.021  0.00  0.00    +0.000 C 
ATOM     34  O   UNL     1       5.632   4.783  15.089  0.00  0.00    +0.000 OA
ENDBRANCH  31  34
ENDBRANCH  30  31
BRANCH  30  35
ATOM     35  C   UNL     1       4.368   2.878  16.962  0.00  0.00    +0.000 C 
BRANCH  35  36
ATOM     36  C   UNL     1       3.640   2.168  18.112  0.00  0.00    +0.000 C 
BRANCH  36  37
ATOM     37  C   UNL     1       2.136   2.455  18.175  0.00  0.00    +0.000 C 
BRANCH  37  38
ATOM     38  C   UNL     1       1.642   2.501  19.618  0.00  0.00    +0.000 C 
BRANCH  38  39
ATOM     39  N   UNL     1       2.701   2.924  20.521  0.00  0.00    +0.000 NA
ATOM     40  H   UNL     1       2.319   3.534  21.241  0.00  0.00    +0.000 HD
ATOM     41  H   UNL     1       3.376   3.478  19.995  0.00  0.00    +0.000 HD
ENDBRANCH  38  39
ENDBRANCH  37  38
ENDBRANCH  36  37
ENDBRANCH  35  36
ENDBRANCH  30  35
ENDBRANCH  26  30
ENDBRANCH   1  27
BRANCH   5  42
ATOM     42  N   UNL     1       0.675   8.511  21.285  0.00  0.00    +0.000 N 
ATOM     43  H   UNL     1       0.493   9.489  21.478  0.00  0.00    +0.000 HD
ATOM     44  H   UNL     1      -0.177   7.965  21.414  0.00  0.00    +0.000 HD
ENDBRANCH   5  42
TORSDOF 17
ENDMDL
