MODEL 1
REMARK VINA RESULT:      -8.8      0.000      0.000
REMARK  Name = 
REMARK  5 active torsions:
REMARK  status: ('A' for Active; 'I' for Inactive)
REMARK    1  A    between atoms: C_1  and  C_2
REMARK    2  A    between atoms: C_2  and  C_3
REMARK    3  A    between atoms: C_2  and  N_4
REMARK    4  A    between atoms: C_12  and  N_13
REMARK    5  A    between atoms: C_14  and  C_16
REMARK                            x       y       z     vdW  Elec       q    Type
REMARK                         _______ _______ _______ _____ _____    ______ ____
ROOT
ATOM      1  N   UNL     1       2.677   3.434  19.070  0.00  0.00    +0.000 N 
ATOM      2  C   UNL     1       3.467   4.444  19.552  0.00  0.00    +0.000 C 
ATOM      3  O   UNL     1       3.105   5.201  20.448  0.00  0.00    +0.000 OA
ATOM      4  N   UNL     1       4.663   4.603  18.900  0.00  0.00    +0.000 N 
ATOM      5  C   UNL     1       5.157   3.784  17.762  0.00  0.00    +0.000 C 
ATOM      6  C   UNL     1       6.043   4.755  17.112  0.00  0.00    +0.000 A 
ATOM      7  N   UNL     1       6.641   4.768  15.930  0.00  0.00    +0.000 NA
ATOM      8  N   UNL     1       7.195   6.006  15.919  0.00  0.00    +0.000 N 
ATOM      9  C   UNL     1       6.945   6.754  17.063  0.00  0.00    +0.000 A 
ATOM     10  C   UNL     1       6.189   5.930  17.851  0.00  0.00    +0.000 A 
ATOM     11  C   UNL     1       5.437   5.858  19.111  0.00  0.00    +0.000 C 
ATOM     12  H   UNL     1       3.134   2.657  18.622  0.00  0.00    +0.000 HD
ATOM     13  H   UNL     1       7.706   6.325  15.101  0.00  0.00    +0.000 HD
ENDROOT
BRANCH   9  14
ATOM     14  N   UNL     1       7.396   8.051  17.234  0.00  0.00    +0.000 N 
ATOM     15  C   UNL     1       8.269   8.352  18.269  0.00  0.00    +0.000 C 
ATOM     16  O   UNL     1       8.706   7.527  19.068  0.00  0.00    +0.000 OA
ATOM     17  H   UNL     1       7.123   8.748  16.553  0.00  0.00    +0.000 HD
BRANCH  15  18
ATOM     18  C   UNL     1       8.708   9.767  18.414  0.00  0.00    +0.000 A 
ATOM     19  C   UNL     1       8.303  10.791  17.532  0.00  0.00    +0.000 A 
ATOM     20  C   UNL     1       8.699  12.117  17.758  0.00  0.00    +0.000 A 
ATOM     21  C   UNL     1       9.484  12.380  18.862  0.00  0.00    +0.000 A 
ATOM     22  C   UNL     1       9.877  11.384  19.721  0.00  0.00    +0.000 A 
ATOM     23  C   UNL     1       9.507  10.072  19.529  0.00  0.00    +0.000 A 
ATOM     24  O   UNL     1      10.634  11.848  20.750  0.00  0.00    +0.000 OA
ATOM     25  C   UNL     1      10.694  13.253  20.428  0.00  0.00    +0.000 C 
ATOM     26  O   UNL     1       9.944  13.600  19.244  0.00  0.00    +0.000 OA
ENDBRANCH  15  18
ENDBRANCH   9  14
BRANCH   1  28
ATOM     27  C   UNL     1       0.627   2.194  18.640  0.00  0.00    +0.000 C 
ATOM     28  C   UNL     1       1.322   3.205  19.546  0.00  0.00    +0.000 C 
ATOM     29  C   UNL     1       1.350   2.718  20.990  0.00  0.00    +0.000 C 
ENDBRANCH   1  28
TORSDOF 3
ENDMDL
MODEL 2
REMARK VINA RESULT:      -8.6      7.252      9.487
REMARK  Name = 
REMARK  5 active torsions:
REMARK  status: ('A' for Active; 'I' for Inactive)
REMARK    1  A    between atoms: C_1  and  C_2
REMARK    2  A    between atoms: C_2  and  C_3
REMARK    3  A    between atoms: C_2  and  N_4
REMARK    4  A    between atoms: C_12  and  N_13
REMARK    5  A    between atoms: C_14  and  C_16
REMARK                            x       y       z     vdW  Elec       q    Type
REMARK                         _______ _______ _______ _____ _____    ______ ____
ROOT
ATOM      1  N   UNL     1      -4.439  11.961  17.811  0.00  0.00    +0.000 N 
ATOM      2  C   UNL     1      -3.455  11.136  17.333  0.00  0.00    +0.000 C 
ATOM      3  O   UNL     1      -3.670  10.250  16.513  0.00  0.00    +0.000 OA
ATOM      4  N   UNL     1      -2.221  11.320  17.904  0.00  0.00    +0.000 N 
ATOM      5  C   UNL     1      -1.879  12.318  18.952  0.00  0.00    +0.000 C 
ATOM      6  C   UNL     1      -0.746  11.640  19.592  0.00  0.00    +0.000 A 
ATOM      7  N   UNL     1      -0.098  11.860  20.726  0.00  0.00    +0.000 NA
ATOM      8  N   UNL     1       0.742  10.796  20.770  0.00  0.00    +0.000 N 
ATOM      9  C   UNL     1       0.619   9.926  19.695  0.00  0.00    +0.000 A 
ATOM     10  C   UNL     1      -0.359  10.482  18.916  0.00  0.00    +0.000 A 
ATOM     11  C   UNL     1      -1.177  10.276  17.713  0.00  0.00    +0.000 C 
ATOM     12  H   UNL     1      -4.162  12.857  18.177  0.00  0.00    +0.000 HD
ATOM     13  H   UNL     1       1.361  10.672  21.566  0.00  0.00    +0.000 HD
ENDROOT
BRANCH   9  14
ATOM     14  N   UNL     1       1.363   8.767  19.568  0.00  0.00    +0.000 N 
ATOM     15  C   UNL     1       2.093   8.531  18.412  0.00  0.00    +0.000 C 
ATOM     16  O   UNL     1       2.150   9.307  17.460  0.00  0.00    +0.000 OA
ATOM     17  H   UNL     1       1.408   8.136  20.359  0.00  0.00    +0.000 HD
BRANCH  15  18
ATOM     18  C   UNL     1       2.862   7.261  18.326  0.00  0.00    +0.000 A 
ATOM     19  C   UNL     1       3.914   7.060  17.407  0.00  0.00    +0.000 A 
ATOM     20  C   UNL     1       4.646   5.864  17.418  0.00  0.00    +0.000 A 
ATOM     21  C   UNL     1       4.304   4.905  18.350  0.00  0.00    +0.000 A 
ATOM     22  C   UNL     1       3.282   5.100  19.244  0.00  0.00    +0.000 A 
ATOM     23  C   UNL     1       2.545   6.262  19.262  0.00  0.00    +0.000 A 
ATOM     24  O   UNL     1       3.112   4.045  20.084  0.00  0.00    +0.000 OA
ATOM     25  C   UNL     1       4.134   3.148  19.601  0.00  0.00    +0.000 C 
ATOM     26  O   UNL     1       4.911   3.699  18.516  0.00  0.00    +0.000 OA
ENDBRANCH  15  18
ENDBRANCH   9  14
BRANCH   1  28
ATOM     27  C   UNL     1      -6.576  11.002  18.474  0.00  0.00    +0.000 C 
ATOM     28  C   UNL     1      -5.833  11.821  17.423  0.00  0.00    +0.000 C 
ATOM     29  C   UNL     1      -6.469  13.195  17.248  0.00  0.00    +0.000 C 
ENDBRANCH   1  28
TORSDOF 3
ENDMDL
MODEL 3
REMARK VINA RESULT:      -8.5      7.351      8.682
REMARK  Name = 
REMARK  5 active torsions:
REMARK  status: ('A' for Active; 'I' for Inactive)
REMARK    1  A    between atoms: C_1  and  C_2
REMARK    2  A    between atoms: C_2  and  C_3
REMARK    3  A    between atoms: C_2  and  N_4
REMARK    4  A    between atoms: C_12  and  N_13
REMARK    5  A    between atoms: C_14  and  C_16
REMARK                            x       y       z     vdW  Elec       q    Type
REMARK                         _______ _______ _______ _____ _____    ______ ____
ROOT
ATOM      1  N   UNL     1       2.619   4.415  18.939  0.00  0.00    +0.000 N 
ATOM      2  C   UNL     1       2.305   5.259  19.971  0.00  0.00    +0.000 C 
ATOM      3  O   UNL     1       1.903   4.860  21.058  0.00  0.00    +0.000 OA
ATOM      4  N   UNL     1       2.392   6.595  19.670  0.00  0.00    +0.000 N 
ATOM      5  C   UNL     1       2.802   7.175  18.363  0.00  0.00    +0.000 C 
ATOM      6  C   UNL     1       2.098   8.461  18.422  0.00  0.00    +0.000 A 
ATOM      7  N   UNL     1       1.848   9.385  17.506  0.00  0.00    +0.000 NA
ATOM      8  N   UNL     1       1.052  10.240  18.193  0.00  0.00    +0.000 N 
ATOM      9  C   UNL     1       0.802   9.859  19.505  0.00  0.00    +0.000 A 
ATOM     10  C   UNL     1       1.493   8.689  19.658  0.00  0.00    +0.000 A 
ATOM     11  C   UNL     1       1.761   7.583  20.588  0.00  0.00    +0.000 C 
ATOM     12  H   UNL     1       3.259   4.750  18.238  0.00  0.00    +0.000 HD
ATOM     13  H   UNL     1       0.664  11.056  17.728  0.00  0.00    +0.000 HD
ENDROOT
BRANCH   9  14
ATOM     14  N   UNL     1      -0.010  10.580  20.363  0.00  0.00    +0.000 N 
ATOM     15  C   UNL     1       0.493  11.687  21.030  0.00  0.00    +0.000 C 
ATOM     16  O   UNL     1       1.640  12.109  20.903  0.00  0.00    +0.000 OA
ATOM     17  H   UNL     1      -0.984  10.315  20.438  0.00  0.00    +0.000 HD
BRANCH  15  18
ATOM     18  C   UNL     1      -0.422  12.414  21.951  0.00  0.00    +0.000 A 
ATOM     19  C   UNL     1      -0.253  13.775  22.286  0.00  0.00    +0.000 A 
ATOM     20  C   UNL     1      -1.186  14.423  23.109  0.00  0.00    +0.000 A 
ATOM     21  C   UNL     1      -2.262  13.691  23.569  0.00  0.00    +0.000 A 
ATOM     22  C   UNL     1      -2.427  12.368  23.243  0.00  0.00    +0.000 A 
ATOM     23  C   UNL     1      -1.532  11.702  22.438  0.00  0.00    +0.000 A 
ATOM     24  O   UNL     1      -3.552  11.831  23.784  0.00  0.00    +0.000 OA
ATOM     25  C   UNL     1      -4.068  12.965  24.512  0.00  0.00    +0.000 C 
ATOM     26  O   UNL     1      -3.267  14.156  24.358  0.00  0.00    +0.000 OA
ENDBRANCH  15  18
ENDBRANCH   9  14
BRANCH   1  28
ATOM     27  C   UNL     1       1.024   2.598  18.655  0.00  0.00    +0.000 C 
ATOM     28  C   UNL     1       2.454   2.973  19.031  0.00  0.00    +0.000 C 
ATOM     29  C   UNL     1       3.460   2.272  18.126  0.00  0.00    +0.000 C 
ENDBRANCH   1  28
TORSDOF 3
ENDMDL
MODEL 4
REMARK VINA RESULT:      -8.4      7.310      9.301
REMARK  Name = 
REMARK  5 active torsions:
REMARK  status: ('A' for Active; 'I' for Inactive)
REMARK    1  A    between atoms: C_1  and  C_2
REMARK    2  A    between atoms: C_2  and  C_3
REMARK    3  A    between atoms: C_2  and  N_4
REMARK    4  A    between atoms: C_12  and  N_13
REMARK    5  A    between atoms: C_14  and  C_16
REMARK                            x       y       z     vdW  Elec       q    Type
REMARK                         _______ _______ _______ _____ _____    ______ ____
ROOT
ATOM      1  N   UNL     1      -4.498  11.931  17.990  0.00  0.00    +0.000 N 
ATOM      2  C   UNL     1      -3.502  11.185  17.417  0.00  0.00    +0.000 C 
ATOM      3  O   UNL     1      -3.706  10.398  16.498  0.00  0.00    +0.000 OA
ATOM      4  N   UNL     1      -2.270  11.320  18.004  0.00  0.00    +0.000 N 
ATOM      5  C   UNL     1      -1.940  12.193  19.162  0.00  0.00    +0.000 C 
ATOM      6  C   UNL     1      -0.795  11.463  19.716  0.00  0.00    +0.000 A 
ATOM      7  N   UNL     1      -0.147  11.559  20.867  0.00  0.00    +0.000 NA
ATOM      8  N   UNL     1       0.710  10.511  20.784  0.00  0.00    +0.000 N 
ATOM      9  C   UNL     1       0.598   9.772  19.614  0.00  0.00    +0.000 A 
ATOM     10  C   UNL     1      -0.391  10.399  18.908  0.00  0.00    +0.000 A 
ATOM     11  C   UNL     1      -1.209  10.323  17.690  0.00  0.00    +0.000 C 
ATOM     12  H   UNL     1      -4.234  12.782  18.459  0.00  0.00    +0.000 HD
ATOM     13  H   UNL     1       1.335  10.304  21.559  0.00  0.00    +0.000 HD
ENDROOT
BRANCH   9  14
ATOM     14  N   UNL     1       1.361   8.647  19.350  0.00  0.00    +0.000 N 
ATOM     15  C   UNL     1       2.149   8.593  18.210  0.00  0.00    +0.000 C 
ATOM     16  O   UNL     1       2.244   9.505  17.391  0.00  0.00    +0.000 OA
ATOM     17  H   UNL     1       1.373   7.904  20.038  0.00  0.00    +0.000 HD
BRANCH  15  18
ATOM     18  C   UNL     1       2.936   7.353  17.971  0.00  0.00    +0.000 A 
ATOM     19  C   UNL     1       2.550   6.091  18.471  0.00  0.00    +0.000 A 
ATOM     20  C   UNL     1       3.299   4.947  18.157  0.00  0.00    +0.000 A 
ATOM     21  C   UNL     1       4.408   5.100  17.351  0.00  0.00    +0.000 A 
ATOM     22  C   UNL     1       4.783   6.328  16.864  0.00  0.00    +0.000 A 
ATOM     23  C   UNL     1       4.071   7.470  17.151  0.00  0.00    +0.000 A 
ATOM     24  O   UNL     1       5.893   6.265  16.082  0.00  0.00    +0.000 OA
ATOM     25  C   UNL     1       6.190   4.855  16.149  0.00  0.00    +0.000 C 
ATOM     26  O   UNL     1       5.237   4.106  16.933  0.00  0.00    +0.000 OA
ENDBRANCH  15  18
ENDBRANCH   9  14
BRANCH   1  28
ATOM     27  C   UNL     1      -6.645  10.964  18.607  0.00  0.00    +0.000 C 
ATOM     28  C   UNL     1      -5.891  11.815  17.590  0.00  0.00    +0.000 C 
ATOM     29  C   UNL     1      -6.517  13.199  17.463  0.00  0.00    +0.000 C 
ENDBRANCH   1  28
TORSDOF 3
ENDMDL
MODEL 5
REMARK VINA RESULT:      -8.4      6.289      8.730
REMARK  Name = 
REMARK  5 active torsions:
REMARK  status: ('A' for Active; 'I' for Inactive)
REMARK    1  A    between atoms: C_1  and  C_2
REMARK    2  A    between atoms: C_2  and  C_3
REMARK    3  A    between atoms: C_2  and  N_4
REMARK    4  A    between atoms: C_12  and  N_13
REMARK    5  A    between atoms: C_14  and  C_16
REMARK                            x       y       z     vdW  Elec       q    Type
REMARK                         _______ _______ _______ _____ _____    ______ ____
ROOT
ATOM      1  N   UNL     1      -3.038  11.678  19.268  0.00  0.00    +0.000 N 
ATOM      2  C   UNL     1      -1.942  11.387  18.499  0.00  0.00    +0.000 C 
ATOM      3  O   UNL     1      -1.958  11.442  17.273  0.00  0.00    +0.000 OA
ATOM      4  N   UNL     1      -0.847  10.948  19.197  0.00  0.00    +0.000 N 
ATOM      5  C   UNL     1      -0.755  10.783  20.672  0.00  0.00    +0.000 C 
ATOM      6  C   UNL     1       0.272   9.738  20.750  0.00  0.00    +0.000 A 
ATOM      7  N   UNL     1       0.686   8.966  21.743  0.00  0.00    +0.000 NA
ATOM      8  N   UNL     1       1.555   8.144  21.103  0.00  0.00    +0.000 N 
ATOM      9  C   UNL     1       1.677   8.390  19.742  0.00  0.00    +0.000 A 
ATOM     10  C   UNL     1       0.834   9.441  19.508  0.00  0.00    +0.000 A 
ATOM     11  C   UNL     1       0.265  10.293  18.455  0.00  0.00    +0.000 C 
ATOM     12  H   UNL     1      -2.878  11.962  20.221  0.00  0.00    +0.000 HD
ATOM     13  H   UNL     1       2.022   7.401  21.617  0.00  0.00    +0.000 HD
ENDROOT
BRANCH   9  14
ATOM     14  N   UNL     1       2.489   7.643  18.906  0.00  0.00    +0.000 N 
ATOM     15  C   UNL     1       2.580   6.269  19.071  0.00  0.00    +0.000 C 
ATOM     16  O   UNL     1       1.961   5.631  19.920  0.00  0.00    +0.000 OA
ATOM     17  H   UNL     1       2.956   8.116  18.143  0.00  0.00    +0.000 HD
BRANCH  15  18
ATOM     18  C   UNL     1       3.480   5.520  18.153  0.00  0.00    +0.000 A 
ATOM     19  C   UNL     1       3.494   4.111  18.070  0.00  0.00    +0.000 A 
ATOM     20  C   UNL     1       4.319   3.465  17.138  0.00  0.00    +0.000 A 
ATOM     21  C   UNL     1       5.103   4.247  16.315  0.00  0.00    +0.000 A 
ATOM     22  C   UNL     1       5.090   5.618  16.395  0.00  0.00    +0.000 A 
ATOM     23  C   UNL     1       4.292   6.284  17.296  0.00  0.00    +0.000 A 
ATOM     24  O   UNL     1       5.921   6.203  15.493  0.00  0.00    +0.000 OA
ATOM     25  C   UNL     1       6.480   5.041  14.848  0.00  0.00    +0.000 C 
ATOM     26  O   UNL     1       5.946   3.796  15.348  0.00  0.00    +0.000 OA
ENDBRANCH  15  18
ENDBRANCH   9  14
BRANCH   1  28
ATOM     27  C   UNL     1      -5.044  10.759  18.240  0.00  0.00    +0.000 C 
ATOM     28  C   UNL     1      -4.327  12.026  18.694  0.00  0.00    +0.000 C 
ATOM     29  C   UNL     1      -5.163  12.794  19.710  0.00  0.00    +0.000 C 
ENDBRANCH   1  28
TORSDOF 3
ENDMDL
MODEL 6
REMARK VINA RESULT:      -8.2      0.771      1.496
REMARK  Name = 
REMARK  5 active torsions:
REMARK  status: ('A' for Active; 'I' for Inactive)
REMARK    1  A    between atoms: C_1  and  C_2
REMARK    2  A    between atoms: C_2  and  C_3
REMARK    3  A    between atoms: C_2  and  N_4
REMARK    4  A    between atoms: C_12  and  N_13
REMARK    5  A    between atoms: C_14  and  C_16
REMARK                            x       y       z     vdW  Elec       q    Type
REMARK                         _______ _______ _______ _____ _____    ______ ____
ROOT
ATOM      1  N   UNL     1       2.748   3.435  19.077  0.00  0.00    +0.000 N 
ATOM      2  C   UNL     1       3.546   4.436  19.563  0.00  0.00    +0.000 C 
ATOM      3  O   UNL     1       3.201   5.178  20.476  0.00  0.00    +0.000 OA
ATOM      4  N   UNL     1       4.732   4.604  18.894  0.00  0.00    +0.000 N 
ATOM      5  C   UNL     1       5.207   3.802  17.735  0.00  0.00    +0.000 C 
ATOM      6  C   UNL     1       6.084   4.783  17.087  0.00  0.00    +0.000 A 
ATOM      7  N   UNL     1       6.662   4.815  15.895  0.00  0.00    +0.000 NA
ATOM      8  N   UNL     1       7.218   6.052  15.896  0.00  0.00    +0.000 N 
ATOM      9  C   UNL     1       6.988   6.781  17.055  0.00  0.00    +0.000 A 
ATOM     10  C   UNL     1       6.244   5.946  17.841  0.00  0.00    +0.000 A 
ATOM     11  C   UNL     1       5.511   5.854  19.112  0.00  0.00    +0.000 C 
ATOM     12  H   UNL     1       3.196   2.664  18.609  0.00  0.00    +0.000 HD
ATOM     13  H   UNL     1       7.717   6.384  15.075  0.00  0.00    +0.000 HD
ENDROOT
BRANCH   9  14
ATOM     14  N   UNL     1       7.444   8.075  17.240  0.00  0.00    +0.000 N 
ATOM     15  C   UNL     1       8.284   8.370  18.303  0.00  0.00    +0.000 C 
ATOM     16  O   UNL     1       8.688   7.542  19.117  0.00  0.00    +0.000 OA
ATOM     17  H   UNL     1       7.199   8.774  16.549  0.00  0.00    +0.000 HD
BRANCH  15  18
ATOM     18  C   UNL     1       8.730   9.781  18.461  0.00  0.00    +0.000 A 
ATOM     19  C   UNL     1       9.847  10.151  19.240  0.00  0.00    +0.000 A 
ATOM     20  C   UNL     1      10.257  11.491  19.298  0.00  0.00    +0.000 A 
ATOM     21  C   UNL     1       9.539  12.420  18.573  0.00  0.00    +0.000 A 
ATOM     22  C   UNL     1       8.453  12.060  17.815  0.00  0.00    +0.000 A 
ATOM     23  C   UNL     1       8.024  10.756  17.735  0.00  0.00    +0.000 A 
ATOM     24  O   UNL     1       7.891  13.117  17.170  0.00  0.00    +0.000 OA
ATOM     25  C   UNL     1       8.737  14.192  17.627  0.00  0.00    +0.000 C 
ATOM     26  O   UNL     1       9.801  13.752  18.498  0.00  0.00    +0.000 OA
ENDBRANCH  15  18
ENDBRANCH   9  14
BRANCH   1  28
ATOM     27  C   UNL     1       0.670   2.247  18.629  0.00  0.00    +0.000 C 
ATOM     28  C   UNL     1       1.400   3.200  19.571  0.00  0.00    +0.000 C 
ATOM     29  C   UNL     1       1.452   2.638  20.986  0.00  0.00    +0.000 C 
ENDBRANCH   1  28
TORSDOF 3
ENDMDL
MODEL 7
REMARK VINA RESULT:      -8.2      1.262      1.770
REMARK  Name = 
REMARK  5 active torsions:
REMARK  status: ('A' for Active; 'I' for Inactive)
REMARK    1  A    between atoms: C_1  and  C_2
REMARK    2  A    between atoms: C_2  and  C_3
REMARK    3  A    between atoms: C_2  and  N_4
REMARK    4  A    between atoms: C_12  and  N_13
REMARK    5  A    between atoms: C_14  and  C_16
REMARK                            x       y       z     vdW  Elec       q    Type
REMARK                         _______ _______ _______ _____ _____    ______ ____
ROOT
ATOM      1  N   UNL     1       3.328   3.600  18.490  0.00  0.00    +0.000 N 
ATOM      2  C   UNL     1       4.222   4.233  19.312  0.00  0.00    +0.000 C 
ATOM      3  O   UNL     1       3.951   4.559  20.464  0.00  0.00    +0.000 OA
ATOM      4  N   UNL     1       5.419   4.553  18.724  0.00  0.00    +0.000 N 
ATOM      5  C   UNL     1       5.812   4.263  17.320  0.00  0.00    +0.000 C 
ATOM      6  C   UNL     1       6.784   5.339  17.098  0.00  0.00    +0.000 A 
ATOM      7  N   UNL     1       7.363   5.807  16.003  0.00  0.00    +0.000 NA
ATOM      8  N   UNL     1       8.040   6.877  16.490  0.00  0.00    +0.000 N 
ATOM      9  C   UNL     1       7.883   7.080  17.855  0.00  0.00    +0.000 A 
ATOM     10  C   UNL     1       7.058   6.065  18.257  0.00  0.00    +0.000 A 
ATOM     11  C   UNL     1       6.319   5.524  19.406  0.00  0.00    +0.000 C 
ATOM     12  H   UNL     1       3.696   3.054  17.729  0.00  0.00    +0.000 HD
ATOM     13  H   UNL     1       8.570   7.472  15.858  0.00  0.00    +0.000 HD
ENDROOT
BRANCH   9  14
ATOM     14  N   UNL     1       8.466   8.133  18.537  0.00  0.00    +0.000 N 
ATOM     15  C   UNL     1       8.307   9.432  18.078  0.00  0.00    +0.000 C 
ATOM     16  O   UNL     1       7.651   9.740  17.086  0.00  0.00    +0.000 OA
ATOM     17  H   UNL     1       8.951   7.934  19.403  0.00  0.00    +0.000 HD
BRANCH  15  18
ATOM     18  C   UNL     1       8.970  10.522  18.844  0.00  0.00    +0.000 A 
ATOM     19  C   UNL     1       9.299  10.410  20.212  0.00  0.00    +0.000 A 
ATOM     20  C   UNL     1       9.982  11.447  20.863  0.00  0.00    +0.000 A 
ATOM     21  C   UNL     1      10.317  12.565  20.126  0.00  0.00    +0.000 A 
ATOM     22  C   UNL     1       9.998  12.674  18.795  0.00  0.00    +0.000 A 
ATOM     23  C   UNL     1       9.329  11.675  18.125  0.00  0.00    +0.000 A 
ATOM     24  O   UNL     1      10.425  13.843  18.248  0.00  0.00    +0.000 OA
ATOM     25  C   UNL     1      11.033  14.471  19.395  0.00  0.00    +0.000 C 
ATOM     26  O   UNL     1      10.990  13.653  20.585  0.00  0.00    +0.000 OA
ENDBRANCH  15  18
ENDBRANCH   9  14
BRANCH   1  28
ATOM     27  C   UNL     1       0.988   3.923  17.900  0.00  0.00    +0.000 C 
ATOM     28  C   UNL     1       1.963   3.306  18.898  0.00  0.00    +0.000 C 
ATOM     29  C   UNL     1       1.760   1.799  19.002  0.00  0.00    +0.000 C 
ENDBRANCH   1  28
TORSDOF 3
ENDMDL
MODEL 8
REMARK VINA RESULT:      -8.1      7.322      9.832
REMARK  Name = 
REMARK  5 active torsions:
REMARK  status: ('A' for Active; 'I' for Inactive)
REMARK    1  A    between atoms: C_1  and  C_2
REMARK    2  A    between atoms: C_2  and  C_3
REMARK    3  A    between atoms: C_2  and  N_4
REMARK    4  A    between atoms: C_12  and  N_13
REMARK    5  A    between atoms: C_14  and  C_16
REMARK                            x       y       z     vdW  Elec       q    Type
REMARK                         _______ _______ _______ _____ _____    ______ ____
ROOT
ATOM      1  N   UNL     1      -4.557  12.236  18.818  0.00  0.00    +0.000 N 
ATOM      2  C   UNL     1      -3.683  11.484  18.079  0.00  0.00    +0.000 C 
ATOM      3  O   UNL     1      -4.049  10.712  17.199  0.00  0.00    +0.000 OA
ATOM      4  N   UNL     1      -2.368  11.594  18.454  0.00  0.00    +0.000 N 
ATOM      5  C   UNL     1      -1.837  12.447  19.549  0.00  0.00    +0.000 C 
ATOM      6  C   UNL     1      -0.627  11.694  19.897  0.00  0.00    +0.000 A 
ATOM      7  N   UNL     1       0.206  11.767  20.925  0.00  0.00    +0.000 NA
ATOM      8  N   UNL     1       1.020  10.708  20.689  0.00  0.00    +0.000 N 
ATOM      9  C   UNL     1       0.702   9.985  19.546  0.00  0.00    +0.000 A 
ATOM     10  C   UNL     1      -0.380  10.636  19.022  0.00  0.00    +0.000 A 
ATOM     11  C   UNL     1      -1.391  10.587  17.956  0.00  0.00    +0.000 C 
ATOM     12  H   UNL     1      -4.206  13.077  19.245  0.00  0.00    +0.000 HD
ATOM     13  H   UNL     1       1.762  10.482  21.347  0.00  0.00    +0.000 HD
ENDROOT
BRANCH   9  14
ATOM     14  N   UNL     1       1.393   8.854  19.148  0.00  0.00    +0.000 N 
ATOM     15  C   UNL     1       1.686   7.858  20.067  0.00  0.00    +0.000 C 
ATOM     16  O   UNL     1       1.355   7.890  21.250  0.00  0.00    +0.000 OA
ATOM     17  H   UNL     1       1.617   8.750  18.166  0.00  0.00    +0.000 HD
BRANCH  15  18
ATOM     18  C   UNL     1       2.444   6.672  19.585  0.00  0.00    +0.000 A 
ATOM     19  C   UNL     1       3.303   6.713  18.466  0.00  0.00    +0.000 A 
ATOM     20  C   UNL     1       4.041   5.578  18.099  0.00  0.00    +0.000 A 
ATOM     21  C   UNL     1       3.899   4.438  18.863  0.00  0.00    +0.000 A 
ATOM     22  C   UNL     1       3.064   4.399  19.952  0.00  0.00    +0.000 A 
ATOM     23  C   UNL     1       2.327   5.493  20.340  0.00  0.00    +0.000 A 
ATOM     24  O   UNL     1       3.074   3.191  20.576  0.00  0.00    +0.000 OA
ATOM     25  C   UNL     1       3.998   2.463  19.741  0.00  0.00    +0.000 C 
ATOM     26  O   UNL     1       4.544   3.258  18.666  0.00  0.00    +0.000 OA
ENDBRANCH  15  18
ENDBRANCH   9  14
BRANCH   1  28
ATOM     27  C   UNL     1      -6.684  12.444  19.984  0.00  0.00    +0.000 C 
ATOM     28  C   UNL     1      -6.000  12.145  18.655  0.00  0.00    +0.000 C 
ATOM     29  C   UNL     1      -6.466  13.108  17.569  0.00  0.00    +0.000 C 
ENDBRANCH   1  28
TORSDOF 3
ENDMDL
MODEL 9
REMARK VINA RESULT:      -8.0      7.412      9.784
REMARK  Name = 
REMARK  5 active torsions:
REMARK  status: ('A' for Active; 'I' for Inactive)
REMARK    1  A    between atoms: C_1  and  C_2
REMARK    2  A    between atoms: C_2  and  C_3
REMARK    3  A    between atoms: C_2  and  N_4
REMARK    4  A    between atoms: C_12  and  N_13
REMARK    5  A    between atoms: C_14  and  C_16
REMARK                            x       y       z     vdW  Elec       q    Type
REMARK                         _______ _______ _______ _____ _____    ______ ____
ROOT
ATOM      1  N   UNL     1      -4.586  12.385  18.890  0.00  0.00    +0.000 N 
ATOM      2  C   UNL     1      -3.783  11.535  18.176  0.00  0.00    +0.000 C 
ATOM      3  O   UNL     1      -4.228  10.674  17.424  0.00  0.00    +0.000 OA
ATOM      4  N   UNL     1      -2.441  11.661  18.429  0.00  0.00    +0.000 N 
ATOM      5  C   UNL     1      -1.812  12.625  19.372  0.00  0.00    +0.000 C 
ATOM      6  C   UNL     1      -0.586  11.893  19.706  0.00  0.00    +0.000 A 
ATOM      7  N   UNL     1       0.329  12.066  20.649  0.00  0.00    +0.000 NA
ATOM      8  N   UNL     1       1.110  10.971  20.474  0.00  0.00    +0.000 N 
ATOM      9  C   UNL     1       0.692  10.128  19.452  0.00  0.00    +0.000 A 
ATOM     10  C   UNL     1      -0.423  10.736  18.944  0.00  0.00    +0.000 A 
ATOM     11  C   UNL     1      -1.518  10.584  17.975  0.00  0.00    +0.000 C 
ATOM     12  H   UNL     1      -4.192  13.262  19.186  0.00  0.00    +0.000 HD
ATOM     13  H   UNL     1       1.900  10.808  21.092  0.00  0.00    +0.000 HD
ENDROOT
BRANCH   9  14
ATOM     14  N   UNL     1       1.335   8.945  19.134  0.00  0.00    +0.000 N 
ATOM     15  C   UNL     1       1.581   8.001  20.119  0.00  0.00    +0.000 C 
ATOM     16  O   UNL     1       1.246   8.124  21.295  0.00  0.00    +0.000 OA
ATOM     17  H   UNL     1       1.560   8.767  18.163  0.00  0.00    +0.000 HD
BRANCH  15  18
ATOM     18  C   UNL     1       2.290   6.754  19.721  0.00  0.00    +0.000 A 
ATOM     19  C   UNL     1       2.196   5.551  20.452  0.00  0.00    +0.000 A 
ATOM     20  C   UNL     1       2.836   4.391  19.990  0.00  0.00    +0.000 A 
ATOM     21  C   UNL     1       3.548   4.470  18.810  0.00  0.00    +0.000 A 
ATOM     22  C   UNL     1       3.638   5.640  18.099  0.00  0.00    +0.000 A 
ATOM     23  C   UNL     1       3.023   6.796  18.522  0.00  0.00    +0.000 A 
ATOM     24  O   UNL     1       4.372   5.507  16.963  0.00  0.00    +0.000 OA
ATOM     25  C   UNL     1       4.755   4.119  17.050  0.00  0.00    +0.000 C 
ATOM     26  O   UNL     1       4.213   3.448  18.208  0.00  0.00    +0.000 OA
ENDBRANCH  15  18
ENDBRANCH   9  14
BRANCH   1  28
ATOM     27  C   UNL     1      -6.547  11.698  20.158  0.00  0.00    +0.000 C 
ATOM     28  C   UNL     1      -6.038  12.304  18.854  0.00  0.00    +0.000 C 
ATOM     29  C   UNL     1      -6.634  13.688  18.623  0.00  0.00    +0.000 C 
ENDBRANCH   1  28
TORSDOF 3
ENDMDL
