MODEL 1
REMARK VINA RESULT:      -9.2      0.000      0.000
REMARK  Name = 
REMARK  7 active torsions:
REMARK  status: ('A' for Active; 'I' for Inactive)
REMARK    1  A    between atoms: C_1  and  C_2
REMARK    2  A    between atoms: C_2  and  C_3
REMARK    3  A    between atoms: C_2  and  N_4
REMARK    4  A    between atoms: N_4  and  C_5
REMARK    5  A    between atoms: C_9  and  C_10
REMARK    6  A    between atoms: C_16  and  C_17
REMARK    7  A    between atoms: C_20  and  C_21
REMARK                            x       y       z     vdW  Elec       q    Type
REMARK                         _______ _______ _______ _____ _____    ______ ____
ROOT
ATOM      1  C   UNL     1       4.631   5.228  17.885  0.00  0.00    +0.000 A 
ATOM      2  C   UNL     1       4.630   4.222  18.866  0.00  0.00    +0.000 A 
ATOM      3  C   UNL     1       3.784   4.290  19.953  0.00  0.00    +0.000 A 
ATOM      4  C   UNL     1       2.948   5.387  19.976  0.00  0.00    +0.000 A 
ATOM      5  N   UNL     1       1.993   5.735  20.877  0.00  0.00    +0.000 N 
ATOM      6  N   UNL     1       1.407   6.894  20.635  0.00  0.00    +0.000 NA
ATOM      7  C   UNL     1       2.034   7.369  19.540  0.00  0.00    +0.000 A 
ATOM      8  C   UNL     1       2.975   6.408  19.016  0.00  0.00    +0.000 A 
ATOM      9  N   UNL     1       3.823   6.343  17.927  0.00  0.00    +0.000 NA
ATOM     10  H   UNL     1       1.705   5.222  21.704  0.00  0.00    +0.000 HD
ENDROOT
BRANCH   7  11
ATOM     11  C   UNL     1       1.698   8.795  19.176  0.00  0.00    +0.000 A 
ATOM     12  N   UNL     1       0.722   9.450  19.790  0.00  0.00    +0.000 NA
ATOM     13  C   UNL     1       0.849  10.775  19.450  0.00  0.00    +0.000 A 
ATOM     14  C   UNL     1       0.207  11.935  19.936  0.00  0.00    +0.000 A 
ATOM     15  N   UNL     1       0.557  13.159  19.442  0.00  0.00    +0.000 NA
ATOM     16  C   UNL     1       1.511  13.231  18.486  0.00  0.00    +0.000 A 
ATOM     17  C   UNL     1       2.207  12.148  17.959  0.00  0.00    +0.000 A 
ATOM     18  C   UNL     1       1.854  10.910  18.492  0.00  0.00    +0.000 A 
ATOM     19  N   UNL     1       2.353   9.633  18.315  0.00  0.00    +0.000 N 
ATOM     20  H   UNL     1       3.138   9.371  17.738  0.00  0.00    +0.000 HD
BRANCH  14  21
ATOM     21  C   UNL     1      -0.732  11.893  21.040  0.00  0.00    +0.000 A 
ATOM     22  C   UNL     1      -0.589  11.489  22.396  0.00  0.00    +0.000 A 
ATOM     23  C   UNL     1      -1.801  11.717  23.008  0.00  0.00    +0.000 A 
ATOM     24  O   UNL     1      -2.688  12.232  22.121  0.00  0.00    +0.000 OA
ATOM     25  C   UNL     1      -2.038  12.333  20.931  0.00  0.00    +0.000 A 
ENDBRANCH  14  21
ENDBRANCH   7  11
BRANCH   1  30
ATOM     26  C   UNL     1       6.144   3.962  14.613  0.00  0.00    +0.000 A 
ATOM     27  C   UNL     1       7.225   4.839  14.550  0.00  0.00    +0.000 A 
ATOM     28  N   UNL     1       7.500   5.806  15.465  0.00  0.00    +0.000 NA
ATOM     29  C   UNL     1       6.675   5.892  16.542  0.00  0.00    +0.000 A 
ATOM     30  C   UNL     1       5.594   5.052  16.768  0.00  0.00    +0.000 A 
ATOM     31  C   UNL     1       5.365   4.071  15.769  0.00  0.00    +0.000 A 
BRANCH  26  32
ATOM     32  N   UNL     1       5.920   2.992  13.624  0.00  0.00    +0.000 N 
ATOM     33  H   UNL     1       6.426   2.127  13.810  0.00  0.00    +0.000 HD
BRANCH  32  35
ATOM     34  C   UNL     1       6.903   2.425  11.433  0.00  0.00    +0.000 C 
ATOM     35  C   UNL     1       5.971   3.364  12.200  0.00  0.00    +0.000 C 
ATOM     36  C   UNL     1       4.560   3.286  11.607  0.00  0.00    +0.000 C 
ENDBRANCH  32  35
ENDBRANCH  26  32
ENDBRANCH   1  30
TORSDOF 5
ENDMDL
MODEL 2
REMARK VINA RESULT:      -8.7      3.774      9.926
REMARK  Name = 
REMARK  7 active torsions:
REMARK  status: ('A' for Active; 'I' for Inactive)
REMARK    1  A    between atoms: C_1  and  C_2
REMARK    2  A    between atoms: C_2  and  C_3
REMARK    3  A    between atoms: C_2  and  N_4
REMARK    4  A    between atoms: N_4  and  C_5
REMARK    5  A    between atoms: C_9  and  C_10
REMARK    6  A    between atoms: C_16  and  C_17
REMARK    7  A    between atoms: C_20  and  C_21
REMARK                            x       y       z     vdW  Elec       q    Type
REMARK                         _______ _______ _______ _____ _____    ______ ____
ROOT
ATOM      1  C   UNL     1      -1.437  10.462  18.970  0.00  0.00    +0.000 A 
ATOM      2  C   UNL     1      -1.604  11.434  19.971  0.00  0.00    +0.000 A 
ATOM      3  C   UNL     1      -0.825  11.423  21.108  0.00  0.00    +0.000 A 
ATOM      4  C   UNL     1       0.121  10.420  21.161  0.00  0.00    +0.000 A 
ATOM      5  N   UNL     1       1.050  10.149  22.114  0.00  0.00    +0.000 N 
ATOM      6  N   UNL     1       1.770   9.066  21.884  0.00  0.00    +0.000 NA
ATOM      7  C   UNL     1       1.266   8.559  20.742  0.00  0.00    +0.000 A 
ATOM      8  C   UNL     1       0.261   9.430  20.179  0.00  0.00    +0.000 A 
ATOM      9  N   UNL     1      -0.519   9.437  19.039  0.00  0.00    +0.000 NA
ATOM     10  H   UNL     1       1.230  10.665  22.969  0.00  0.00    +0.000 HD
ENDROOT
BRANCH   7  11
ATOM     11  C   UNL     1       1.774   7.187  20.368  0.00  0.00    +0.000 A 
ATOM     12  N   UNL     1       2.722   7.031  19.454  0.00  0.00    +0.000 NA
ATOM     13  C   UNL     1       3.160   5.732  19.545  0.00  0.00    +0.000 A 
ATOM     14  C   UNL     1       4.254   5.066  18.949  0.00  0.00    +0.000 A 
ATOM     15  N   UNL     1       4.489   3.754  19.248  0.00  0.00    +0.000 NA
ATOM     16  C   UNL     1       3.660   3.117  20.105  0.00  0.00    +0.000 A 
ATOM     17  C   UNL     1       2.571   3.694  20.750  0.00  0.00    +0.000 A 
ATOM     18  C   UNL     1       2.360   5.039  20.453  0.00  0.00    +0.000 A 
ATOM     19  N   UNL     1       1.470   5.980  20.935  0.00  0.00    +0.000 N 
ATOM     20  H   UNL     1       0.784   5.839  21.662  0.00  0.00    +0.000 HD
BRANCH  14  21
ATOM     21  C   UNL     1       5.221   5.757  18.120  0.00  0.00    +0.000 A 
ATOM     22  C   UNL     1       6.597   6.062  18.317  0.00  0.00    +0.000 A 
ATOM     23  C   UNL     1       7.032   6.687  17.170  0.00  0.00    +0.000 A 
ATOM     24  O   UNL     1       6.018   6.793  16.275  0.00  0.00    +0.000 OA
ATOM     25  C   UNL     1       4.924   6.232  16.857  0.00  0.00    +0.000 A 
ENDBRANCH  14  21
ENDBRANCH   7  11
BRANCH   1  30
ATOM     26  C   UNL     1      -4.459  11.430  16.840  0.00  0.00    +0.000 A 
ATOM     27  C   UNL     1      -3.970  11.000  15.608  0.00  0.00    +0.000 A 
ATOM     28  N   UNL     1      -2.750  10.436  15.406  0.00  0.00    +0.000 NA
ATOM     29  C   UNL     1      -1.967  10.244  16.501  0.00  0.00    +0.000 A 
ATOM     30  C   UNL     1      -2.343  10.568  17.797  0.00  0.00    +0.000 A 
ATOM     31  C   UNL     1      -3.627  11.157  17.930  0.00  0.00    +0.000 A 
BRANCH  26  32
ATOM     32  N   UNL     1      -5.729  12.011  16.970  0.00  0.00    +0.000 N 
ATOM     33  H   UNL     1      -5.801  12.898  16.474  0.00  0.00    +0.000 HD
BRANCH  32  35
ATOM     34  C   UNL     1      -7.536  13.070  18.275  0.00  0.00    +0.000 C 
ATOM     35  C   UNL     1      -6.387  12.061  18.287  0.00  0.00    +0.000 C 
ATOM     36  C   UNL     1      -6.927  10.671  18.637  0.00  0.00    +0.000 C 
ENDBRANCH  32  35
ENDBRANCH  26  32
ENDBRANCH   1  30
TORSDOF 5
ENDMDL
MODEL 3
REMARK VINA RESULT:      -8.6      1.332      1.683
REMARK  Name = 
REMARK  7 active torsions:
REMARK  status: ('A' for Active; 'I' for Inactive)
REMARK    1  A    between atoms: C_1  and  C_2
REMARK    2  A    between atoms: C_2  and  C_3
REMARK    3  A    between atoms: C_2  and  N_4
REMARK    4  A    between atoms: N_4  and  C_5
REMARK    5  A    between atoms: C_9  and  C_10
REMARK    6  A    between atoms: C_16  and  C_17
REMARK    7  A    between atoms: C_20  and  C_21
REMARK                            x       y       z     vdW  Elec       q    Type
REMARK                         _______ _______ _______ _____ _____    ______ ____
ROOT
ATOM      1  C   UNL     1       5.130   4.593  16.625  0.00  0.00    +0.000 A 
ATOM      2  C   UNL     1       5.158   3.405  17.375  0.00  0.00    +0.000 A 
ATOM      3  C   UNL     1       4.308   3.219  18.444  0.00  0.00    +0.000 A 
ATOM      4  C   UNL     1       3.437   4.260  18.687  0.00  0.00    +0.000 A 
ATOM      5  N   UNL     1       2.468   4.382  19.632  0.00  0.00    +0.000 N 
ATOM      6  N   UNL     1       1.846   5.547  19.631  0.00  0.00    +0.000 NA
ATOM      7  C   UNL     1       2.460   6.260  18.667  0.00  0.00    +0.000 A 
ATOM      8  C   UNL     1       3.434   5.459  17.962  0.00  0.00    +0.000 A 
ATOM      9  N   UNL     1       4.286   5.649  16.891  0.00  0.00    +0.000 NA
ATOM     10  H   UNL     1       2.194   3.699  20.331  0.00  0.00    +0.000 HD
ENDROOT
BRANCH   7  11
ATOM     11  C   UNL     1       2.079   7.719  18.604  0.00  0.00    +0.000 A 
ATOM     12  N   UNL     1       1.306   8.268  19.532  0.00  0.00    +0.000 NA
ATOM     13  C   UNL     1       1.377   9.630  19.362  0.00  0.00    +0.000 A 
ATOM     14  C   UNL     1       0.908  10.700  20.154  0.00  0.00    +0.000 A 
ATOM     15  N   UNL     1       1.153  11.986  19.765  0.00  0.00    +0.000 NA
ATOM     16  C   UNL     1       1.837  12.206  18.619  0.00  0.00    +0.000 A 
ATOM     17  C   UNL     1       2.350  11.217  17.786  0.00  0.00    +0.000 A 
ATOM     18  C   UNL     1       2.112   9.912  18.210  0.00  0.00    +0.000 A 
ATOM     19  N   UNL     1       2.517   8.680  17.734  0.00  0.00    +0.000 N 
ATOM     20  H   UNL     1       3.124   8.512  16.945  0.00  0.00    +0.000 HD
BRANCH  14  21
ATOM     21  C   UNL     1       0.276  10.490  21.441  0.00  0.00    +0.000 A 
ATOM     22  C   UNL     1       0.260   9.372  22.322  0.00  0.00    +0.000 A 
ATOM     23  C   UNL     1      -0.455   9.755  23.434  0.00  0.00    +0.000 A 
ATOM     24  O   UNL     1      -0.884  11.035  23.303  0.00  0.00    +0.000 OA
ATOM     25  C   UNL     1      -0.443  11.473  22.095  0.00  0.00    +0.000 A 
ENDBRANCH  14  21
ENDBRANCH   7  11
BRANCH   1  30
ATOM     26  C   UNL     1       6.679   4.112  13.165  0.00  0.00    +0.000 A 
ATOM     27  C   UNL     1       7.747   4.996  13.309  0.00  0.00    +0.000 A 
ATOM     28  N   UNL     1       8.003   5.737  14.420  0.00  0.00    +0.000 NA
ATOM     29  C   UNL     1       7.170   5.569  15.482  0.00  0.00    +0.000 A 
ATOM     30  C   UNL     1       6.101   4.685  15.505  0.00  0.00    +0.000 A 
ATOM     31  C   UNL     1       5.892   3.949  14.310  0.00  0.00    +0.000 A 
BRANCH  26  32
ATOM     32  N   UNL     1       6.475   3.385  11.983  0.00  0.00    +0.000 N 
ATOM     33  H   UNL     1       6.567   3.966  11.151  0.00  0.00    +0.000 HD
BRANCH  32  35
ATOM     34  C   UNL     1       4.179   3.099  11.127  0.00  0.00    +0.000 C 
ATOM     35  C   UNL     1       5.341   2.450  11.878  0.00  0.00    +0.000 C 
ATOM     36  C   UNL     1       5.794   1.189  11.135  0.00  0.00    +0.000 C 
ENDBRANCH  32  35
ENDBRANCH  26  32
ENDBRANCH   1  30
TORSDOF 5
ENDMDL
MODEL 4
REMARK VINA RESULT:      -8.4      1.523      1.828
REMARK  Name = 
REMARK  7 active torsions:
REMARK  status: ('A' for Active; 'I' for Inactive)
REMARK    1  A    between atoms: C_1  and  C_2
REMARK    2  A    between atoms: C_2  and  C_3
REMARK    3  A    between atoms: C_2  and  N_4
REMARK    4  A    between atoms: N_4  and  C_5
REMARK    5  A    between atoms: C_9  and  C_10
REMARK    6  A    between atoms: C_16  and  C_17
REMARK    7  A    between atoms: C_20  and  C_21
REMARK                            x       y       z     vdW  Elec       q    Type
REMARK                         _______ _______ _______ _____ _____    ______ ____
ROOT
ATOM      1  C   UNL     1       4.432   5.596  17.934  0.00  0.00    +0.000 A 
ATOM      2  C   UNL     1       4.379   4.657  18.978  0.00  0.00    +0.000 A 
ATOM      3  C   UNL     1       3.502   4.812  20.030  0.00  0.00    +0.000 A 
ATOM      4  C   UNL     1       2.688   5.923  19.954  0.00  0.00    +0.000 A 
ATOM      5  N   UNL     1       1.713   6.347  20.799  0.00  0.00    +0.000 N 
ATOM      6  N   UNL     1       1.158   7.498  20.463  0.00  0.00    +0.000 NA
ATOM      7  C   UNL     1       1.830   7.889  19.362  0.00  0.00    +0.000 A 
ATOM      8  C   UNL     1       2.767   6.878  18.932  0.00  0.00    +0.000 A 
ATOM      9  N   UNL     1       3.646   6.726  17.877  0.00  0.00    +0.000 NA
ATOM     10  H   UNL     1       1.388   5.895  21.648  0.00  0.00    +0.000 HD
ENDROOT
BRANCH   7  11
ATOM     11  C   UNL     1       1.534   9.294  18.895  0.00  0.00    +0.000 A 
ATOM     12  N   UNL     1       0.313   9.653  18.521  0.00  0.00    +0.000 NA
ATOM     13  C   UNL     1       0.304  11.023  18.432  0.00  0.00    +0.000 A 
ATOM     14  C   UNL     1      -0.750  11.945  18.249  0.00  0.00    +0.000 A 
ATOM     15  N   UNL     1      -0.481  13.284  18.237  0.00  0.00    +0.000 NA
ATOM     16  C   UNL     1       0.797  13.698  18.393  0.00  0.00    +0.000 A 
ATOM     17  C   UNL     1       1.894  12.867  18.594  0.00  0.00    +0.000 A 
ATOM     18  C   UNL     1       1.598  11.506  18.628  0.00  0.00    +0.000 A 
ATOM     19  N   UNL     1       2.362  10.383  18.888  0.00  0.00    +0.000 N 
ATOM     20  H   UNL     1       3.339  10.369  19.141  0.00  0.00    +0.000 HD
BRANCH  14  21
ATOM     21  C   UNL     1      -2.138  11.532  18.196  0.00  0.00    +0.000 A 
ATOM     22  C   UNL     1      -2.813  10.564  17.401  0.00  0.00    +0.000 A 
ATOM     23  C   UNL     1      -4.125  10.554  17.818  0.00  0.00    +0.000 A 
ATOM     24  O   UNL     1      -4.310  11.452  18.818  0.00  0.00    +0.000 OA
ATOM     25  C   UNL     1      -3.106  12.043  19.040  0.00  0.00    +0.000 A 
ENDBRANCH  14  21
ENDBRANCH   7  11
BRANCH   1  30
ATOM     26  C   UNL     1       5.982   4.167  14.747  0.00  0.00    +0.000 A 
ATOM     27  C   UNL     1       7.129   4.959  14.721  0.00  0.00    +0.000 A 
ATOM     28  N   UNL     1       7.438   5.916  15.635  0.00  0.00    +0.000 NA
ATOM     29  C   UNL     1       6.576   6.082  16.674  0.00  0.00    +0.000 A 
ATOM     30  C   UNL     1       5.426   5.330  16.863  0.00  0.00    +0.000 A 
ATOM     31  C   UNL     1       5.165   4.353  15.867  0.00  0.00    +0.000 A 
BRANCH  26  32
ATOM     32  N   UNL     1       5.727   3.201  13.763  0.00  0.00    +0.000 N 
ATOM     33  H   UNL     1       6.191   2.315  13.961  0.00  0.00    +0.000 HD
BRANCH  32  35
ATOM     34  C   UNL     1       6.933   2.773  11.653  0.00  0.00    +0.000 C 
ATOM     35  C   UNL     1       5.814   3.560  12.336  0.00  0.00    +0.000 C 
ATOM     36  C   UNL     1       4.477   3.251  11.655  0.00  0.00    +0.000 C 
ENDBRANCH  32  35
ENDBRANCH  26  32
ENDBRANCH   1  30
TORSDOF 5
ENDMDL
MODEL 5
REMARK VINA RESULT:      -8.4      0.785      1.110
REMARK  Name = 
REMARK  7 active torsions:
REMARK  status: ('A' for Active; 'I' for Inactive)
REMARK    1  A    between atoms: C_1  and  C_2
REMARK    2  A    between atoms: C_2  and  C_3
REMARK    3  A    between atoms: C_2  and  N_4
REMARK    4  A    between atoms: N_4  and  C_5
REMARK    5  A    between atoms: C_9  and  C_10
REMARK    6  A    between atoms: C_16  and  C_17
REMARK    7  A    between atoms: C_20  and  C_21
REMARK                            x       y       z     vdW  Elec       q    Type
REMARK                         _______ _______ _______ _____ _____    ______ ____
ROOT
ATOM      1  C   UNL     1       4.575   4.773  17.985  0.00  0.00    +0.000 A 
ATOM      2  C   UNL     1       4.594   3.770  18.969  0.00  0.00    +0.000 A 
ATOM      3  C   UNL     1       3.777   3.846  20.076  0.00  0.00    +0.000 A 
ATOM      4  C   UNL     1       2.946   4.946  20.117  0.00  0.00    +0.000 A 
ATOM      5  N   UNL     1       2.015   5.301  21.040  0.00  0.00    +0.000 N 
ATOM      6  N   UNL     1       1.428   6.461  20.809  0.00  0.00    +0.000 NA
ATOM      7  C   UNL     1       2.030   6.931  19.698  0.00  0.00    +0.000 A 
ATOM      8  C   UNL     1       2.954   5.964  19.154  0.00  0.00    +0.000 A 
ATOM      9  N   UNL     1       3.773   5.892  18.043  0.00  0.00    +0.000 NA
ATOM     10  H   UNL     1       1.746   4.792  21.876  0.00  0.00    +0.000 HD
ENDROOT
BRANCH   7  11
ATOM     11  C   UNL     1       1.690   8.357  19.338  0.00  0.00    +0.000 A 
ATOM     12  N   UNL     1       0.807   9.053  20.041  0.00  0.00    +0.000 NA
ATOM     13  C   UNL     1       0.929  10.366  19.656  0.00  0.00    +0.000 A 
ATOM     14  C   UNL     1       0.375  11.554  20.181  0.00  0.00    +0.000 A 
ATOM     15  N   UNL     1       0.699  12.756  19.620  0.00  0.00    +0.000 NA
ATOM     16  C   UNL     1       1.540  12.780  18.562  0.00  0.00    +0.000 A 
ATOM     17  C   UNL     1       2.144  11.666  17.988  0.00  0.00    +0.000 A 
ATOM     18  C   UNL     1       1.822  10.451  18.588  0.00  0.00    +0.000 A 
ATOM     19  N   UNL     1       2.265   9.157  18.388  0.00  0.00    +0.000 N 
ATOM     20  H   UNL     1       2.973   8.860  17.733  0.00  0.00    +0.000 HD
BRANCH  14  21
ATOM     21  C   UNL     1      -0.434  11.562  21.384  0.00  0.00    +0.000 A 
ATOM     22  C   UNL     1      -1.607  12.286  21.736  0.00  0.00    +0.000 A 
ATOM     23  C   UNL     1      -1.979  11.853  22.989  0.00  0.00    +0.000 A 
ATOM     24  O   UNL     1      -1.114  10.911  23.439  0.00  0.00    +0.000 OA
ATOM     25  C   UNL     1      -0.179  10.741  22.466  0.00  0.00    +0.000 A 
ENDBRANCH  14  21
ENDBRANCH   7  11
BRANCH   1  30
ATOM     26  C   UNL     1       5.847   4.496  14.392  0.00  0.00    +0.000 A 
ATOM     27  C   UNL     1       7.213   4.483  14.673  0.00  0.00    +0.000 A 
ATOM     28  N   UNL     1       7.754   4.564  15.918  0.00  0.00    +0.000 NA
ATOM     29  C   UNL     1       6.891   4.625  16.966  0.00  0.00    +0.000 A 
ATOM     30  C   UNL     1       5.509   4.589  16.845  0.00  0.00    +0.000 A 
ATOM     31  C   UNL     1       5.016   4.509  15.516  0.00  0.00    +0.000 A 
BRANCH  26  32
ATOM     32  N   UNL     1       5.362   4.415  13.079  0.00  0.00    +0.000 N 
ATOM     33  H   UNL     1       4.442   4.842  12.980  0.00  0.00    +0.000 HD
BRANCH  32  35
ATOM     34  C   UNL     1       4.354   3.055  11.284  0.00  0.00    +0.000 C 
ATOM     35  C   UNL     1       5.465   3.150  12.331  0.00  0.00    +0.000 C 
ATOM     36  C   UNL     1       6.830   3.081  11.640  0.00  0.00    +0.000 C 
ENDBRANCH  32  35
ENDBRANCH  26  32
ENDBRANCH   1  30
TORSDOF 5
ENDMDL
MODEL 6
REMARK VINA RESULT:      -8.3      4.394      7.337
REMARK  Name = 
REMARK  7 active torsions:
REMARK  status: ('A' for Active; 'I' for Inactive)
REMARK    1  A    between atoms: C_1  and  C_2
REMARK    2  A    between atoms: C_2  and  C_3
REMARK    3  A    between atoms: C_2  and  N_4
REMARK    4  A    between atoms: N_4  and  C_5
REMARK    5  A    between atoms: C_9  and  C_10
REMARK    6  A    between atoms: C_16  and  C_17
REMARK    7  A    between atoms: C_20  and  C_21
REMARK                            x       y       z     vdW  Elec       q    Type
REMARK                         _______ _______ _______ _____ _____    ______ ____
ROOT
ATOM      1  C   UNL     1       0.536  10.200  20.701  0.00  0.00    +0.000 A 
ATOM      2  C   UNL     1       0.049   9.713  21.925  0.00  0.00    +0.000 A 
ATOM      3  C   UNL     1      -0.660  10.527  22.782  0.00  0.00    +0.000 A 
ATOM      4  C   UNL     1      -0.864  11.815  22.332  0.00  0.00    +0.000 A 
ATOM      5  N   UNL     1      -1.534  12.844  22.911  0.00  0.00    +0.000 N 
ATOM      6  N   UNL     1      -1.489  13.978  22.235  0.00  0.00    +0.000 NA
ATOM      7  C   UNL     1      -0.708  13.707  21.170  0.00  0.00    +0.000 A 
ATOM      8  C   UNL     1      -0.346  12.309  21.127  0.00  0.00    +0.000 A 
ATOM      9  N   UNL     1       0.366  11.496  20.267  0.00  0.00    +0.000 NA
ATOM     10  H   UNL     1      -2.035  12.839  23.794  0.00  0.00    +0.000 HD
ENDROOT
BRANCH   7  11
ATOM     11  C   UNL     1      -0.315  14.905  20.340  0.00  0.00    +0.000 A 
ATOM     12  N   UNL     1       0.957  15.185  20.096  0.00  0.00    +0.000 NA
ATOM     13  C   UNL     1       0.979  16.135  19.104  0.00  0.00    +0.000 A 
ATOM     14  C   UNL     1       2.039  16.670  18.339  0.00  0.00    +0.000 A 
ATOM     15  N   UNL     1       1.772  17.593  17.369  0.00  0.00    +0.000 NA
ATOM     16  C   UNL     1       0.493  17.983  17.167  0.00  0.00    +0.000 A 
ATOM     17  C   UNL     1      -0.614  17.501  17.859  0.00  0.00    +0.000 A 
ATOM     18  C   UNL     1      -0.326  16.542  18.828  0.00  0.00    +0.000 A 
ATOM     19  N   UNL     1      -1.123  15.767  19.649  0.00  0.00    +0.000 N 
ATOM     20  H   UNL     1      -2.132  15.752  19.665  0.00  0.00    +0.000 HD
BRANCH  14  21
ATOM     21  C   UNL     1       3.399  16.184  18.457  0.00  0.00    +0.000 A 
ATOM     22  C   UNL     1       4.095  15.135  17.794  0.00  0.00    +0.000 A 
ATOM     23  C   UNL     1       5.389  15.160  18.264  0.00  0.00    +0.000 A 
ATOM     24  O   UNL     1       5.542  16.151  19.176  0.00  0.00    +0.000 OA
ATOM     25  C   UNL     1       4.335  16.765  19.292  0.00  0.00    +0.000 A 
ENDBRANCH  14  21
ENDBRANCH   7  11
BRANCH   1  30
ATOM     26  C   UNL     1       2.267   6.967  19.626  0.00  0.00    +0.000 A 
ATOM     27  C   UNL     1       2.505   7.310  18.296  0.00  0.00    +0.000 A 
ATOM     28  N   UNL     1       2.148   8.487  17.718  0.00  0.00    +0.000 NA
ATOM     29  C   UNL     1       1.546   9.411  18.514  0.00  0.00    +0.000 A 
ATOM     30  C   UNL     1       1.297   9.233  19.868  0.00  0.00    +0.000 A 
ATOM     31  C   UNL     1       1.693   7.979  20.401  0.00  0.00    +0.000 A 
BRANCH  26  32
ATOM     32  N   UNL     1       2.661   5.727  20.152  0.00  0.00    +0.000 N 
ATOM     33  H   UNL     1       3.469   5.340  19.665  0.00  0.00    +0.000 HD
BRANCH  32  35
ATOM     34  C   UNL     1       1.325   3.888  19.192  0.00  0.00    +0.000 C 
ATOM     35  C   UNL     1       1.651   4.697  20.448  0.00  0.00    +0.000 C 
ATOM     36  C   UNL     1       2.187   3.762  21.538  0.00  0.00    +0.000 C 
ENDBRANCH  32  35
ENDBRANCH  26  32
ENDBRANCH   1  30
TORSDOF 5
ENDMDL
MODEL 7
REMARK VINA RESULT:      -8.1      3.211     10.692
REMARK  Name = 
REMARK  7 active torsions:
REMARK  status: ('A' for Active; 'I' for Inactive)
REMARK    1  A    between atoms: C_1  and  C_2
REMARK    2  A    between atoms: C_2  and  C_3
REMARK    3  A    between atoms: C_2  and  N_4
REMARK    4  A    between atoms: N_4  and  C_5
REMARK    5  A    between atoms: C_9  and  C_10
REMARK    6  A    between atoms: C_16  and  C_17
REMARK    7  A    between atoms: C_20  and  C_21
REMARK                            x       y       z     vdW  Elec       q    Type
REMARK                         _______ _______ _______ _____ _____    ______ ____
ROOT
ATOM      1  C   UNL     1      -0.659  12.421  20.174  0.00  0.00    +0.000 A 
ATOM      2  C   UNL     1      -0.104  13.611  19.677  0.00  0.00    +0.000 A 
ATOM      3  C   UNL     1       0.964  13.589  18.806  0.00  0.00    +0.000 A 
ATOM      4  C   UNL     1       1.407  12.330  18.456  0.00  0.00    +0.000 A 
ATOM      5  N   UNL     1       2.406  11.962  17.613  0.00  0.00    +0.000 N 
ATOM      6  N   UNL     1       2.615  10.659  17.546  0.00  0.00    +0.000 NA
ATOM      7  C   UNL     1       1.742  10.130  18.427  0.00  0.00    +0.000 A 
ATOM      8  C   UNL     1       0.876  11.144  18.981  0.00  0.00    +0.000 A 
ATOM      9  N   UNL     1      -0.193  11.164  19.856  0.00  0.00    +0.000 NA
ATOM     10  H   UNL     1       3.003  12.567  17.058  0.00  0.00    +0.000 HD
ENDROOT
BRANCH   7  11
ATOM     11  C   UNL     1       1.924   8.658  18.705  0.00  0.00    +0.000 A 
ATOM     12  N   UNL     1       2.593   7.876  17.868  0.00  0.00    +0.000 NA
ATOM     13  C   UNL     1       2.828   6.691  18.522  0.00  0.00    +0.000 A 
ATOM     14  C   UNL     1       3.630   5.578  18.188  0.00  0.00    +0.000 A 
ATOM     15  N   UNL     1       3.719   4.526  19.054  0.00  0.00    +0.000 NA
ATOM     16  C   UNL     1       3.025   4.570  20.214  0.00  0.00    +0.000 A 
ATOM     17  C   UNL     1       2.224   5.628  20.632  0.00  0.00    +0.000 A 
ATOM     18  C   UNL     1       2.165   6.703  19.749  0.00  0.00    +0.000 A 
ATOM     19  N   UNL     1       1.575   7.951  19.824  0.00  0.00    +0.000 N 
ATOM     20  H   UNL     1       1.066   8.327  20.610  0.00  0.00    +0.000 HD
BRANCH  14  21
ATOM     21  C   UNL     1       4.472   5.558  17.009  0.00  0.00    +0.000 A 
ATOM     22  C   UNL     1       4.805   4.520  16.094  0.00  0.00    +0.000 A 
ATOM     23  C   UNL     1       5.604   5.086  15.126  0.00  0.00    +0.000 A 
ATOM     24  O   UNL     1       5.791   6.405  15.379  0.00  0.00    +0.000 OA
ATOM     25  C   UNL     1       5.107   6.685  16.521  0.00  0.00    +0.000 A 
ENDBRANCH  14  21
ENDBRANCH   7  11
BRANCH   1  30
ATOM     26  C   UNL     1      -4.248  12.719  21.453  0.00  0.00    +0.000 A 
ATOM     27  C   UNL     1      -3.974  12.623  22.816  0.00  0.00    +0.000 A 
ATOM     28  N   UNL     1      -2.736  12.462  23.354  0.00  0.00    +0.000 NA
ATOM     29  C   UNL     1      -1.685  12.431  22.492  0.00  0.00    +0.000 A 
ATOM     30  C   UNL     1      -1.799  12.572  21.116  0.00  0.00    +0.000 A 
ATOM     31  C   UNL     1      -3.121  12.731  20.626  0.00  0.00    +0.000 A 
BRANCH  26  32
ATOM     32  N   UNL     1      -5.556  12.878  20.970  0.00  0.00    +0.000 N 
ATOM     33  H   UNL     1      -6.220  13.087  21.715  0.00  0.00    +0.000 HD
BRANCH  32  35
ATOM     34  C   UNL     1      -7.407  11.310  20.519  0.00  0.00    +0.000 C 
ATOM     35  C   UNL     1      -6.105  11.919  19.996  0.00  0.00    +0.000 C 
ATOM     36  C   UNL     1      -6.371  12.642  18.671  0.00  0.00    +0.000 C 
ENDBRANCH  32  35
ENDBRANCH  26  32
ENDBRANCH   1  30
TORSDOF 5
ENDMDL
MODEL 8
REMARK VINA RESULT:      -8.1      3.184     10.976
REMARK  Name = 
REMARK  7 active torsions:
REMARK  status: ('A' for Active; 'I' for Inactive)
REMARK    1  A    between atoms: C_1  and  C_2
REMARK    2  A    between atoms: C_2  and  C_3
REMARK    3  A    between atoms: C_2  and  N_4
REMARK    4  A    between atoms: N_4  and  C_5
REMARK    5  A    between atoms: C_9  and  C_10
REMARK    6  A    between atoms: C_16  and  C_17
REMARK    7  A    between atoms: C_20  and  C_21
REMARK                            x       y       z     vdW  Elec       q    Type
REMARK                         _______ _______ _______ _____ _____    ______ ____
ROOT
ATOM      1  C   UNL     1      -1.301  12.182  19.140  0.00  0.00    +0.000 A 
ATOM      2  C   UNL     1      -0.704  13.426  18.875  0.00  0.00    +0.000 A 
ATOM      3  C   UNL     1       0.592  13.509  18.416  0.00  0.00    +0.000 A 
ATOM      4  C   UNL     1       1.222  12.298  18.220  0.00  0.00    +0.000 A 
ATOM      5  N   UNL     1       2.471  12.030  17.758  0.00  0.00    +0.000 N 
ATOM      6  N   UNL     1       2.790  10.748  17.749  0.00  0.00    +0.000 NA
ATOM      7  C   UNL     1       1.715  10.128  18.276  0.00  0.00    +0.000 A 
ATOM      8  C   UNL     1       0.638  11.059  18.518  0.00  0.00    +0.000 A 
ATOM      9  N   UNL     1      -0.661  10.973  18.981  0.00  0.00    +0.000 NA
ATOM     10  H   UNL     1       3.172  12.695  17.446  0.00  0.00    +0.000 HD
ENDROOT
BRANCH   7  11
ATOM     11  C   UNL     1       1.905   8.662  18.579  0.00  0.00    +0.000 A 
ATOM     12  N   UNL     1       2.591   7.873  17.763  0.00  0.00    +0.000 NA
ATOM     13  C   UNL     1       2.827   6.700  18.438  0.00  0.00    +0.000 A 
ATOM     14  C   UNL     1       3.642   5.588  18.132  0.00  0.00    +0.000 A 
ATOM     15  N   UNL     1       3.727   4.550  19.015  0.00  0.00    +0.000 NA
ATOM     16  C   UNL     1       3.018   4.607  20.165  0.00  0.00    +0.000 A 
ATOM     17  C   UNL     1       2.204   5.665  20.557  0.00  0.00    +0.000 A 
ATOM     18  C   UNL     1       2.147   6.725  19.656  0.00  0.00    +0.000 A 
ATOM     19  N   UNL     1       1.547   7.969  19.704  0.00  0.00    +0.000 N 
ATOM     20  H   UNL     1       1.025   8.353  20.478  0.00  0.00    +0.000 HD
BRANCH  14  21
ATOM     21  C   UNL     1       4.499   5.557  16.964  0.00  0.00    +0.000 A 
ATOM     22  C   UNL     1       4.889   4.497  16.097  0.00  0.00    +0.000 A 
ATOM     23  C   UNL     1       5.674   5.057  15.115  0.00  0.00    +0.000 A 
ATOM     24  O   UNL     1       5.800   6.393  15.315  0.00  0.00    +0.000 OA
ATOM     25  C   UNL     1       5.090   6.689  16.436  0.00  0.00    +0.000 A 
ENDBRANCH  14  21
ENDBRANCH   7  11
BRANCH   1  30
ATOM     26  C   UNL     1      -4.284  12.937  21.406  0.00  0.00    +0.000 A 
ATOM     27  C   UNL     1      -5.294  12.528  20.536  0.00  0.00    +0.000 A 
ATOM     28  N   UNL     1      -5.094  12.041  19.283  0.00  0.00    +0.000 NA
ATOM     29  C   UNL     1      -3.806  11.909  18.867  0.00  0.00    +0.000 A 
ATOM     30  C   UNL     1      -2.699  12.220  19.643  0.00  0.00    +0.000 A 
ATOM     31  C   UNL     1      -2.984  12.727  20.937  0.00  0.00    +0.000 A 
BRANCH  26  32
ATOM     32  N   UNL     1      -4.568  13.437  22.686  0.00  0.00    +0.000 N 
ATOM     33  H   UNL     1      -4.822  14.423  22.667  0.00  0.00    +0.000 HD
BRANCH  32  35
ATOM     34  C   UNL     1      -3.107  14.399  24.426  0.00  0.00    +0.000 C 
ATOM     35  C   UNL     1      -3.679  13.118  23.817  0.00  0.00    +0.000 C 
ATOM     36  C   UNL     1      -4.470  12.351  24.881  0.00  0.00    +0.000 C 
ENDBRANCH  32  35
ENDBRANCH  26  32
ENDBRANCH   1  30
TORSDOF 5
ENDMDL
MODEL 9
REMARK VINA RESULT:      -8.0      3.350     10.984
REMARK  Name = 
REMARK  7 active torsions:
REMARK  status: ('A' for Active; 'I' for Inactive)
REMARK    1  A    between atoms: C_1  and  C_2
REMARK    2  A    between atoms: C_2  and  C_3
REMARK    3  A    between atoms: C_2  and  N_4
REMARK    4  A    between atoms: N_4  and  C_5
REMARK    5  A    between atoms: C_9  and  C_10
REMARK    6  A    between atoms: C_16  and  C_17
REMARK    7  A    between atoms: C_20  and  C_21
REMARK                            x       y       z     vdW  Elec       q    Type
REMARK                         _______ _______ _______ _____ _____    ______ ____
ROOT
ATOM      1  C   UNL     1      -0.562  12.204  20.305  0.00  0.00    +0.000 A 
ATOM      2  C   UNL     1      -0.009  13.382  19.775  0.00  0.00    +0.000 A 
ATOM      3  C   UNL     1       1.029  13.335  18.870  0.00  0.00    +0.000 A 
ATOM      4  C   UNL     1       1.445  12.067  18.521  0.00  0.00    +0.000 A 
ATOM      5  N   UNL     1       2.411  11.676  17.649  0.00  0.00    +0.000 N 
ATOM      6  N   UNL     1       2.602  10.371  17.591  0.00  0.00    +0.000 NA
ATOM      7  C   UNL     1       1.752   9.863  18.507  0.00  0.00    +0.000 A 
ATOM      8  C   UNL     1       0.917  10.894  19.077  0.00  0.00    +0.000 A 
ATOM      9  N   UNL     1      -0.122  10.938  19.986  0.00  0.00    +0.000 NA
ATOM     10  H   UNL     1       2.997  12.267  17.068  0.00  0.00    +0.000 HD
ENDROOT
BRANCH   7  11
ATOM     11  C   UNL     1       1.925   8.391  18.797  0.00  0.00    +0.000 A 
ATOM     12  N   UNL     1       2.548   7.591  17.943  0.00  0.00    +0.000 NA
ATOM     13  C   UNL     1       2.793   6.410  18.602  0.00  0.00    +0.000 A 
ATOM     14  C   UNL     1       3.566   5.282  18.250  0.00  0.00    +0.000 A 
ATOM     15  N   UNL     1       3.675   4.239  19.125  0.00  0.00    +0.000 NA
ATOM     16  C   UNL     1       3.029   4.308  20.312  0.00  0.00    +0.000 A 
ATOM     17  C   UNL     1       2.261   5.382  20.749  0.00  0.00    +0.000 A 
ATOM     18  C   UNL     1       2.181   6.446  19.854  0.00  0.00    +0.000 A 
ATOM     19  N   UNL     1       1.611   7.703  19.937  0.00  0.00    +0.000 N 
ATOM     20  H   UNL     1       1.140   8.097  20.738  0.00  0.00    +0.000 HD
BRANCH  14  21
ATOM     21  C   UNL     1       4.359   5.235  17.038  0.00  0.00    +0.000 A 
ATOM     22  C   UNL     1       4.991   6.257  16.275  0.00  0.00    +0.000 A 
ATOM     23  C   UNL     1       5.659   5.628  15.248  0.00  0.00    +0.000 A 
ATOM     24  O   UNL     1       5.482   4.285  15.321  0.00  0.00    +0.000 OA
ATOM     25  C   UNL     1       4.692   4.053  16.403  0.00  0.00    +0.000 A 
ENDBRANCH  14  21
ENDBRANCH   7  11
BRANCH   1  30
ATOM     26  C   UNL     1      -4.052  12.908  21.692  0.00  0.00    +0.000 A 
ATOM     27  C   UNL     1      -3.820  12.507  23.006  0.00  0.00    +0.000 A 
ATOM     28  N   UNL     1      -2.641  12.023  23.478  0.00  0.00    +0.000 NA
ATOM     29  C   UNL     1      -1.601  11.964  22.604  0.00  0.00    +0.000 A 
ATOM     30  C   UNL     1      -1.667  12.380  21.282  0.00  0.00    +0.000 A 
ATOM     31  C   UNL     1      -2.930  12.869  20.859  0.00  0.00    +0.000 A 
BRANCH  26  32
ATOM     32  N   UNL     1      -5.301  13.392  21.275  0.00  0.00    +0.000 N 
ATOM     33  H   UNL     1      -5.320  14.409  21.213  0.00  0.00    +0.000 HD
BRANCH  32  35
ATOM     34  C   UNL     1      -7.564  13.969  22.074  0.00  0.00    +0.000 C 
ATOM     35  C   UNL     1      -6.537  12.854  21.870  0.00  0.00    +0.000 C 
ATOM     36  C   UNL     1      -7.119  11.782  20.943  0.00  0.00    +0.000 C 
ENDBRANCH  32  35
ENDBRANCH  26  32
ENDBRANCH   1  30
TORSDOF 5
ENDMDL
