MODEL 1
REMARK VINA RESULT:      -8.3      0.000      0.000
REMARK  Name = 
REMARK  7 active torsions:
REMARK  status: ('A' for Active; 'I' for Inactive)
REMARK    1  A    between atoms: O_1  and  C_2
REMARK    2  A    between atoms: C_8  and  O_9
REMARK    3  A    between atoms: O_9  and  C_10
REMARK    4  A    between atoms: C_16  and  C_17
REMARK    5  A    between atoms: C_17  and  N_18
REMARK    6  A    between atoms: N_18  and  C_19
REMARK    7  A    between atoms: C_19  and  C_20
REMARK                            x       y       z     vdW  Elec       q    Type
REMARK                         _______ _______ _______ _____ _____    ______ ____
ROOT
ATOM      1  C   UNL     1       4.456   4.944  19.185  0.00  0.00    +0.000 A 
ATOM      2  C   UNL     1       4.629   3.599  19.532  0.00  0.00    +0.000 A 
ATOM      3  C   UNL     1       3.676   2.893  20.213  0.00  0.00    +0.000 A 
ATOM      4  C   UNL     1       2.463   3.512  20.514  0.00  0.00    +0.000 A 
ATOM      5 CL   UNL     1       1.210   2.607  21.253  0.00  0.00    +0.000 Cl
ATOM      6  C   UNL     1       2.251   4.850  20.174  0.00  0.00    +0.000 A 
ATOM      7  C   UNL     1       3.231   5.600  19.508  0.00  0.00    +0.000 A 
ENDROOT
BRANCH   1   8
ATOM      8  O   UNL     1       5.417   5.614  18.474  0.00  0.00    +0.000 OA
BRANCH   8  15
ATOM      9  C   UNL     1       6.972   4.498  16.873  0.00  0.00    +0.000 A 
ATOM     10  C   UNL     1       7.241   4.146  15.554  0.00  0.00    +0.000 A 
ATOM     11  C   UNL     1       6.322   4.462  14.561  0.00  0.00    +0.000 A 
ATOM     12 CL   UNL     1       6.646   4.035  12.928  0.00  0.00    +0.000 Cl
ATOM     13  C   UNL     1       5.130   5.116  14.881  0.00  0.00    +0.000 A 
ATOM     14  C   UNL     1       4.867   5.455  16.210  0.00  0.00    +0.000 A 
ATOM     15  C   UNL     1       5.779   5.156  17.217  0.00  0.00    +0.000 A 
BRANCH   9  16
ATOM     16  O   UNL     1       7.890   4.127  17.820  0.00  0.00    +0.000 OA
ATOM     17  H   UNL     1       8.247   3.257  17.632  0.00  0.00    +0.000 HD
ENDBRANCH   9  16
ENDBRANCH   8  15
ENDBRANCH   1   8
BRANCH   7  18
ATOM     18  C   UNL     1       2.927   7.047  19.204  0.00  0.00    +0.000 C 
BRANCH  18  19
ATOM     19  N   UNL     1       1.895   7.647  20.016  0.00  0.00    +0.000 NA
ATOM     20  H   UNL     1       2.266   7.781  20.965  0.00  0.00    +0.000 HD
BRANCH  19  21
ATOM     21  C   UNL     1       1.387   8.926  19.539  0.00  0.00    +0.000 C 
BRANCH  21  22
ATOM     22  C   UNL     1       0.612   9.639  20.634  0.00  0.00    +0.000 A 
ATOM     23  C   UNL     1       0.487   9.052  21.914  0.00  0.00    +0.000 A 
ATOM     24  C   UNL     1      -0.192   9.706  22.948  0.00  0.00    +0.000 A 
ATOM     25  C   UNL     1      -0.720  10.953  22.690  0.00  0.00    +0.000 A 
ATOM     26  C   UNL     1      -0.623  11.542  21.439  0.00  0.00    +0.000 A 
ATOM     27  C   UNL     1       0.018  10.896  20.396  0.00  0.00    +0.000 A 
ATOM     28  C   UNL     1      -1.316  12.851  21.468  0.00  0.00    +0.000 C 
ATOM     29  C   UNL     1      -1.437  13.023  22.984  0.00  0.00    +0.000 C 
ATOM     30  O   UNL     1      -1.379  11.722  23.613  0.00  0.00    +0.000 OA
ENDBRANCH  21  22
ENDBRANCH  19  21
ENDBRANCH  18  19
ENDBRANCH   7  18
TORSDOF 7
ENDMDL
MODEL 2
REMARK VINA RESULT:      -8.2      2.085      4.853
REMARK  Name = 
REMARK  7 active torsions:
REMARK  status: ('A' for Active; 'I' for Inactive)
REMARK    1  A    between atoms: O_1  and  C_2
REMARK    2  A    between atoms: C_8  and  O_9
REMARK    3  A    between atoms: O_9  and  C_10
REMARK    4  A    between atoms: C_16  and  C_17
REMARK    5  A    between atoms: C_17  and  N_18
REMARK    6  A    between atoms: N_18  and  C_19
REMARK    7  A    between atoms: C_19  and  C_20
REMARK                            x       y       z     vdW  Elec       q    Type
REMARK                         _______ _______ _______ _____ _____    ______ ____
ROOT
ATOM      1  C   UNL     1       4.683   4.841  16.953  0.00  0.00    +0.000 A 
ATOM      2  C   UNL     1       6.025   4.549  16.685  0.00  0.00    +0.000 A 
ATOM      3  C   UNL     1       7.009   5.495  16.773  0.00  0.00    +0.000 A 
ATOM      4  C   UNL     1       6.676   6.776  17.210  0.00  0.00    +0.000 A 
ATOM      5 CL   UNL     1       7.912   7.938  17.448  0.00  0.00    +0.000 Cl
ATOM      6  C   UNL     1       5.348   7.101  17.497  0.00  0.00    +0.000 A 
ATOM      7  C   UNL     1       4.321   6.154  17.376  0.00  0.00    +0.000 A 
ENDROOT
BRANCH   1   8
ATOM      8  O   UNL     1       3.726   3.862  16.887  0.00  0.00    +0.000 OA
BRANCH   8  15
ATOM      9  C   UNL     1       1.659   3.598  18.260  0.00  0.00    +0.000 A 
ATOM     10  C   UNL     1       1.105   3.255  19.490  0.00  0.00    +0.000 A 
ATOM     11  C   UNL     1       1.935   2.818  20.515  0.00  0.00    +0.000 A 
ATOM     12 CL   UNL     1       1.263   2.394  22.039  0.00  0.00    +0.000 Cl
ATOM     13  C   UNL     1       3.314   2.710  20.314  0.00  0.00    +0.000 A 
ATOM     14  C   UNL     1       3.855   3.049  19.072  0.00  0.00    +0.000 A 
ATOM     15  C   UNL     1       3.042   3.497  18.036  0.00  0.00    +0.000 A 
BRANCH   9  16
ATOM     16  O   UNL     1       0.794   3.983  17.269  0.00  0.00    +0.000 OA
ATOM     17  H   UNL     1       0.997   3.540  16.443  0.00  0.00    +0.000 HD
ENDBRANCH   9  16
ENDBRANCH   8  15
ENDBRANCH   1   8
BRANCH   7  18
ATOM     18  C   UNL     1       2.911   6.599  17.680  0.00  0.00    +0.000 C 
BRANCH  18  19
ATOM     19  N   UNL     1       2.794   7.876  18.343  0.00  0.00    +0.000 NA
ATOM     20  H   UNL     1       3.693   8.367  18.261  0.00  0.00    +0.000 HD
BRANCH  19  21
ATOM     21  C   UNL     1       1.747   8.753  17.836  0.00  0.00    +0.000 C 
BRANCH  21  22
ATOM     22  C   UNL     1       1.029   9.451  18.978  0.00  0.00    +0.000 A 
ATOM     23  C   UNL     1       0.178  10.550  18.716  0.00  0.00    +0.000 A 
ATOM     24  C   UNL     1      -0.521  11.186  19.747  0.00  0.00    +0.000 A 
ATOM     25  C   UNL     1      -0.375  10.697  21.028  0.00  0.00    +0.000 A 
ATOM     26  C   UNL     1       0.465   9.632  21.311  0.00  0.00    +0.000 A 
ATOM     27  C   UNL     1       1.188   9.010  20.308  0.00  0.00    +0.000 A 
ATOM     28  C   UNL     1       0.437   9.371  22.768  0.00  0.00    +0.000 C 
ATOM     29  C   UNL     1      -0.811  10.179  23.132  0.00  0.00    +0.000 C 
ATOM     30  O   UNL     1      -1.023  11.198  22.127  0.00  0.00    +0.000 OA
ENDBRANCH  21  22
ENDBRANCH  19  21
ENDBRANCH  18  19
ENDBRANCH   7  18
TORSDOF 7
ENDMDL
MODEL 3
REMARK VINA RESULT:      -8.2      5.073      8.169
REMARK  Name = 
REMARK  7 active torsions:
REMARK  status: ('A' for Active; 'I' for Inactive)
REMARK    1  A    between atoms: O_1  and  C_2
REMARK    2  A    between atoms: C_8  and  O_9
REMARK    3  A    between atoms: O_9  and  C_10
REMARK    4  A    between atoms: C_16  and  C_17
REMARK    5  A    between atoms: C_17  and  N_18
REMARK    6  A    between atoms: N_18  and  C_19
REMARK    7  A    between atoms: C_19  and  C_20
REMARK                            x       y       z     vdW  Elec       q    Type
REMARK                         _______ _______ _______ _____ _____    ______ ____
ROOT
ATOM      1  C   UNL     1       6.236   4.754  17.605  0.00  0.00    +0.000 A 
ATOM      2  C   UNL     1       5.727   3.834  16.681  0.00  0.00    +0.000 A 
ATOM      3  C   UNL     1       5.991   3.923  15.342  0.00  0.00    +0.000 A 
ATOM      4  C   UNL     1       6.851   4.923  14.889  0.00  0.00    +0.000 A 
ATOM      5 CL   UNL     1       7.295   4.974  13.235  0.00  0.00    +0.000 Cl
ATOM      6  C   UNL     1       7.386   5.853  15.784  0.00  0.00    +0.000 A 
ATOM      7  C   UNL     1       7.095   5.799  17.155  0.00  0.00    +0.000 A 
ENDROOT
BRANCH   1   8
ATOM      8  O   UNL     1       5.978   4.618  18.944  0.00  0.00    +0.000 OA
BRANCH   8  15
ATOM      9  C   UNL     1       4.343   2.925  19.772  0.00  0.00    +0.000 A 
ATOM     10  C   UNL     1       3.022   2.635  20.104  0.00  0.00    +0.000 A 
ATOM     11  C   UNL     1       2.060   3.633  20.012  0.00  0.00    +0.000 A 
ATOM     12 CL   UNL     1       0.426   3.286  20.417  0.00  0.00    +0.000 Cl
ATOM     13  C   UNL     1       2.412   4.922  19.604  0.00  0.00    +0.000 A 
ATOM     14  C   UNL     1       3.742   5.202  19.283  0.00  0.00    +0.000 A 
ATOM     15  C   UNL     1       4.718   4.213  19.359  0.00  0.00    +0.000 A 
BRANCH   9  16
ATOM     16  O   UNL     1       5.261   1.917  19.919  0.00  0.00    +0.000 OA
ATOM     17  H   UNL     1       4.869   1.064  19.723  0.00  0.00    +0.000 HD
ENDBRANCH   9  16
ENDBRANCH   8  15
ENDBRANCH   1   8
BRANCH   7  18
ATOM     18  C   UNL     1       7.694   6.861  18.045  0.00  0.00    +0.000 C 
BRANCH  18  19
ATOM     19  N   UNL     1       8.162   8.046  17.367  0.00  0.00    +0.000 NA
ATOM     20  H   UNL     1       7.934   7.960  16.369  0.00  0.00    +0.000 HD
BRANCH  19  21
ATOM     21  C   UNL     1       7.614   9.305  17.854  0.00  0.00    +0.000 C 
BRANCH  21  22
ATOM     22  C   UNL     1       8.719  10.209  18.372  0.00  0.00    +0.000 A 
ATOM     23  C   UNL     1       9.159  10.096  19.712  0.00  0.00    +0.000 A 
ATOM     24  C   UNL     1      10.199  10.893  20.201  0.00  0.00    +0.000 A 
ATOM     25  C   UNL     1      10.800  11.780  19.334  0.00  0.00    +0.000 A 
ATOM     26  C   UNL     1      10.376  11.919  18.022  0.00  0.00    +0.000 A 
ATOM     27  C   UNL     1       9.328  11.161  17.529  0.00  0.00    +0.000 A 
ATOM     28  C   UNL     1      11.186  12.969  17.363  0.00  0.00    +0.000 C 
ATOM     29  C   UNL     1      12.323  13.070  18.382  0.00  0.00    +0.000 C 
ATOM     30  O   UNL     1      11.849  12.598  19.666  0.00  0.00    +0.000 OA
ENDBRANCH  21  22
ENDBRANCH  19  21
ENDBRANCH  18  19
ENDBRANCH   7  18
TORSDOF 7
ENDMDL
MODEL 4
REMARK VINA RESULT:      -8.2      2.075      2.225
REMARK  Name = 
REMARK  7 active torsions:
REMARK  status: ('A' for Active; 'I' for Inactive)
REMARK    1  A    between atoms: O_1  and  C_2
REMARK    2  A    between atoms: C_8  and  O_9
REMARK    3  A    between atoms: O_9  and  C_10
REMARK    4  A    between atoms: C_16  and  C_17
REMARK    5  A    between atoms: C_17  and  N_18
REMARK    6  A    between atoms: N_18  and  C_19
REMARK    7  A    between atoms: C_19  and  C_20
REMARK                            x       y       z     vdW  Elec       q    Type
REMARK                         _______ _______ _______ _____ _____    ______ ____
ROOT
ATOM      1  C   UNL     1       4.215   5.091  19.350  0.00  0.00    +0.000 A 
ATOM      2  C   UNL     1       4.466   3.739  19.608  0.00  0.00    +0.000 A 
ATOM      3  C   UNL     1       3.581   2.949  20.288  0.00  0.00    +0.000 A 
ATOM      4  C   UNL     1       2.357   3.491  20.680  0.00  0.00    +0.000 A 
ATOM      5 CL   UNL     1       1.183   2.484  21.419  0.00  0.00    +0.000 Cl
ATOM      6  C   UNL     1       2.067   4.834  20.431  0.00  0.00    +0.000 A 
ATOM      7  C   UNL     1       2.979   5.668  19.768  0.00  0.00    +0.000 A 
ENDROOT
BRANCH   1   8
ATOM      8  O   UNL     1       5.109   5.847  18.638  0.00  0.00    +0.000 OA
BRANCH   8  15
ATOM      9  C   UNL     1       6.790   4.693  17.201  0.00  0.00    +0.000 A 
ATOM     10  C   UNL     1       7.182   4.330  15.916  0.00  0.00    +0.000 A 
ATOM     11  C   UNL     1       6.375   4.664  14.836  0.00  0.00    +0.000 A 
ATOM     12 CL   UNL     1       6.850   4.225  13.244  0.00  0.00    +0.000 Cl
ATOM     13  C   UNL     1       5.171   5.345  15.034  0.00  0.00    +0.000 A 
ATOM     14  C   UNL     1       4.785   5.694  16.331  0.00  0.00    +0.000 A 
ATOM     15  C   UNL     1       5.585   5.377  17.424  0.00  0.00    +0.000 A 
BRANCH   9  16
ATOM     16  O   UNL     1       7.601   4.304  18.236  0.00  0.00    +0.000 OA
ATOM     17  H   UNL     1       8.444   4.761  18.204  0.00  0.00    +0.000 HD
ENDBRANCH   9  16
ENDBRANCH   8  15
ENDBRANCH   1   8
BRANCH   7  18
ATOM     18  C   UNL     1       2.595   7.114  19.565  0.00  0.00    +0.000 C 
BRANCH  18  19
ATOM     19  N   UNL     1       2.235   7.475  18.214  0.00  0.00    +0.000 NA
ATOM     20  H   UNL     1       1.212   7.441  18.131  0.00  0.00    +0.000 HD
BRANCH  19  21
ATOM     21  C   UNL     1       2.685   8.789  17.776  0.00  0.00    +0.000 C 
BRANCH  21  22
ATOM     22  C   UNL     1       1.630   9.844  18.063  0.00  0.00    +0.000 A 
ATOM     23  C   UNL     1       0.259   9.499  18.043  0.00  0.00    +0.000 A 
ATOM     24  C   UNL     1      -0.729  10.445  18.339  0.00  0.00    +0.000 A 
ATOM     25  C   UNL     1      -0.328  11.720  18.673  0.00  0.00    +0.000 A 
ATOM     26  C   UNL     1       1.009  12.084  18.685  0.00  0.00    +0.000 A 
ATOM     27  C   UNL     1       1.999  11.171  18.365  0.00  0.00    +0.000 A 
ATOM     28  C   UNL     1       1.115  13.518  19.042  0.00  0.00    +0.000 C 
ATOM     29  C   UNL     1      -0.299  13.734  19.585  0.00  0.00    +0.000 C 
ATOM     30  O   UNL     1      -1.181  12.736  19.018  0.00  0.00    +0.000 OA
ENDBRANCH  21  22
ENDBRANCH  19  21
ENDBRANCH  18  19
ENDBRANCH   7  18
TORSDOF 7
ENDMDL
MODEL 5
REMARK VINA RESULT:      -8.2      2.168      2.949
REMARK  Name = 
REMARK  7 active torsions:
REMARK  status: ('A' for Active; 'I' for Inactive)
REMARK    1  A    between atoms: O_1  and  C_2
REMARK    2  A    between atoms: C_8  and  O_9
REMARK    3  A    between atoms: O_9  and  C_10
REMARK    4  A    between atoms: C_16  and  C_17
REMARK    5  A    between atoms: C_17  and  N_18
REMARK    6  A    between atoms: N_18  and  C_19
REMARK    7  A    between atoms: C_19  and  C_20
REMARK                            x       y       z     vdW  Elec       q    Type
REMARK                         _______ _______ _______ _____ _____    ______ ____
ROOT
ATOM      1  C   UNL     1       4.222   3.986  18.568  0.00  0.00    +0.000 A 
ATOM      2  C   UNL     1       4.496   2.885  19.387  0.00  0.00    +0.000 A 
ATOM      3  C   UNL     1       3.647   2.487  20.383  0.00  0.00    +0.000 A 
ATOM      4  C   UNL     1       2.436   3.159  20.546  0.00  0.00    +0.000 A 
ATOM      5 CL   UNL     1       1.304   2.597  21.703  0.00  0.00    +0.000 Cl
ATOM      6  C   UNL     1       2.124   4.257  19.740  0.00  0.00    +0.000 A 
ATOM      7  C   UNL     1       3.000   4.701  18.739  0.00  0.00    +0.000 A 
ENDROOT
BRANCH   1   8
ATOM      8  O   UNL     1       5.078   4.339  17.558  0.00  0.00    +0.000 OA
BRANCH   8  15
ATOM      9  C   UNL     1       5.992   6.559  16.877  0.00  0.00    +0.000 A 
ATOM     10  C   UNL     1       6.918   7.570  17.119  0.00  0.00    +0.000 A 
ATOM     11  C   UNL     1       7.779   7.462  18.203  0.00  0.00    +0.000 A 
ATOM     12 CL   UNL     1       8.928   8.702  18.510  0.00  0.00    +0.000 Cl
ATOM     13  C   UNL     1       7.712   6.356  19.055  0.00  0.00    +0.000 A 
ATOM     14  C   UNL     1       6.772   5.354  18.806  0.00  0.00    +0.000 A 
ATOM     15  C   UNL     1       5.908   5.439  17.720  0.00  0.00    +0.000 A 
BRANCH   9  16
ATOM     16  O   UNL     1       5.138   6.733  15.819  0.00  0.00    +0.000 OA
ATOM     17  H   UNL     1       4.681   7.574  15.880  0.00  0.00    +0.000 HD
ENDBRANCH   9  16
ENDBRANCH   8  15
ENDBRANCH   1   8
BRANCH   7  18
ATOM     18  C   UNL     1       2.595   5.912  17.934  0.00  0.00    +0.000 C 
BRANCH  18  19
ATOM     19  N   UNL     1       2.727   7.179  18.613  0.00  0.00    +0.000 NA
ATOM     20  H   UNL     1       3.718   7.451  18.604  0.00  0.00    +0.000 HD
BRANCH  19  21
ATOM     21  C   UNL     1       1.949   8.275  18.051  0.00  0.00    +0.000 C 
BRANCH  21  22
ATOM     22  C   UNL     1       1.431   9.187  19.150  0.00  0.00    +0.000 A 
ATOM     23  C   UNL     1       1.261  10.569  18.905  0.00  0.00    +0.000 A 
ATOM     24  C   UNL     1       0.752  11.422  19.890  0.00  0.00    +0.000 A 
ATOM     25  C   UNL     1       0.400  10.873  21.105  0.00  0.00    +0.000 A 
ATOM     26  C   UNL     1       0.572   9.525  21.373  0.00  0.00    +0.000 A 
ATOM     27  C   UNL     1       1.102   8.671  20.421  0.00  0.00    +0.000 A 
ATOM     28  C   UNL     1       0.140   9.252  22.763  0.00  0.00    +0.000 C 
ATOM     29  C   UNL     1      -0.630  10.546  23.033  0.00  0.00    +0.000 C 
ATOM     30  O   UNL     1      -0.141  11.580  22.147  0.00  0.00    +0.000 OA
ENDBRANCH  21  22
ENDBRANCH  19  21
ENDBRANCH  18  19
ENDBRANCH   7  18
TORSDOF 7
ENDMDL
MODEL 6
REMARK VINA RESULT:      -8.2      2.038      4.624
REMARK  Name = 
REMARK  7 active torsions:
REMARK  status: ('A' for Active; 'I' for Inactive)
REMARK    1  A    between atoms: O_1  and  C_2
REMARK    2  A    between atoms: C_8  and  O_9
REMARK    3  A    between atoms: O_9  and  C_10
REMARK    4  A    between atoms: C_16  and  C_17
REMARK    5  A    between atoms: C_17  and  N_18
REMARK    6  A    between atoms: N_18  and  C_19
REMARK    7  A    between atoms: C_19  and  C_20
REMARK                            x       y       z     vdW  Elec       q    Type
REMARK                         _______ _______ _______ _____ _____    ______ ____
ROOT
ATOM      1  C   UNL     1       4.835   4.933  17.071  0.00  0.00    +0.000 A 
ATOM      2  C   UNL     1       6.196   4.609  17.023  0.00  0.00    +0.000 A 
ATOM      3  C   UNL     1       7.175   5.552  17.162  0.00  0.00    +0.000 A 
ATOM      4  C   UNL     1       6.809   6.872  17.428  0.00  0.00    +0.000 A 
ATOM      5 CL   UNL     1       8.023   8.043  17.731  0.00  0.00    +0.000 Cl
ATOM      6  C   UNL     1       5.461   7.230  17.493  0.00  0.00    +0.000 A 
ATOM      7  C   UNL     1       4.443   6.282  17.316  0.00  0.00    +0.000 A 
ENDROOT
BRANCH   1   8
ATOM      8  O   UNL     1       3.878   3.959  16.960  0.00  0.00    +0.000 OA
BRANCH   8  15
ATOM      9  C   UNL     1       1.781   3.676  18.283  0.00  0.00    +0.000 A 
ATOM     10  C   UNL     1       1.199   3.304  19.491  0.00  0.00    +0.000 A 
ATOM     11  C   UNL     1       2.003   2.833  20.521  0.00  0.00    +0.000 A 
ATOM     12 CL   UNL     1       1.296   2.374  22.019  0.00  0.00    +0.000 Cl
ATOM     13  C   UNL     1       3.385   2.719  20.346  0.00  0.00    +0.000 A 
ATOM     14  C   UNL     1       3.955   3.086  19.125  0.00  0.00    +0.000 A 
ATOM     15  C   UNL     1       3.167   3.569  18.085  0.00  0.00    +0.000 A 
BRANCH   9  16
ATOM     16  O   UNL     1       0.940   4.094  17.285  0.00  0.00    +0.000 OA
ATOM     17  H   UNL     1       1.434   4.385  16.516  0.00  0.00    +0.000 HD
ENDBRANCH   9  16
ENDBRANCH   8  15
ENDBRANCH   1   8
BRANCH   7  18
ATOM     18  C   UNL     1       3.013   6.762  17.376  0.00  0.00    +0.000 C 
BRANCH  18  19
ATOM     19  N   UNL     1       2.649   7.473  18.579  0.00  0.00    +0.000 NA
ATOM     20  H   UNL     1       3.510   7.737  19.074  0.00  0.00    +0.000 HD
BRANCH  19  21
ATOM     21  C   UNL     1       1.851   8.675  18.379  0.00  0.00    +0.000 C 
BRANCH  21  22
ATOM     22  C   UNL     1       1.233   9.135  19.688  0.00  0.00    +0.000 A 
ATOM     23  C   UNL     1       1.603   8.516  20.905  0.00  0.00    +0.000 A 
ATOM     24  C   UNL     1       1.074   8.947  22.126  0.00  0.00    +0.000 A 
ATOM     25  C   UNL     1       0.195  10.008  22.114  0.00  0.00    +0.000 A 
ATOM     26  C   UNL     1      -0.194  10.621  20.934  0.00  0.00    +0.000 A 
ATOM     27  C   UNL     1       0.295  10.188  19.713  0.00  0.00    +0.000 A 
ATOM     28  C   UNL     1      -1.168  11.692  21.245  0.00  0.00    +0.000 C 
ATOM     29  C   UNL     1      -0.928  11.803  22.752  0.00  0.00    +0.000 C 
ATOM     30  O   UNL     1      -0.374  10.556  23.235  0.00  0.00    +0.000 OA
ENDBRANCH  21  22
ENDBRANCH  19  21
ENDBRANCH  18  19
ENDBRANCH   7  18
TORSDOF 7
ENDMDL
MODEL 7
REMARK VINA RESULT:      -8.1      2.093      2.624
REMARK  Name = 
REMARK  7 active torsions:
REMARK  status: ('A' for Active; 'I' for Inactive)
REMARK    1  A    between atoms: O_1  and  C_2
REMARK    2  A    between atoms: C_8  and  O_9
REMARK    3  A    between atoms: O_9  and  C_10
REMARK    4  A    between atoms: C_16  and  C_17
REMARK    5  A    between atoms: C_17  and  N_18
REMARK    6  A    between atoms: N_18  and  C_19
REMARK    7  A    between atoms: C_19  and  C_20
REMARK                            x       y       z     vdW  Elec       q    Type
REMARK                         _______ _______ _______ _____ _____    ______ ____
ROOT
ATOM      1  C   UNL     1       4.186   4.030  18.558  0.00  0.00    +0.000 A 
ATOM      2  C   UNL     1       4.463   2.912  19.353  0.00  0.00    +0.000 A 
ATOM      3  C   UNL     1       3.629   2.504  20.356  0.00  0.00    +0.000 A 
ATOM      4  C   UNL     1       2.427   3.183  20.551  0.00  0.00    +0.000 A 
ATOM      5 CL   UNL     1       1.309   2.610  21.717  0.00  0.00    +0.000 Cl
ATOM      6  C   UNL     1       2.110   4.297  19.771  0.00  0.00    +0.000 A 
ATOM      7  C   UNL     1       2.973   4.752  18.763  0.00  0.00    +0.000 A 
ENDROOT
BRANCH   1   8
ATOM      8  O   UNL     1       5.028   4.393  17.540  0.00  0.00    +0.000 OA
BRANCH   8  15
ATOM      9  C   UNL     1       5.984   6.600  16.875  0.00  0.00    +0.000 A 
ATOM     10  C   UNL     1       6.928   7.592  17.126  0.00  0.00    +0.000 A 
ATOM     11  C   UNL     1       7.785   7.460  18.211  0.00  0.00    +0.000 A 
ATOM     12 CL   UNL     1       8.957   8.677  18.529  0.00  0.00    +0.000 Cl
ATOM     13  C   UNL     1       7.696   6.351  19.056  0.00  0.00    +0.000 A 
ATOM     14  C   UNL     1       6.737   5.367  18.798  0.00  0.00    +0.000 A 
ATOM     15  C   UNL     1       5.877   5.476  17.710  0.00  0.00    +0.000 A 
BRANCH   9  16
ATOM     16  O   UNL     1       5.136   6.797  15.817  0.00  0.00    +0.000 OA
ATOM     17  H   UNL     1       5.273   6.134  15.138  0.00  0.00    +0.000 HD
ENDBRANCH   9  16
ENDBRANCH   8  15
ENDBRANCH   1   8
BRANCH   7  18
ATOM     18  C   UNL     1       2.565   5.980  17.986  0.00  0.00    +0.000 C 
BRANCH  18  19
ATOM     19  N   UNL     1       2.835   7.241  18.635  0.00  0.00    +0.000 NA
ATOM     20  H   UNL     1       3.782   7.543  18.376  0.00  0.00    +0.000 HD
BRANCH  19  21
ATOM     21  C   UNL     1       1.909   8.320  18.319  0.00  0.00    +0.000 C 
BRANCH  21  22
ATOM     22  C   UNL     1       1.303   8.900  19.586  0.00  0.00    +0.000 A 
ATOM     23  C   UNL     1       1.596   8.320  20.842  0.00  0.00    +0.000 A 
ATOM     24  C   UNL     1       1.079   8.859  22.025  0.00  0.00    +0.000 A 
ATOM     25  C   UNL     1       0.291   9.986  21.935  0.00  0.00    +0.000 A 
ATOM     26  C   UNL     1      -0.022  10.562  20.714  0.00  0.00    +0.000 A 
ATOM     27  C   UNL     1       0.456  10.025  19.531  0.00  0.00    +0.000 A 
ATOM     28  C   UNL     1      -0.909  11.725  20.944  0.00  0.00    +0.000 C 
ATOM     29  C   UNL     1      -0.693  11.898  22.449  0.00  0.00    +0.000 C 
ATOM     30  O   UNL     1      -0.254  10.638  23.010  0.00  0.00    +0.000 OA
ENDBRANCH  21  22
ENDBRANCH  19  21
ENDBRANCH  18  19
ENDBRANCH   7  18
TORSDOF 7
ENDMDL
MODEL 8
REMARK VINA RESULT:      -8.1      1.254      1.877
REMARK  Name = 
REMARK  7 active torsions:
REMARK  status: ('A' for Active; 'I' for Inactive)
REMARK    1  A    between atoms: O_1  and  C_2
REMARK    2  A    between atoms: C_8  and  O_9
REMARK    3  A    between atoms: O_9  and  C_10
REMARK    4  A    between atoms: C_16  and  C_17
REMARK    5  A    between atoms: C_17  and  N_18
REMARK    6  A    between atoms: N_18  and  C_19
REMARK    7  A    between atoms: C_19  and  C_20
REMARK                            x       y       z     vdW  Elec       q    Type
REMARK                         _______ _______ _______ _____ _____    ______ ____
ROOT
ATOM      1  C   UNL     1       4.679   4.763  18.903  0.00  0.00    +0.000 A 
ATOM      2  C   UNL     1       4.663   3.494  19.493  0.00  0.00    +0.000 A 
ATOM      3  C   UNL     1       3.548   2.984  20.097  0.00  0.00    +0.000 A 
ATOM      4  C   UNL     1       2.366   3.723  20.067  0.00  0.00    +0.000 A 
ATOM      5 CL   UNL     1       0.927   3.047  20.706  0.00  0.00    +0.000 Cl
ATOM      6  C   UNL     1       2.341   4.989  19.478  0.00  0.00    +0.000 A 
ATOM      7  C   UNL     1       3.485   5.544  18.887  0.00  0.00    +0.000 A 
ENDROOT
BRANCH   1   8
ATOM      8  O   UNL     1       5.804   5.232  18.278  0.00  0.00    +0.000 OA
BRANCH   8  15
ATOM      9  C   UNL     1       6.892   5.555  16.056  0.00  0.00    +0.000 A 
ATOM     10  C   UNL     1       6.991   5.147  14.729  0.00  0.00    +0.000 A 
ATOM     11  C   UNL     1       6.227   4.075  14.285  0.00  0.00    +0.000 A 
ATOM     12 CL   UNL     1       6.339   3.563  12.648  0.00  0.00    +0.000 Cl
ATOM     13  C   UNL     1       5.374   3.401  15.162  0.00  0.00    +0.000 A 
ATOM     14  C   UNL     1       5.291   3.815  16.494  0.00  0.00    +0.000 A 
ATOM     15  C   UNL     1       6.041   4.892  16.954  0.00  0.00    +0.000 A 
BRANCH   9  16
ATOM     16  O   UNL     1       7.698   6.590  16.454  0.00  0.00    +0.000 OA
ATOM     17  H   UNL     1       8.511   6.609  15.945  0.00  0.00    +0.000 HD
ENDBRANCH   9  16
ENDBRANCH   8  15
ENDBRANCH   1   8
BRANCH   7  18
ATOM     18  C   UNL     1       3.374   6.929  18.298  0.00  0.00    +0.000 C 
BRANCH  18  19
ATOM     19  N   UNL     1       2.028   7.400  18.071  0.00  0.00    +0.000 NA
ATOM     20  H   UNL     1       1.455   7.149  18.886  0.00  0.00    +0.000 HD
BRANCH  19  21
ATOM     21  C   UNL     1       1.895   8.832  17.843  0.00  0.00    +0.000 C 
BRANCH  21  22
ATOM     22  C   UNL     1       1.115   9.487  18.970  0.00  0.00    +0.000 A 
ATOM     23  C   UNL     1       0.207  10.534  18.690  0.00  0.00    +0.000 A 
ATOM     24  C   UNL     1      -0.549  11.128  19.707  0.00  0.00    +0.000 A 
ATOM     25  C   UNL     1      -0.398  10.649  20.991  0.00  0.00    +0.000 A 
ATOM     26  C   UNL     1       0.497   9.634  21.291  0.00  0.00    +0.000 A 
ATOM     27  C   UNL     1       1.275   9.056  20.303  0.00  0.00    +0.000 A 
ATOM     28  C   UNL     1       0.456   9.372  22.748  0.00  0.00    +0.000 C 
ATOM     29  C   UNL     1      -0.844  10.106  23.087  0.00  0.00    +0.000 C 
ATOM     30  O   UNL     1      -1.096  11.111  22.077  0.00  0.00    +0.000 OA
ENDBRANCH  21  22
ENDBRANCH  19  21
ENDBRANCH  18  19
ENDBRANCH   7  18
TORSDOF 7
ENDMDL
MODEL 9
REMARK VINA RESULT:      -8.1      1.688      2.135
REMARK  Name = 
REMARK  7 active torsions:
REMARK  status: ('A' for Active; 'I' for Inactive)
REMARK    1  A    between atoms: O_1  and  C_2
REMARK    2  A    between atoms: C_8  and  O_9
REMARK    3  A    between atoms: O_9  and  C_10
REMARK    4  A    between atoms: C_16  and  C_17
REMARK    5  A    between atoms: C_17  and  N_18
REMARK    6  A    between atoms: N_18  and  C_19
REMARK    7  A    between atoms: C_19  and  C_20
REMARK                            x       y       z     vdW  Elec       q    Type
REMARK                         _______ _______ _______ _____ _____    ______ ____
ROOT
ATOM      1  C   UNL     1       4.180   5.163  19.311  0.00  0.00    +0.000 A 
ATOM      2  C   UNL     1       4.404   3.799  19.528  0.00  0.00    +0.000 A 
ATOM      3  C   UNL     1       3.511   3.010  20.198  0.00  0.00    +0.000 A 
ATOM      4  C   UNL     1       2.304   3.566  20.621  0.00  0.00    +0.000 A 
ATOM      5 CL   UNL     1       1.118   2.566  21.348  0.00  0.00    +0.000 Cl
ATOM      6  C   UNL     1       2.040   4.922  20.413  0.00  0.00    +0.000 A 
ATOM      7  C   UNL     1       2.962   5.754  19.761  0.00  0.00    +0.000 A 
ENDROOT
BRANCH   1   8
ATOM      8  O   UNL     1       5.081   5.919  18.608  0.00  0.00    +0.000 OA
BRANCH   8  15
ATOM      9  C   UNL     1       6.777   4.729  17.218  0.00  0.00    +0.000 A 
ATOM     10  C   UNL     1       7.199   4.361  15.943  0.00  0.00    +0.000 A 
ATOM     11  C   UNL     1       6.432   4.716  14.841  0.00  0.00    +0.000 A 
ATOM     12 CL   UNL     1       6.944   4.270  13.262  0.00  0.00    +0.000 Cl
ATOM     13  C   UNL     1       5.239   5.425  15.006  0.00  0.00    +0.000 A 
ATOM     14  C   UNL     1       4.822   5.779  16.291  0.00  0.00    +0.000 A 
ATOM     15  C   UNL     1       5.582   5.441  17.406  0.00  0.00    +0.000 A 
BRANCH   9  16
ATOM     16  O   UNL     1       7.548   4.319  18.274  0.00  0.00    +0.000 OA
ATOM     17  H   UNL     1       7.880   3.430  18.134  0.00  0.00    +0.000 HD
ENDBRANCH   9  16
ENDBRANCH   8  15
ENDBRANCH   1   8
BRANCH   7  18
ATOM     18  C   UNL     1       2.607   7.213  19.603  0.00  0.00    +0.000 C 
BRANCH  18  19
ATOM     19  N   UNL     1       2.917   7.789  18.315  0.00  0.00    +0.000 NA
ATOM     20  H   UNL     1       3.328   7.057  17.723  0.00  0.00    +0.000 HD
BRANCH  19  21
ATOM     21  C   UNL     1       1.789   8.373  17.603  0.00  0.00    +0.000 C 
BRANCH  21  22
ATOM     22  C   UNL     1       1.427   9.728  18.186  0.00  0.00    +0.000 A 
ATOM     23  C   UNL     1       2.299  10.829  18.019  0.00  0.00    +0.000 A 
ATOM     24  C   UNL     1       1.970  12.095  18.516  0.00  0.00    +0.000 A 
ATOM     25  C   UNL     1       0.759  12.245  19.157  0.00  0.00    +0.000 A 
ATOM     26  C   UNL     1      -0.105  11.178  19.346  0.00  0.00    +0.000 A 
ATOM     27  C   UNL     1       0.218   9.912  18.888  0.00  0.00    +0.000 A 
ATOM     28  C   UNL     1      -1.293  11.647  20.095  0.00  0.00    +0.000 C 
ATOM     29  C   UNL     1      -1.105  13.156  19.923  0.00  0.00    +0.000 C 
ATOM     30  O   UNL     1       0.292  13.430  19.664  0.00  0.00    +0.000 OA
ENDBRANCH  21  22
ENDBRANCH  19  21
ENDBRANCH  18  19
ENDBRANCH   7  18
TORSDOF 7
ENDMDL
