MODEL 1
REMARK VINA RESULT:      -7.5      0.000      0.000
REMARK  Name = 
REMARK  4 active torsions:
REMARK  status: ('A' for Active; 'I' for Inactive)
REMARK    1  A    between atoms: C_2  and  C_3
REMARK    2  A    between atoms: C_11  and  O_12
REMARK    3  A    between atoms: O_12  and  C_13
REMARK    4  A    between atoms: C_13  and  C_14
REMARK                            x       y       z     vdW  Elec       q    Type
REMARK                         _______ _______ _______ _____ _____    ______ ____
ROOT
ATOM      1  O   UNL     1       1.490   5.114  17.907  0.00  0.00    +0.000 OA
ATOM      2  C   UNL     1       2.437   5.819  18.261  0.00  0.00    +0.000 C 
ATOM      3  N   UNL     1       3.706   5.273  18.383  0.00  0.00    +0.000 N 
ATOM      4  C   UNL     1       3.902   3.856  18.032  0.00  0.00    +0.000 C 
ATOM      5  C   UNL     1       5.429   3.635  17.996  0.00  0.00    +0.000 C 
ATOM      6  C   UNL     1       5.849   4.612  19.113  0.00  0.00    +0.000 C 
ATOM      7  O   UNL     1       7.226   4.883  19.312  0.00  0.00    +0.000 OA
ATOM      8  C   UNL     1       7.850   5.700  18.329  0.00  0.00    +0.000 C 
ATOM      9  C   UNL     1       7.094   6.993  18.050  0.00  0.00    +0.000 C 
ATOM     10  C   UNL     1       5.611   6.777  17.779  0.00  0.00    +0.000 C 
ATOM     11  C   UNL     1       4.983   5.848  18.823  0.00  0.00    +0.000 C 
ENDROOT
BRANCH   2  12
ATOM     12  C   UNL     1       2.161   7.266  18.463  0.00  0.00    +0.000 A 
ATOM     13  C   UNL     1       2.301   8.270  17.519  0.00  0.00    +0.000 A 
ATOM     14  C   UNL     1       1.917   9.553  17.855  0.00  0.00    +0.000 A 
ATOM     15  N   UNL     1       1.471   9.883  19.080  0.00  0.00    +0.000 NA
ATOM     16  N   UNL     1       1.411   8.928  20.040  0.00  0.00    +0.000 NA
ATOM     17  C   UNL     1       1.744   7.654  19.730  0.00  0.00    +0.000 A 
ENDBRANCH   2  12
BRANCH   5  18
ATOM     18  O   UNL     1       6.019   4.040  16.759  0.00  0.00    +0.000 OA
BRANCH  18  19
ATOM     19  C   UNL     1       5.291   3.722  15.584  0.00  0.00    +0.000 C 
BRANCH  19  20
ATOM     20  C   UNL     1       6.141   4.135  14.418  0.00  0.00    +0.000 A 
ATOM     21  C   UNL     1       5.974   3.579  13.146  0.00  0.00    +0.000 A 
ATOM     22  C   UNL     1       6.777   4.008  12.093  0.00  0.00    +0.000 A 
ATOM     23  C   UNL     1       7.725   4.985  12.344  0.00  0.00    +0.000 A 
ATOM     24  N   UNL     1       7.914   5.551  13.554  0.00  0.00    +0.000 NA
ATOM     25  C   UNL     1       7.114   5.119  14.555  0.00  0.00    +0.000 A 
ENDBRANCH  19  20
ENDBRANCH  18  19
ENDBRANCH   5  18
TORSDOF 4
ENDMDL
MODEL 2
REMARK VINA RESULT:      -7.2      1.576      6.875
REMARK  Name = 
REMARK  4 active torsions:
REMARK  status: ('A' for Active; 'I' for Inactive)
REMARK    1  A    between atoms: C_2  and  C_3
REMARK    2  A    between atoms: C_11  and  O_12
REMARK    3  A    between atoms: O_12  and  C_13
REMARK    4  A    between atoms: C_13  and  C_14
REMARK                            x       y       z     vdW  Elec       q    Type
REMARK                         _______ _______ _______ _____ _____    ______ ____
ROOT
ATOM      1  O   UNL     1       7.525   6.442  16.480  0.00  0.00    +0.000 OA
ATOM      2  C   UNL     1       6.789   5.471  16.295  0.00  0.00    +0.000 C 
ATOM      3  N   UNL     1       5.972   5.010  17.316  0.00  0.00    +0.000 N 
ATOM      4  C   UNL     1       5.968   5.733  18.599  0.00  0.00    +0.000 C 
ATOM      5  C   UNL     1       4.779   5.165  19.402  0.00  0.00    +0.000 C 
ATOM      6  C   UNL     1       4.816   3.706  18.905  0.00  0.00    +0.000 C 
ATOM      7  O   UNL     1       3.755   2.832  19.252  0.00  0.00    +0.000 OA
ATOM      8  C   UNL     1       2.519   3.054  18.585  0.00  0.00    +0.000 C 
ATOM      9  C   UNL     1       2.657   3.139  17.070  0.00  0.00    +0.000 C 
ATOM     10  C   UNL     1       3.749   4.099  16.618  0.00  0.00    +0.000 C 
ATOM     11  C   UNL     1       5.049   3.870  17.395  0.00  0.00    +0.000 C 
ENDROOT
BRANCH   2  12
ATOM     12  C   UNL     1       6.768   4.894  14.925  0.00  0.00    +0.000 A 
ATOM     13  C   UNL     1       5.971   3.849  14.484  0.00  0.00    +0.000 A 
ATOM     14  C   UNL     1       6.022   3.496  13.150  0.00  0.00    +0.000 A 
ATOM     15  N   UNL     1       6.857   4.080  12.272  0.00  0.00    +0.000 NA
ATOM     16  N   UNL     1       7.704   5.044  12.709  0.00  0.00    +0.000 NA
ATOM     17  C   UNL     1       7.651   5.438  14.001  0.00  0.00    +0.000 A 
ENDBRANCH   2  12
BRANCH   5  18
ATOM     18  O   UNL     1       3.532   5.762  19.044  0.00  0.00    +0.000 OA
BRANCH  18  19
ATOM     19  C   UNL     1       2.772   6.314  20.107  0.00  0.00    +0.000 C 
BRANCH  19  20
ATOM     20  C   UNL     1       2.150   7.578  19.591  0.00  0.00    +0.000 A 
ATOM     21  C   UNL     1       2.297   7.987  18.262  0.00  0.00    +0.000 A 
ATOM     22  C   UNL     1       1.686   9.160  17.829  0.00  0.00    +0.000 A 
ATOM     23  C   UNL     1       0.942   9.892  18.739  0.00  0.00    +0.000 A 
ATOM     24  N   UNL     1       0.771   9.528  20.027  0.00  0.00    +0.000 NA
ATOM     25  C   UNL     1       1.371   8.381  20.418  0.00  0.00    +0.000 A 
ENDBRANCH  19  20
ENDBRANCH  18  19
ENDBRANCH   5  18
TORSDOF 4
ENDMDL
MODEL 3
REMARK VINA RESULT:      -6.8      1.797      6.605
REMARK  Name = 
REMARK  4 active torsions:
REMARK  status: ('A' for Active; 'I' for Inactive)
REMARK    1  A    between atoms: C_2  and  C_3
REMARK    2  A    between atoms: C_11  and  O_12
REMARK    3  A    between atoms: O_12  and  C_13
REMARK    4  A    between atoms: C_13  and  C_14
REMARK                            x       y       z     vdW  Elec       q    Type
REMARK                         _______ _______ _______ _____ _____    ______ ____
ROOT
ATOM      1  O   UNL     1       6.752   4.755  19.277  0.00  0.00    +0.000 OA
ATOM      2  C   UNL     1       5.918   4.329  18.475  0.00  0.00    +0.000 C 
ATOM      3  N   UNL     1       4.717   3.807  18.929  0.00  0.00    +0.000 N 
ATOM      4  C   UNL     1       4.441   3.821  20.375  0.00  0.00    +0.000 C 
ATOM      5  C   UNL     1       2.950   3.451  20.527  0.00  0.00    +0.000 C 
ATOM      6  C   UNL     1       2.813   2.476  19.340  0.00  0.00    +0.000 C 
ATOM      7  O   UNL     1       1.525   2.013  18.972  0.00  0.00    +0.000 OA
ATOM      8  C   UNL     1       0.683   2.959  18.325  0.00  0.00    +0.000 C 
ATOM      9  C   UNL     1       1.349   3.653  17.144  0.00  0.00    +0.000 C 
ATOM     10  C   UNL     1       2.722   4.221  17.477  0.00  0.00    +0.000 C 
ATOM     11  C   UNL     1       3.584   3.197  18.222  0.00  0.00    +0.000 C 
ENDROOT
BRANCH   2  12
ATOM     12  C   UNL     1       6.236   4.482  17.031  0.00  0.00    +0.000 A 
ATOM     13  C   UNL     1       5.768   3.686  15.997  0.00  0.00    +0.000 A 
ATOM     14  C   UNL     1       6.099   4.025  14.700  0.00  0.00    +0.000 A 
ATOM     15  N   UNL     1       6.907   5.057  14.399  0.00  0.00    +0.000 NA
ATOM     16  N   UNL     1       7.441   5.792  15.405  0.00  0.00    +0.000 NA
ATOM     17  C   UNL     1       7.106   5.508  16.684  0.00  0.00    +0.000 A 
ENDBRANCH   2  12
BRANCH   5  18
ATOM     18  O   UNL     1       2.079   4.566  20.334  0.00  0.00    +0.000 OA
BRANCH  18  19
ATOM     19  C   UNL     1       2.348   5.715  21.122  0.00  0.00    +0.000 C 
BRANCH  19  20
ATOM     20  C   UNL     1       2.096   6.911  20.252  0.00  0.00    +0.000 A 
ATOM     21  C   UNL     1       2.557   6.980  18.934  0.00  0.00    +0.000 A 
ATOM     22  C   UNL     1       2.283   8.105  18.163  0.00  0.00    +0.000 A 
ATOM     23  C   UNL     1       1.551   9.133  18.734  0.00  0.00    +0.000 A 
ATOM     24  N   UNL     1       1.082   9.104  19.999  0.00  0.00    +0.000 NA
ATOM     25  C   UNL     1       1.359   7.994  20.722  0.00  0.00    +0.000 A 
ENDBRANCH  19  20
ENDBRANCH  18  19
ENDBRANCH   5  18
TORSDOF 4
ENDMDL
MODEL 4
REMARK VINA RESULT:      -6.7      1.701      6.783
REMARK  Name = 
REMARK  4 active torsions:
REMARK  status: ('A' for Active; 'I' for Inactive)
REMARK    1  A    between atoms: C_2  and  C_3
REMARK    2  A    between atoms: C_11  and  O_12
REMARK    3  A    between atoms: O_12  and  C_13
REMARK    4  A    between atoms: C_13  and  C_14
REMARK                            x       y       z     vdW  Elec       q    Type
REMARK                         _______ _______ _______ _____ _____    ______ ____
ROOT
ATOM      1  O   UNL     1       6.050   6.940  15.987  0.00  0.00    +0.000 OA
ATOM      2  C   UNL     1       5.850   5.727  16.074  0.00  0.00    +0.000 C 
ATOM      3  N   UNL     1       5.460   5.169  17.283  0.00  0.00    +0.000 N 
ATOM      4  C   UNL     1       5.243   6.061  18.435  0.00  0.00    +0.000 C 
ATOM      5  C   UNL     1       4.556   5.198  19.515  0.00  0.00    +0.000 C 
ATOM      6  C   UNL     1       5.232   3.843  19.220  0.00  0.00    +0.000 C 
ATOM      7  O   UNL     1       4.756   2.678  19.872  0.00  0.00    +0.000 OA
ATOM      8  C   UNL     1       3.502   2.179  19.424  0.00  0.00    +0.000 C 
ATOM      9  C   UNL     1       3.427   2.003  17.912  0.00  0.00    +0.000 C 
ATOM     10  C   UNL     1       3.879   3.235  17.140  0.00  0.00    +0.000 C 
ATOM     11  C   UNL     1       5.203   3.780  17.685  0.00  0.00    +0.000 C 
ENDROOT
BRANCH   2  12
ATOM     12  C   UNL     1       5.966   4.933  14.822  0.00  0.00    +0.000 A 
ATOM     13  C   UNL     1       4.972   4.163  14.240  0.00  0.00    +0.000 A 
ATOM     14  C   UNL     1       5.229   3.557  13.026  0.00  0.00    +0.000 A 
ATOM     15  N   UNL     1       6.424   3.631  12.414  0.00  0.00    +0.000 NA
ATOM     16  N   UNL     1       7.432   4.310  13.013  0.00  0.00    +0.000 NA
ATOM     17  C   UNL     1       7.201   4.945  14.184  0.00  0.00    +0.000 A 
ENDBRANCH   2  12
BRANCH   5  18
ATOM     18  O   UNL     1       3.146   5.083  19.319  0.00  0.00    +0.000 OA
BRANCH  18  19
ATOM     19  C   UNL     1       2.325   5.580  20.363  0.00  0.00    +0.000 C 
BRANCH  19  20
ATOM     20  C   UNL     1       1.917   6.971  19.975  0.00  0.00    +0.000 A 
ATOM     21  C   UNL     1       1.324   7.850  20.886  0.00  0.00    +0.000 A 
ATOM     22  C   UNL     1       0.978   9.137  20.481  0.00  0.00    +0.000 A 
ATOM     23  C   UNL     1       1.238   9.507  19.173  0.00  0.00    +0.000 A 
ATOM     24  N   UNL     1       1.814   8.692  18.265  0.00  0.00    +0.000 NA
ATOM     25  C   UNL     1       2.144   7.451  18.690  0.00  0.00    +0.000 A 
ENDBRANCH  19  20
ENDBRANCH  18  19
ENDBRANCH   5  18
TORSDOF 4
ENDMDL
MODEL 5
REMARK VINA RESULT:      -6.6      1.625      7.009
REMARK  Name = 
REMARK  4 active torsions:
REMARK  status: ('A' for Active; 'I' for Inactive)
REMARK    1  A    between atoms: C_2  and  C_3
REMARK    2  A    between atoms: C_11  and  O_12
REMARK    3  A    between atoms: O_12  and  C_13
REMARK    4  A    between atoms: C_13  and  C_14
REMARK                            x       y       z     vdW  Elec       q    Type
REMARK                         _______ _______ _______ _____ _____    ______ ____
ROOT
ATOM      1  O   UNL     1       7.128   6.620  16.456  0.00  0.00    +0.000 OA
ATOM      2  C   UNL     1       6.490   5.574  16.323  0.00  0.00    +0.000 C 
ATOM      3  N   UNL     1       5.722   5.086  17.369  0.00  0.00    +0.000 N 
ATOM      4  C   UNL     1       5.647   5.869  18.614  0.00  0.00    +0.000 C 
ATOM      5  C   UNL     1       4.518   5.228  19.450  0.00  0.00    +0.000 C 
ATOM      6  C   UNL     1       4.698   3.756  19.026  0.00  0.00    +0.000 C 
ATOM      7  O   UNL     1       3.728   2.801  19.419  0.00  0.00    +0.000 OA
ATOM      8  C   UNL     1       2.477   2.868  18.748  0.00  0.00    +0.000 C 
ATOM      9  C   UNL     1       2.606   2.890  17.230  0.00  0.00    +0.000 C 
ATOM     10  C   UNL     1       3.599   3.929  16.726  0.00  0.00    +0.000 C 
ATOM     11  C   UNL     1       4.915   3.867  17.508  0.00  0.00    +0.000 C 
ENDROOT
BRANCH   2  12
ATOM     12  C   UNL     1       6.527   4.930  14.983  0.00  0.00    +0.000 A 
ATOM     13  C   UNL     1       5.711   3.899  14.542  0.00  0.00    +0.000 A 
ATOM     14  C   UNL     1       5.827   3.478  13.233  0.00  0.00    +0.000 A 
ATOM     15  N   UNL     1       6.741   3.980  12.383  0.00  0.00    +0.000 NA
ATOM     16  N   UNL     1       7.603   4.927  12.826  0.00  0.00    +0.000 NA
ATOM     17  C   UNL     1       7.490   5.388  14.092  0.00  0.00    +0.000 A 
ENDBRANCH   2  12
BRANCH   5  18
ATOM     18  O   UNL     1       3.219   5.681  19.068  0.00  0.00    +0.000 OA
BRANCH  18  19
ATOM     19  C   UNL     1       3.164   6.921  18.380  0.00  0.00    +0.000 C 
BRANCH  19  20
ATOM     20  C   UNL     1       2.193   7.791  19.122  0.00  0.00    +0.000 A 
ATOM     21  C   UNL     1       1.804   7.514  20.436  0.00  0.00    +0.000 A 
ATOM     22  C   UNL     1       0.913   8.362  21.087  0.00  0.00    +0.000 A 
ATOM     23  C   UNL     1       0.435   9.467  20.403  0.00  0.00    +0.000 A 
ATOM     24  N   UNL     1       0.790   9.773  19.138  0.00  0.00    +0.000 NA
ATOM     25  C   UNL     1       1.663   8.934  18.534  0.00  0.00    +0.000 A 
ENDBRANCH  19  20
ENDBRANCH  18  19
ENDBRANCH   5  18
TORSDOF 4
ENDMDL
MODEL 6
REMARK VINA RESULT:      -6.6      2.435      4.209
REMARK  Name = 
REMARK  4 active torsions:
REMARK  status: ('A' for Active; 'I' for Inactive)
REMARK    1  A    between atoms: C_2  and  C_3
REMARK    2  A    between atoms: C_11  and  O_12
REMARK    3  A    between atoms: O_12  and  C_13
REMARK    4  A    between atoms: C_13  and  C_14
REMARK                            x       y       z     vdW  Elec       q    Type
REMARK                         _______ _______ _______ _____ _____    ______ ____
ROOT
ATOM      1  O   UNL     1       2.633   8.701  18.104  0.00  0.00    +0.000 OA
ATOM      2  C   UNL     1       2.087   7.938  18.904  0.00  0.00    +0.000 C 
ATOM      3  N   UNL     1       2.216   6.566  18.757  0.00  0.00    +0.000 N 
ATOM      4  C   UNL     1       3.055   6.047  17.664  0.00  0.00    +0.000 C 
ATOM      5  C   UNL     1       3.225   4.538  17.940  0.00  0.00    +0.000 C 
ATOM      6  C   UNL     1       1.850   4.243  18.573  0.00  0.00    +0.000 C 
ATOM      7  O   UNL     1       1.621   2.976  19.166  0.00  0.00    +0.000 OA
ATOM      8  C   UNL     1       2.272   2.740  20.408  0.00  0.00    +0.000 C 
ATOM      9  C   UNL     1       2.044   3.848  21.429  0.00  0.00    +0.000 C 
ATOM     10  C   UNL     1       2.317   5.240  20.877  0.00  0.00    +0.000 C 
ATOM     11  C   UNL     1       1.649   5.441  19.513  0.00  0.00    +0.000 C 
ENDROOT
BRANCH   2  12
ATOM     12  C   UNL     1       1.373   8.563  20.049  0.00  0.00    +0.000 A 
ATOM     13  C   UNL     1       1.587   8.302  21.393  0.00  0.00    +0.000 A 
ATOM     14  C   UNL     1       0.889   9.038  22.329  0.00  0.00    +0.000 A 
ATOM     15  N   UNL     1      -0.036   9.955  21.993  0.00  0.00    +0.000 NA
ATOM     16  N   UNL     1      -0.317  10.159  20.684  0.00  0.00    +0.000 NA
ATOM     17  C   UNL     1       0.376   9.480  19.742  0.00  0.00    +0.000 A 
ENDBRANCH   2  12
BRANCH   5  18
ATOM     18  O   UNL     1       4.259   4.259  18.886  0.00  0.00    +0.000 OA
BRANCH  18  19
ATOM     19  C   UNL     1       5.480   3.771  18.355  0.00  0.00    +0.000 C 
BRANCH  19  20
ATOM     20  C   UNL     1       6.342   4.966  18.070  0.00  0.00    +0.000 A 
ATOM     21  C   UNL     1       7.048   5.628  19.079  0.00  0.00    +0.000 A 
ATOM     22  C   UNL     1       7.847   6.722  18.761  0.00  0.00    +0.000 A 
ATOM     23  C   UNL     1       7.919   7.123  17.437  0.00  0.00    +0.000 A 
ATOM     24  N   UNL     1       7.259   6.508  16.433  0.00  0.00    +0.000 NA
ATOM     25  C   UNL     1       6.496   5.444  16.773  0.00  0.00    +0.000 A 
ENDBRANCH  19  20
ENDBRANCH  18  19
ENDBRANCH   5  18
TORSDOF 4
ENDMDL
MODEL 7
REMARK VINA RESULT:      -6.6      1.606      6.670
REMARK  Name = 
REMARK  4 active torsions:
REMARK  status: ('A' for Active; 'I' for Inactive)
REMARK    1  A    between atoms: C_2  and  C_3
REMARK    2  A    between atoms: C_11  and  O_12
REMARK    3  A    between atoms: O_12  and  C_13
REMARK    4  A    between atoms: C_13  and  C_14
REMARK                            x       y       z     vdW  Elec       q    Type
REMARK                         _______ _______ _______ _____ _____    ______ ____
ROOT
ATOM      1  O   UNL     1       7.091   5.998  17.893  0.00  0.00    +0.000 OA
ATOM      2  C   UNL     1       6.334   5.146  17.422  0.00  0.00    +0.000 C 
ATOM      3  N   UNL     1       5.315   4.614  18.196  0.00  0.00    +0.000 N 
ATOM      4  C   UNL     1       5.127   5.124  19.565  0.00  0.00    +0.000 C 
ATOM      5  C   UNL     1       3.773   4.558  20.046  0.00  0.00    +0.000 C 
ATOM      6  C   UNL     1       3.798   3.198  19.318  0.00  0.00    +0.000 C 
ATOM      7  O   UNL     1       2.633   2.391  19.325  0.00  0.00    +0.000 OA
ATOM      8  C   UNL     1       1.559   2.837  18.507  0.00  0.00    +0.000 C 
ATOM      9  C   UNL     1       1.977   3.145  17.075  0.00  0.00    +0.000 C 
ATOM     10  C   UNL     1       3.198   4.051  16.986  0.00  0.00    +0.000 C 
ATOM     11  C   UNL     1       4.315   3.574  17.921  0.00  0.00    +0.000 C 
ENDROOT
BRANCH   2  12
ATOM     12  C   UNL     1       6.524   4.796  15.989  0.00  0.00    +0.000 A 
ATOM     13  C   UNL     1       5.896   3.770  15.303  0.00  0.00    +0.000 A 
ATOM     14  C   UNL     1       6.129   3.641  13.948  0.00  0.00    +0.000 A 
ATOM     15  N   UNL     1       6.988   4.429  13.277  0.00  0.00    +0.000 NA
ATOM     16  N   UNL     1       7.674   5.381  13.954  0.00  0.00    +0.000 NA
ATOM     17  C   UNL     1       7.440   5.557  15.274  0.00  0.00    +0.000 A 
ENDBRANCH   2  12
BRANCH   5  18
ATOM     18  O   UNL     1       2.658   5.325  19.590  0.00  0.00    +0.000 OA
BRANCH  18  19
ATOM     19  C   UNL     1       2.183   6.327  20.475  0.00  0.00    +0.000 C 
BRANCH  19  20
ATOM     20  C   UNL     1       1.969   7.567  19.658  0.00  0.00    +0.000 A 
ATOM     21  C   UNL     1       1.307   8.687  20.171  0.00  0.00    +0.000 A 
ATOM     22  C   UNL     1       1.148   9.820  19.377  0.00  0.00    +0.000 A 
ATOM     23  C   UNL     1       1.659   9.800  18.090  0.00  0.00    +0.000 A 
ATOM     24  N   UNL     1       2.309   8.743  17.561  0.00  0.00    +0.000 NA
ATOM     25  C   UNL     1       2.453   7.659  18.358  0.00  0.00    +0.000 A 
ENDBRANCH  19  20
ENDBRANCH  18  19
ENDBRANCH   5  18
TORSDOF 4
ENDMDL
MODEL 8
REMARK VINA RESULT:      -6.6      2.054      3.544
REMARK  Name = 
REMARK  4 active torsions:
REMARK  status: ('A' for Active; 'I' for Inactive)
REMARK    1  A    between atoms: C_2  and  C_3
REMARK    2  A    between atoms: C_11  and  O_12
REMARK    3  A    between atoms: O_12  and  C_13
REMARK    4  A    between atoms: C_13  and  C_14
REMARK                            x       y       z     vdW  Elec       q    Type
REMARK                         _______ _______ _______ _____ _____    ______ ____
ROOT
ATOM      1  O   UNL     1       2.755   9.386  17.932  0.00  0.00    +0.000 OA
ATOM      2  C   UNL     1       2.143   8.540  18.587  0.00  0.00    +0.000 C 
ATOM      3  N   UNL     1       2.388   7.190  18.386  0.00  0.00    +0.000 N 
ATOM      4  C   UNL     1       3.424   6.796  17.417  0.00  0.00    +0.000 C 
ATOM      5  C   UNL     1       3.651   5.285  17.630  0.00  0.00    +0.000 C 
ATOM      6  C   UNL     1       2.217   4.867  18.013  0.00  0.00    +0.000 C 
ATOM      7  O   UNL     1       1.984   3.552  18.488  0.00  0.00    +0.000 OA
ATOM      8  C   UNL     1       2.444   3.273  19.804  0.00  0.00    +0.000 C 
ATOM      9  C   UNL     1       1.981   4.293  20.836  0.00  0.00    +0.000 C 
ATOM     10  C   UNL     1       2.242   5.734  20.416  0.00  0.00    +0.000 C 
ATOM     11  C   UNL     1       1.787   5.986  18.975  0.00  0.00    +0.000 C 
ENDROOT
BRANCH   2  12
ATOM     12  C   UNL     1       1.215   9.043  19.635  0.00  0.00    +0.000 A 
ATOM     13  C   UNL     1       1.258   8.741  20.987  0.00  0.00    +0.000 A 
ATOM     14  C   UNL     1       0.365   9.366  21.834  0.00  0.00    +0.000 A 
ATOM     15  N   UNL     1      -0.587  10.209  21.395  0.00  0.00    +0.000 NA
ATOM     16  N   UNL     1      -0.697  10.446  20.065  0.00  0.00    +0.000 NA
ATOM     17  C   UNL     1       0.187   9.878  19.215  0.00  0.00    +0.000 A 
ENDBRANCH   2  12
BRANCH   5  18
ATOM     18  O   UNL     1       4.538   5.005  18.714  0.00  0.00    +0.000 OA
BRANCH  18  19
ATOM     19  C   UNL     1       5.598   4.102  18.441  0.00  0.00    +0.000 C 
BRANCH  19  20
ATOM     20  C   UNL     1       6.073   4.395  17.048  0.00  0.00    +0.000 A 
ATOM     21  C   UNL     1       5.600   3.685  15.939  0.00  0.00    +0.000 A 
ATOM     22  C   UNL     1       6.060   4.006  14.665  0.00  0.00    +0.000 A 
ATOM     23  C   UNL     1       6.982   5.032  14.536  0.00  0.00    +0.000 A 
ATOM     24  N   UNL     1       7.458   5.744  15.579  0.00  0.00    +0.000 NA
ATOM     25  C   UNL     1       6.987   5.414  16.803  0.00  0.00    +0.000 A 
ENDBRANCH  19  20
ENDBRANCH  18  19
ENDBRANCH   5  18
TORSDOF 4
ENDMDL
MODEL 9
REMARK VINA RESULT:      -6.5      0.802      1.367
REMARK  Name = 
REMARK  4 active torsions:
REMARK  status: ('A' for Active; 'I' for Inactive)
REMARK    1  A    between atoms: C_2  and  C_3
REMARK    2  A    between atoms: C_11  and  O_12
REMARK    3  A    between atoms: O_12  and  C_13
REMARK    4  A    between atoms: C_13  and  C_14
REMARK                            x       y       z     vdW  Elec       q    Type
REMARK                         _______ _______ _______ _____ _____    ______ ____
ROOT
ATOM      1  O   UNL     1       1.519   5.079  18.117  0.00  0.00    +0.000 OA
ATOM      2  C   UNL     1       2.454   5.836  18.388  0.00  0.00    +0.000 C 
ATOM      3  N   UNL     1       3.752   5.352  18.434  0.00  0.00    +0.000 N 
ATOM      4  C   UNL     1       3.991   3.937  18.104  0.00  0.00    +0.000 C 
ATOM      5  C   UNL     1       5.521   3.786  17.967  0.00  0.00    +0.000 C 
ATOM      6  C   UNL     1       5.969   4.811  19.029  0.00  0.00    +0.000 C 
ATOM      7  O   UNL     1       7.342   5.150  19.124  0.00  0.00    +0.000 OA
ATOM      8  C   UNL     1       7.858   5.968  18.080  0.00  0.00    +0.000 C 
ATOM      9  C   UNL     1       7.024   7.217  17.824  0.00  0.00    +0.000 C 
ATOM     10  C   UNL     1       5.538   6.925  17.662  0.00  0.00    +0.000 C 
ATOM     11  C   UNL     1       5.028   5.998  18.770  0.00  0.00    +0.000 C 
ENDROOT
BRANCH   2  12
ATOM     12  C   UNL     1       2.123   7.274  18.573  0.00  0.00    +0.000 A 
ATOM     13  C   UNL     1       1.700   7.876  19.748  0.00  0.00    +0.000 A 
ATOM     14  C   UNL     1       1.519   9.245  19.761  0.00  0.00    +0.000 A 
ATOM     15  N   UNL     1       1.673  10.011  18.667  0.00  0.00    +0.000 NA
ATOM     16  N   UNL     1       2.002   9.424  17.491  0.00  0.00    +0.000 NA
ATOM     17  C   UNL     1       2.224   8.091  17.454  0.00  0.00    +0.000 A 
ENDBRANCH   2  12
BRANCH   5  18
ATOM     18  O   UNL     1       6.005   4.183  16.683  0.00  0.00    +0.000 OA
BRANCH  18  19
ATOM     19  C   UNL     1       5.216   3.797  15.569  0.00  0.00    +0.000 C 
BRANCH  19  20
ATOM     20  C   UNL     1       6.020   4.098  14.338  0.00  0.00    +0.000 A 
ATOM     21  C   UNL     1       7.068   5.023  14.346  0.00  0.00    +0.000 A 
ATOM     22  C   UNL     1       7.794   5.256  13.181  0.00  0.00    +0.000 A 
ATOM     23  C   UNL     1       7.449   4.553  12.039  0.00  0.00    +0.000 A 
ATOM     24  N   UNL     1       6.450   3.648  11.991  0.00  0.00    +0.000 NA
ATOM     25  C   UNL     1       5.767   3.439  13.140  0.00  0.00    +0.000 A 
ENDBRANCH  19  20
ENDBRANCH  18  19
ENDBRANCH   5  18
TORSDOF 4
ENDMDL
