MODEL 1
REMARK VINA RESULT:      -7.9      0.000      0.000
REMARK  Name = 
REMARK  5 active torsions:
REMARK  status: ('A' for Active; 'I' for Inactive)
REMARK    1  A    between atoms: C_2  and  O_3
REMARK    2  A    between atoms: C_2  and  C_4
REMARK    3  A    between atoms: C_7  and  C_8
REMARK    4  A    between atoms: N_10  and  C_11
REMARK    5  A    between atoms: C_15  and  N_16
REMARK                            x       y       z     vdW  Elec       q    Type
REMARK                         _______ _______ _______ _____ _____    ______ ____
ROOT
ATOM      1  C   UNL     1       3.171   6.776  18.287  0.00  0.00    +0.000 A 
ATOM      2  C   UNL     1       2.508   7.978  18.227  0.00  0.00    +0.000 A 
ATOM      3  N   UNL     1       1.820   8.062  19.416  0.00  0.00    +0.000 N 
ATOM      4  N   UNL     1       2.047   6.946  20.149  0.00  0.00    +0.000 NA
ATOM      5  N   UNL     1       2.860   6.154  19.464  0.00  0.00    +0.000 NA
ENDROOT
BRANCH   1   9
ATOM      6  C   UNL     1       5.805   5.098  15.380  0.00  0.00    +0.000 A 
ATOM      7  C   UNL     1       5.651   6.486  15.457  0.00  0.00    +0.000 A 
ATOM      8  C   UNL     1       4.784   7.044  16.401  0.00  0.00    +0.000 A 
ATOM      9  C   UNL     1       4.069   6.225  17.288  0.00  0.00    +0.000 A 
ATOM     10  C   UNL     1       4.249   4.836  17.216  0.00  0.00    +0.000 A 
ATOM     11  C   UNL     1       5.118   4.273  16.277  0.00  0.00    +0.000 A 
BRANCH   6  13
ATOM     12  O   UNL     1       7.717   5.146  13.971  0.00  0.00    +0.000 OA
ATOM     13  C   UNL     1       6.731   4.549  14.360  0.00  0.00    +0.000 C 
BRANCH  13  14
ATOM     14  O   UNL     1       6.342   3.352  13.871  0.00  0.00    +0.000 OA
ATOM     15  H   UNL     1       6.253   2.644  14.536  0.00  0.00    +0.000 HD
ENDBRANCH  13  14
ENDBRANCH   6  13
ENDBRANCH   1   9
BRANCH   3  16
ATOM     16  C   UNL     1       0.989   9.113  19.882  0.00  0.00    +0.000 A 
ATOM     17  C   UNL     1       0.549  10.102  18.989  0.00  0.00    +0.000 A 
ATOM     18  C   UNL     1      -0.274  11.140  19.434  0.00  0.00    +0.000 A 
ATOM     19  C   UNL     1      -0.656  11.209  20.774  0.00  0.00    +0.000 A 
ATOM     20  C   UNL     1      -0.212  10.227  21.666  0.00  0.00    +0.000 A 
ATOM     21  C   UNL     1       0.604   9.172  21.229  0.00  0.00    +0.000 A 
BRANCH  20  22
ATOM     22  N   UNL     1      -0.591  10.300  23.084  0.00  0.00    +0.000 N 
ATOM     23  O   UNL     1      -1.641  10.894  23.370  0.00  0.00    +0.000 OA
ATOM     24  O   UNL     1       0.164   9.765  23.908  0.00  0.00    +0.000 OA
ENDBRANCH  20  22
ENDBRANCH   3  16
TORSDOF 5
ENDMDL
MODEL 2
REMARK VINA RESULT:      -7.8      0.195      1.196
REMARK  Name = 
REMARK  5 active torsions:
REMARK  status: ('A' for Active; 'I' for Inactive)
REMARK    1  A    between atoms: C_2  and  O_3
REMARK    2  A    between atoms: C_2  and  C_4
REMARK    3  A    between atoms: C_7  and  C_8
REMARK    4  A    between atoms: N_10  and  C_11
REMARK    5  A    between atoms: C_15  and  N_16
REMARK                            x       y       z     vdW  Elec       q    Type
REMARK                         _______ _______ _______ _____ _____    ______ ____
ROOT
ATOM      1  C   UNL     1       3.208   6.738  18.356  0.00  0.00    +0.000 A 
ATOM      2  C   UNL     1       2.522   7.926  18.264  0.00  0.00    +0.000 A 
ATOM      3  N   UNL     1       1.829   8.027  19.448  0.00  0.00    +0.000 N 
ATOM      4  N   UNL     1       2.074   6.935  20.210  0.00  0.00    +0.000 NA
ATOM      5  N   UNL     1       2.904   6.141  19.548  0.00  0.00    +0.000 NA
ENDROOT
BRANCH   1   9
ATOM      6  C   UNL     1       5.881   5.150  15.435  0.00  0.00    +0.000 A 
ATOM      7  C   UNL     1       5.425   4.333  16.475  0.00  0.00    +0.000 A 
ATOM      8  C   UNL     1       4.555   4.847  17.441  0.00  0.00    +0.000 A 
ATOM      9  C   UNL     1       4.120   6.179  17.375  0.00  0.00    +0.000 A 
ATOM     10  C   UNL     1       4.566   6.982  16.315  0.00  0.00    +0.000 A 
ATOM     11  C   UNL     1       5.433   6.472  15.344  0.00  0.00    +0.000 A 
BRANCH   6  13
ATOM     12  O   UNL     1       7.830   5.116  14.076  0.00  0.00    +0.000 OA
ATOM     13  C   UNL     1       6.806   4.564  14.436  0.00  0.00    +0.000 C 
BRANCH  13  14
ATOM     14  O   UNL     1       6.375   3.389  13.928  0.00  0.00    +0.000 OA
ATOM     15  H   UNL     1       6.632   3.220  13.003  0.00  0.00    +0.000 HD
ENDBRANCH  13  14
ENDBRANCH   6  13
ENDBRANCH   1   9
BRANCH   3  16
ATOM     16  C   UNL     1       0.977   9.073  19.883  0.00  0.00    +0.000 A 
ATOM     17  C   UNL     1       0.432   9.965  18.947  0.00  0.00    +0.000 A 
ATOM     18  C   UNL     1      -0.414  10.998  19.363  0.00  0.00    +0.000 A 
ATOM     19  C   UNL     1      -0.713  11.159  20.716  0.00  0.00    +0.000 A 
ATOM     20  C   UNL     1      -0.165  10.274  21.651  0.00  0.00    +0.000 A 
ATOM     21  C   UNL     1       0.674   9.226  21.245  0.00  0.00    +0.000 A 
BRANCH  20  22
ATOM     22  N   UNL     1      -0.457  10.446  23.080  0.00  0.00    +0.000 N 
ATOM     23  O   UNL     1       0.187   9.761  23.888  0.00  0.00    +0.000 OA
ATOM     24  O   UNL     1      -1.332  11.267  23.392  0.00  0.00    +0.000 OA
ENDBRANCH  20  22
ENDBRANCH   3  16
TORSDOF 5
ENDMDL
MODEL 3
REMARK VINA RESULT:      -7.8      2.140      9.080
REMARK  Name = 
REMARK  5 active torsions:
REMARK  status: ('A' for Active; 'I' for Inactive)
REMARK    1  A    between atoms: C_2  and  O_3
REMARK    2  A    between atoms: C_2  and  C_4
REMARK    3  A    between atoms: C_7  and  C_8
REMARK    4  A    between atoms: N_10  and  C_11
REMARK    5  A    between atoms: C_15  and  N_16
REMARK                            x       y       z     vdW  Elec       q    Type
REMARK                         _______ _______ _______ _____ _____    ______ ____
ROOT
ATOM      1  C   UNL     1       1.536   8.926  19.195  0.00  0.00    +0.000 A 
ATOM      2  C   UNL     1       2.105   7.686  19.361  0.00  0.00    +0.000 A 
ATOM      3  N   UNL     1       2.768   7.440  18.181  0.00  0.00    +0.000 N 
ATOM      4  N   UNL     1       2.587   8.482  17.335  0.00  0.00    +0.000 NA
ATOM      5  N   UNL     1       1.829   9.386  17.942  0.00  0.00    +0.000 NA
ENDROOT
BRANCH   1   9
ATOM      6  C   UNL     1      -0.767  11.041  22.098  0.00  0.00    +0.000 A 
ATOM      7  C   UNL     1      -0.614  11.572  20.813  0.00  0.00    +0.000 A 
ATOM      8  C   UNL     1       0.145  10.890  19.858  0.00  0.00    +0.000 A 
ATOM      9  C   UNL     1       0.752   9.663  20.169  0.00  0.00    +0.000 A 
ATOM     10  C   UNL     1       0.572   9.130  21.454  0.00  0.00    +0.000 A 
ATOM     11  C   UNL     1      -0.190   9.806  22.411  0.00  0.00    +0.000 A 
BRANCH   6  13
ATOM     12  O   UNL     1      -2.661  11.420  23.482  0.00  0.00    +0.000 OA
ATOM     13  C   UNL     1      -1.577  11.801  23.081  0.00  0.00    +0.000 C 
BRANCH  13  14
ATOM     14  O   UNL     1      -1.019  12.977  23.441  0.00  0.00    +0.000 OA
ATOM     15  H   UNL     1      -1.055  13.176  24.394  0.00  0.00    +0.000 HD
ENDBRANCH  13  14
ENDBRANCH   6  13
ENDBRANCH   1   9
BRANCH   3  16
ATOM     16  C   UNL     1       3.544   6.307  17.826  0.00  0.00    +0.000 A 
ATOM     17  C   UNL     1       2.945   5.039  17.780  0.00  0.00    +0.000 A 
ATOM     18  C   UNL     1       3.698   3.915  17.426  0.00  0.00    +0.000 A 
ATOM     19  C   UNL     1       5.055   4.043  17.129  0.00  0.00    +0.000 A 
ATOM     20  C   UNL     1       5.654   5.307  17.181  0.00  0.00    +0.000 A 
ATOM     21  C   UNL     1       4.906   6.444  17.522  0.00  0.00    +0.000 A 
BRANCH  20  22
ATOM     22  N   UNL     1       7.086   5.450  16.890  0.00  0.00    +0.000 N 
ATOM     23  O   UNL     1       7.462   6.498  16.345  0.00  0.00    +0.000 OA
ATOM     24  O   UNL     1       7.833   4.514  17.207  0.00  0.00    +0.000 OA
ENDBRANCH  20  22
ENDBRANCH   3  16
TORSDOF 5
ENDMDL
MODEL 4
REMARK VINA RESULT:      -7.7      2.110      9.110
REMARK  Name = 
REMARK  5 active torsions:
REMARK  status: ('A' for Active; 'I' for Inactive)
REMARK    1  A    between atoms: C_2  and  O_3
REMARK    2  A    between atoms: C_2  and  C_4
REMARK    3  A    between atoms: C_7  and  C_8
REMARK    4  A    between atoms: N_10  and  C_11
REMARK    5  A    between atoms: C_15  and  N_16
REMARK                            x       y       z     vdW  Elec       q    Type
REMARK                         _______ _______ _______ _____ _____    ______ ____
ROOT
ATOM      1  C   UNL     1       1.616   8.964  19.161  0.00  0.00    +0.000 A 
ATOM      2  C   UNL     1       2.195   7.731  19.341  0.00  0.00    +0.000 A 
ATOM      3  N   UNL     1       2.817   7.455  18.145  0.00  0.00    +0.000 N 
ATOM      4  N   UNL     1       2.602   8.472  17.278  0.00  0.00    +0.000 NA
ATOM      5  N   UNL     1       1.863   9.390  17.886  0.00  0.00    +0.000 NA
ENDROOT
BRANCH   1   9
ATOM      6  C   UNL     1      -0.578  11.258  22.011  0.00  0.00    +0.000 A 
ATOM      7  C   UNL     1      -0.359   9.896  22.240  0.00  0.00    +0.000 A 
ATOM      8  C   UNL     1       0.353   9.135  21.308  0.00  0.00    +0.000 A 
ATOM      9  C   UNL     1       0.864   9.725  20.141  0.00  0.00    +0.000 A 
ATOM     10  C   UNL     1       0.655  11.097  19.935  0.00  0.00    +0.000 A 
ATOM     11  C   UNL     1      -0.051  11.864  20.866  0.00  0.00    +0.000 A 
BRANCH   6  13
ATOM     12  O   UNL     1      -0.967  13.096  23.467  0.00  0.00    +0.000 OA
ATOM     13  C   UNL     1      -1.342  12.026  23.025  0.00  0.00    +0.000 C 
BRANCH  13  14
ATOM     14  O   UNL     1      -2.460  11.396  23.444  0.00  0.00    +0.000 OA
ATOM     15  H   UNL     1      -2.672  10.571  22.970  0.00  0.00    +0.000 HD
ENDBRANCH  13  14
ENDBRANCH   6  13
ENDBRANCH   1   9
BRANCH   3  16
ATOM     16  C   UNL     1       3.584   6.315  17.794  0.00  0.00    +0.000 A 
ATOM     17  C   UNL     1       2.991   5.043  17.809  0.00  0.00    +0.000 A 
ATOM     18  C   UNL     1       3.736   3.912  17.460  0.00  0.00    +0.000 A 
ATOM     19  C   UNL     1       5.079   4.037  17.106  0.00  0.00    +0.000 A 
ATOM     20  C   UNL     1       5.673   5.304  17.097  0.00  0.00    +0.000 A 
ATOM     21  C   UNL     1       4.933   6.448  17.432  0.00  0.00    +0.000 A 
BRANCH  20  22
ATOM     22  N   UNL     1       7.092   5.445  16.745  0.00  0.00    +0.000 N 
ATOM     23  O   UNL     1       7.495   6.569  16.410  0.00  0.00    +0.000 OA
ATOM     24  O   UNL     1       7.801   4.430  16.803  0.00  0.00    +0.000 OA
ENDBRANCH  20  22
ENDBRANCH   3  16
TORSDOF 5
ENDMDL
MODEL 5
REMARK VINA RESULT:      -7.6      1.598      2.051
REMARK  Name = 
REMARK  5 active torsions:
REMARK  status: ('A' for Active; 'I' for Inactive)
REMARK    1  A    between atoms: C_2  and  O_3
REMARK    2  A    between atoms: C_2  and  C_4
REMARK    3  A    between atoms: C_7  and  C_8
REMARK    4  A    between atoms: N_10  and  C_11
REMARK    5  A    between atoms: C_15  and  N_16
REMARK                            x       y       z     vdW  Elec       q    Type
REMARK                         _______ _______ _______ _____ _____    ______ ____
ROOT
ATOM      1  C   UNL     1       3.059   6.430  18.704  0.00  0.00    +0.000 A 
ATOM      2  C   UNL     1       2.528   7.689  18.854  0.00  0.00    +0.000 A 
ATOM      3  N   UNL     1       1.776   7.621  20.004  0.00  0.00    +0.000 N 
ATOM      4  N   UNL     1       1.837   6.367  20.511  0.00  0.00    +0.000 NA
ATOM      5  N   UNL     1       2.608   5.634  19.720  0.00  0.00    +0.000 NA
ENDROOT
BRANCH   1   9
ATOM      6  C   UNL     1       5.699   5.052  15.650  0.00  0.00    +0.000 A 
ATOM      7  C   UNL     1       5.594   6.423  15.909  0.00  0.00    +0.000 A 
ATOM      8  C   UNL     1       4.727   6.884  16.904  0.00  0.00    +0.000 A 
ATOM      9  C   UNL     1       3.960   5.983  17.659  0.00  0.00    +0.000 A 
ATOM     10  C   UNL     1       4.091   4.610  17.404  0.00  0.00    +0.000 A 
ATOM     11  C   UNL     1       4.961   4.143  16.414  0.00  0.00    +0.000 A 
BRANCH   6  13
ATOM     12  O   UNL     1       7.576   5.276  14.209  0.00  0.00    +0.000 OA
ATOM     13  C   UNL     1       6.629   4.608  14.583  0.00  0.00    +0.000 C 
BRANCH  13  14
ATOM     14  O   UNL     1       6.290   3.422  14.035  0.00  0.00    +0.000 OA
ATOM     15  H   UNL     1       7.034   2.813  13.877  0.00  0.00    +0.000 HD
ENDBRANCH  13  14
ENDBRANCH   6  13
ENDBRANCH   1   9
BRANCH   3  16
ATOM     16  C   UNL     1       1.028   8.651  20.630  0.00  0.00    +0.000 A 
ATOM     17  C   UNL     1       0.923   8.686  22.029  0.00  0.00    +0.000 A 
ATOM     18  C   UNL     1       0.193   9.698  22.658  0.00  0.00    +0.000 A 
ATOM     19  C   UNL     1      -0.450  10.676  21.899  0.00  0.00    +0.000 A 
ATOM     20  C   UNL     1      -0.351  10.638  20.504  0.00  0.00    +0.000 A 
ATOM     21  C   UNL     1       0.390   9.635  19.861  0.00  0.00    +0.000 A 
BRANCH  20  22
ATOM     22  N   UNL     1      -1.041  11.651  19.693  0.00  0.00    +0.000 N 
ATOM     23  O   UNL     1      -0.626  11.850  18.542  0.00  0.00    +0.000 OA
ATOM     24  O   UNL     1      -1.996  12.247  20.211  0.00  0.00    +0.000 OA
ENDBRANCH  20  22
ENDBRANCH   3  16
TORSDOF 5
ENDMDL
MODEL 6
REMARK VINA RESULT:      -7.6      1.710      2.371
REMARK  Name = 
REMARK  5 active torsions:
REMARK  status: ('A' for Active; 'I' for Inactive)
REMARK    1  A    between atoms: C_2  and  O_3
REMARK    2  A    between atoms: C_2  and  C_4
REMARK    3  A    between atoms: C_7  and  C_8
REMARK    4  A    between atoms: N_10  and  C_11
REMARK    5  A    between atoms: C_15  and  N_16
REMARK                            x       y       z     vdW  Elec       q    Type
REMARK                         _______ _______ _______ _____ _____    ______ ____
ROOT
ATOM      1  C   UNL     1       2.881   6.494  18.874  0.00  0.00    +0.000 A 
ATOM      2  C   UNL     1       2.340   7.751  18.999  0.00  0.00    +0.000 A 
ATOM      3  N   UNL     1       1.624   7.713  20.173  0.00  0.00    +0.000 N 
ATOM      4  N   UNL     1       1.714   6.477  20.718  0.00  0.00    +0.000 NA
ATOM      5  N   UNL     1       2.470   5.726  19.928  0.00  0.00    +0.000 NA
ENDROOT
BRANCH   1   9
ATOM      6  C   UNL     1       5.459   5.168  15.745  0.00  0.00    +0.000 A 
ATOM      7  C   UNL     1       4.726   4.233  16.482  0.00  0.00    +0.000 A 
ATOM      8  C   UNL     1       3.884   4.657  17.514  0.00  0.00    +0.000 A 
ATOM      9  C   UNL     1       3.755   6.022  17.816  0.00  0.00    +0.000 A 
ATOM     10  C   UNL     1       4.479   6.951  17.055  0.00  0.00    +0.000 A 
ATOM     11  C   UNL     1       5.319   6.533  16.019  0.00  0.00    +0.000 A 
BRANCH   6  13
ATOM     12  O   UNL     1       6.030   3.765  13.913  0.00  0.00    +0.000 OA
ATOM     13  C   UNL     1       6.343   4.672  14.662  0.00  0.00    +0.000 C 
BRANCH  13  14
ATOM     14  O   UNL     1       7.545   5.288  14.626  0.00  0.00    +0.000 OA
ATOM     15  H   UNL     1       7.513   6.259  14.707  0.00  0.00    +0.000 HD
ENDBRANCH  13  14
ENDBRANCH   6  13
ENDBRANCH   1   9
BRANCH   3  16
ATOM     16  C   UNL     1       0.883   8.755  20.787  0.00  0.00    +0.000 A 
ATOM     17  C   UNL     1       0.794   8.816  22.187  0.00  0.00    +0.000 A 
ATOM     18  C   UNL     1       0.072   9.842  22.804  0.00  0.00    +0.000 A 
ATOM     19  C   UNL     1      -0.579  10.806  22.034  0.00  0.00    +0.000 A 
ATOM     20  C   UNL     1      -0.496  10.741  20.639  0.00  0.00    +0.000 A 
ATOM     21  C   UNL     1       0.237   9.725  20.007  0.00  0.00    +0.000 A 
BRANCH  20  22
ATOM     22  N   UNL     1      -1.194  11.739  19.817  0.00  0.00    +0.000 N 
ATOM     23  O   UNL     1      -2.040  11.331  19.008  0.00  0.00    +0.000 OA
ATOM     24  O   UNL     1      -0.893  12.929  19.982  0.00  0.00    +0.000 OA
ENDBRANCH  20  22
ENDBRANCH   3  16
TORSDOF 5
ENDMDL
MODEL 7
REMARK VINA RESULT:      -7.5      1.634      2.300
REMARK  Name = 
REMARK  5 active torsions:
REMARK  status: ('A' for Active; 'I' for Inactive)
REMARK    1  A    between atoms: C_2  and  O_3
REMARK    2  A    between atoms: C_2  and  C_4
REMARK    3  A    between atoms: C_7  and  C_8
REMARK    4  A    between atoms: N_10  and  C_11
REMARK    5  A    between atoms: C_15  and  N_16
REMARK                            x       y       z     vdW  Elec       q    Type
REMARK                         _______ _______ _______ _____ _____    ______ ____
ROOT
ATOM      1  C   UNL     1       2.886   6.378  18.852  0.00  0.00    +0.000 A 
ATOM      2  C   UNL     1       2.423   7.655  19.056  0.00  0.00    +0.000 A 
ATOM      3  N   UNL     1       1.665   7.579  20.202  0.00  0.00    +0.000 N 
ATOM      4  N   UNL     1       1.657   6.303  20.655  0.00  0.00    +0.000 NA
ATOM      5  N   UNL     1       2.390   5.564  19.833  0.00  0.00    +0.000 NA
ENDROOT
BRANCH   1   9
ATOM      6  C   UNL     1       5.477   5.116  15.708  0.00  0.00    +0.000 A 
ATOM      7  C   UNL     1       4.691   4.173  16.378  0.00  0.00    +0.000 A 
ATOM      8  C   UNL     1       3.844   4.577  17.415  0.00  0.00    +0.000 A 
ATOM      9  C   UNL     1       3.763   5.927  17.788  0.00  0.00    +0.000 A 
ATOM     10  C   UNL     1       4.540   6.865  17.093  0.00  0.00    +0.000 A 
ATOM     11  C   UNL     1       5.385   6.468  16.053  0.00  0.00    +0.000 A 
BRANCH   6  13
ATOM     12  O   UNL     1       6.087   3.700  13.899  0.00  0.00    +0.000 OA
ATOM     13  C   UNL     1       6.365   4.643  14.617  0.00  0.00    +0.000 C 
BRANCH  13  14
ATOM     14  O   UNL     1       7.528   5.324  14.538  0.00  0.00    +0.000 OA
ATOM     15  H   UNL     1       8.064   5.134  13.746  0.00  0.00    +0.000 HD
ENDBRANCH  13  14
ENDBRANCH   6  13
ENDBRANCH   1   9
BRANCH   3  16
ATOM     16  C   UNL     1       0.973   8.620  20.871  0.00  0.00    +0.000 A 
ATOM     17  C   UNL     1       0.082   8.311  21.910  0.00  0.00    +0.000 A 
ATOM     18  C   UNL     1      -0.602   9.328  22.581  0.00  0.00    +0.000 A 
ATOM     19  C   UNL     1      -0.416  10.661  22.214  0.00  0.00    +0.000 A 
ATOM     20  C   UNL     1       0.468  10.970  21.174  0.00  0.00    +0.000 A 
ATOM     21  C   UNL     1       1.171   9.959  20.502  0.00  0.00    +0.000 A 
BRANCH  20  22
ATOM     22  N   UNL     1       0.657  12.369  20.766  0.00  0.00    +0.000 N 
ATOM     23  O   UNL     1       0.453  12.656  19.576  0.00  0.00    +0.000 OA
ATOM     24  O   UNL     1       1.010  13.177  21.635  0.00  0.00    +0.000 OA
ENDBRANCH  20  22
ENDBRANCH   3  16
TORSDOF 5
ENDMDL
MODEL 8
REMARK VINA RESULT:      -7.4      1.980      9.230
REMARK  Name = 
REMARK  5 active torsions:
REMARK  status: ('A' for Active; 'I' for Inactive)
REMARK    1  A    between atoms: C_2  and  O_3
REMARK    2  A    between atoms: C_2  and  C_4
REMARK    3  A    between atoms: C_7  and  C_8
REMARK    4  A    between atoms: N_10  and  C_11
REMARK    5  A    between atoms: C_15  and  N_16
REMARK                            x       y       z     vdW  Elec       q    Type
REMARK                         _______ _______ _______ _____ _____    ______ ____
ROOT
ATOM      1  C   UNL     1       1.426   8.945  19.284  0.00  0.00    +0.000 A 
ATOM      2  C   UNL     1       1.932   7.677  19.435  0.00  0.00    +0.000 A 
ATOM      3  N   UNL     1       2.626   7.431  18.273  0.00  0.00    +0.000 N 
ATOM      4  N   UNL     1       2.521   8.501  17.450  0.00  0.00    +0.000 NA
ATOM      5  N   UNL     1       1.784   9.423  18.054  0.00  0.00    +0.000 NA
ENDROOT
BRANCH   1   9
ATOM      6  C   UNL     1      -0.880  11.193  22.081  0.00  0.00    +0.000 A 
ATOM      7  C   UNL     1      -0.302   9.982  22.474  0.00  0.00    +0.000 A 
ATOM      8  C   UNL     1       0.450   9.235  21.562  0.00  0.00    +0.000 A 
ATOM      9  C   UNL     1       0.642   9.692  20.250  0.00  0.00    +0.000 A 
ATOM     10  C   UNL     1       0.076  10.920  19.875  0.00  0.00    +0.000 A 
ATOM     11  C   UNL     1      -0.672  11.673  20.784  0.00  0.00    +0.000 A 
BRANCH   6  13
ATOM     12  O   UNL     1      -2.787  11.613  23.435  0.00  0.00    +0.000 OA
ATOM     13  C   UNL     1      -1.673  11.950  23.081  0.00  0.00    +0.000 C 
BRANCH  13  14
ATOM     14  O   UNL     1      -1.060  13.073  23.513  0.00  0.00    +0.000 OA
ATOM     15  H   UNL     1      -0.107  12.978  23.695  0.00  0.00    +0.000 HD
ENDBRANCH  13  14
ENDBRANCH   6  13
ENDBRANCH   1   9
BRANCH   3  16
ATOM     16  C   UNL     1       3.361   6.273  17.913  0.00  0.00    +0.000 A 
ATOM     17  C   UNL     1       2.936   5.011  18.356  0.00  0.00    +0.000 A 
ATOM     18  C   UNL     1       3.650   3.862  18.005  0.00  0.00    +0.000 A 
ATOM     19  C   UNL     1       4.800   3.960  17.220  0.00  0.00    +0.000 A 
ATOM     20  C   UNL     1       5.227   5.219  16.784  0.00  0.00    +0.000 A 
ATOM     21  C   UNL     1       4.512   6.379  17.119  0.00  0.00    +0.000 A 
BRANCH  20  22
ATOM     22  N   UNL     1       6.447   5.337  15.974  0.00  0.00    +0.000 N 
ATOM     23  O   UNL     1       7.493   4.852  16.431  0.00  0.00    +0.000 OA
ATOM     24  O   UNL     1       6.357   5.916  14.882  0.00  0.00    +0.000 OA
ENDBRANCH  20  22
ENDBRANCH   3  16
TORSDOF 5
ENDMDL
MODEL 9
REMARK VINA RESULT:      -7.4      1.912      8.967
REMARK  Name = 
REMARK  5 active torsions:
REMARK  status: ('A' for Active; 'I' for Inactive)
REMARK    1  A    between atoms: C_2  and  O_3
REMARK    2  A    between atoms: C_2  and  C_4
REMARK    3  A    between atoms: C_7  and  C_8
REMARK    4  A    between atoms: N_10  and  C_11
REMARK    5  A    between atoms: C_15  and  N_16
REMARK                            x       y       z     vdW  Elec       q    Type
REMARK                         _______ _______ _______ _____ _____    ______ ____
ROOT
ATOM      1  C   UNL     1       1.466   7.623  20.559  0.00  0.00    +0.000 A 
ATOM      2  C   UNL     1       2.283   7.597  19.454  0.00  0.00    +0.000 A 
ATOM      3  N   UNL     1       2.657   6.280  19.322  0.00  0.00    +0.000 N 
ATOM      4  N   UNL     1       2.104   5.550  20.320  0.00  0.00    +0.000 NA
ATOM      5  N   UNL     1       1.385   6.363  21.083  0.00  0.00    +0.000 NA
ENDROOT
BRANCH   1   9
ATOM      6  C   UNL     1      -0.538  11.051  22.120  0.00  0.00    +0.000 A 
ATOM      7  C   UNL     1      -0.378   9.917  22.922  0.00  0.00    +0.000 A 
ATOM      8  C   UNL     1       0.271   8.786  22.417  0.00  0.00    +0.000 A 
ATOM      9  C   UNL     1       0.778   8.777  21.108  0.00  0.00    +0.000 A 
ATOM     10  C   UNL     1       0.631   9.929  20.321  0.00  0.00    +0.000 A 
ATOM     11  C   UNL     1      -0.013  11.064  20.823  0.00  0.00    +0.000 A 
BRANCH   6  13
ATOM     12  O   UNL     1      -2.448  12.348  22.684  0.00  0.00    +0.000 OA
ATOM     13  C   UNL     1      -1.237  12.226  22.695  0.00  0.00    +0.000 C 
BRANCH  13  14
ATOM     14  O   UNL     1      -0.397  13.164  23.181  0.00  0.00    +0.000 OA
ATOM     15  H   UNL     1      -0.236  13.117  24.142  0.00  0.00    +0.000 HD
ENDBRANCH  13  14
ENDBRANCH   6  13
ENDBRANCH   1   9
BRANCH   3  16
ATOM     16  C   UNL     1       3.483   5.694  18.329  0.00  0.00    +0.000 A 
ATOM     17  C   UNL     1       3.117   4.468  17.751  0.00  0.00    +0.000 A 
ATOM     18  C   UNL     1       3.920   3.883  16.768  0.00  0.00    +0.000 A 
ATOM     19  C   UNL     1       5.100   4.506  16.362  0.00  0.00    +0.000 A 
ATOM     20  C   UNL     1       5.469   5.724  16.943  0.00  0.00    +0.000 A 
ATOM     21  C   UNL     1       4.665   6.329  17.921  0.00  0.00    +0.000 A 
BRANCH  20  22
ATOM     22  N   UNL     1       6.720   6.380  16.537  0.00  0.00    +0.000 N 
ATOM     23  O   UNL     1       6.952   7.511  16.989  0.00  0.00    +0.000 OA
ATOM     24  O   UNL     1       7.468   5.761  15.767  0.00  0.00    +0.000 OA
ENDBRANCH  20  22
ENDBRANCH   3  16
TORSDOF 5
ENDMDL
