MODEL 1
REMARK VINA RESULT:      -7.2      0.000      0.000
REMARK  Name = 
REMARK  5 active torsions:
REMARK  status: ('A' for Active; 'I' for Inactive)
REMARK    1  A    between atoms: C_1  and  C_2
REMARK    2  A    between atoms: C_2  and  C_3
REMARK    3  A    between atoms: C_2  and  C_11
REMARK    4  A    between atoms: C_3  and  C_5
REMARK    5  A    between atoms: C_11  and  C_13
REMARK                            x       y       z     vdW  Elec       q    Type
REMARK                         _______ _______ _______ _____ _____    ______ ____
ROOT
ATOM      1  C   UNL     1       6.659   5.481  18.947  0.00  0.00    +0.000 C 
ATOM      2  C   UNL     1       6.044   5.077  17.604  0.00  0.00    +0.000 C 
ENDROOT
BRANCH   2   3
ATOM      3  C   UNL     1       4.578   5.467  17.619  0.00  0.00    +0.000 C 
ATOM      4  O   UNL     1       4.212   6.636  17.491  0.00  0.00    +0.000 OA
BRANCH   3   5
ATOM      5  C   UNL     1       3.541   4.421  17.883  0.00  0.00    +0.000 A 
ATOM      6  C   UNL     1       2.336   4.811  18.485  0.00  0.00    +0.000 A 
ATOM      7  C   UNL     1       1.349   3.864  18.773  0.00  0.00    +0.000 A 
ATOM      8  C   UNL     1       1.553   2.525  18.450  0.00  0.00    +0.000 A 
ATOM      9  C   UNL     1       2.737   2.132  17.827  0.00  0.00    +0.000 A 
ATOM     10  C   UNL     1       3.729   3.075  17.544  0.00  0.00    +0.000 A 
ENDBRANCH   3   5
ENDBRANCH   2   3
BRANCH   2  11
ATOM     11  C   UNL     1       6.825   5.685  16.444  0.00  0.00    +0.000 C 
ATOM     12  O   UNL     1       7.607   6.622  16.622  0.00  0.00    +0.000 OA
BRANCH  11  13
ATOM     13  C   UNL     1       6.754   5.039  15.142  0.00  0.00    +0.000 A 
ATOM     14  C   UNL     1       5.969   4.015  14.638  0.00  0.00    +0.000 A 
ATOM     15  C   UNL     1       6.335   3.809  13.283  0.00  0.00    +0.000 A 
ATOM     16  C   UNL     1       7.346   4.693  12.992  0.00  0.00    +0.000 A 
ATOM     17  N   UNL     1       7.586   5.436  14.114  0.00  0.00    +0.000 N 
ATOM     18  H   UNL     1       8.271   6.177  14.206  0.00  0.00    +0.000 HD
ENDBRANCH  11  13
ENDBRANCH   2  11
TORSDOF 4
ENDMDL
MODEL 2
REMARK VINA RESULT:      -7.2      1.218      1.488
REMARK  Name = 
REMARK  5 active torsions:
REMARK  status: ('A' for Active; 'I' for Inactive)
REMARK    1  A    between atoms: C_1  and  C_2
REMARK    2  A    between atoms: C_2  and  C_3
REMARK    3  A    between atoms: C_2  and  C_11
REMARK    4  A    between atoms: C_3  and  C_5
REMARK    5  A    between atoms: C_11  and  C_13
REMARK                            x       y       z     vdW  Elec       q    Type
REMARK                         _______ _______ _______ _____ _____    ______ ____
ROOT
ATOM      1  C   UNL     1       6.694   7.229  17.363  0.00  0.00    +0.000 C 
ATOM      2  C   UNL     1       6.398   5.775  17.741  0.00  0.00    +0.000 C 
ENDROOT
BRANCH   2   3
ATOM      3  C   UNL     1       4.913   5.529  17.549  0.00  0.00    +0.000 C 
ATOM      4  O   UNL     1       4.167   6.382  17.068  0.00  0.00    +0.000 OA
BRANCH   3   5
ATOM      5  C   UNL     1       4.311   4.247  18.033  0.00  0.00    +0.000 A 
ATOM      6  C   UNL     1       3.290   3.659  17.273  0.00  0.00    +0.000 A 
ATOM      7  C   UNL     1       2.683   2.475  17.699  0.00  0.00    +0.000 A 
ATOM      8  C   UNL     1       3.099   1.863  18.880  0.00  0.00    +0.000 A 
ATOM      9  C   UNL     1       4.132   2.426  19.627  0.00  0.00    +0.000 A 
ATOM     10  C   UNL     1       4.738   3.614  19.208  0.00  0.00    +0.000 A 
ENDBRANCH   3   5
ENDBRANCH   2   3
BRANCH   2  11
ATOM     11  C   UNL     1       7.283   4.817  16.951  0.00  0.00    +0.000 C 
ATOM     12  O   UNL     1       8.161   4.154  17.506  0.00  0.00    +0.000 OA
BRANCH  11  13
ATOM     13  C   UNL     1       6.971   4.578  15.549  0.00  0.00    +0.000 A 
ATOM     14  C   UNL     1       6.104   3.707  14.911  0.00  0.00    +0.000 A 
ATOM     15  C   UNL     1       6.214   3.926  13.514  0.00  0.00    +0.000 A 
ATOM     16  C   UNL     1       7.156   4.907  13.325  0.00  0.00    +0.000 A 
ATOM     17  N   UNL     1       7.601   5.301  14.556  0.00  0.00    +0.000 N 
ATOM     18  H   UNL     1       8.293   6.017  14.742  0.00  0.00    +0.000 HD
ENDBRANCH  11  13
ENDBRANCH   2  11
TORSDOF 4
ENDMDL
MODEL 3
REMARK VINA RESULT:      -7.1      3.155      6.176
REMARK  Name = 
REMARK  5 active torsions:
REMARK  status: ('A' for Active; 'I' for Inactive)
REMARK    1  A    between atoms: C_1  and  C_2
REMARK    2  A    between atoms: C_2  and  C_3
REMARK    3  A    between atoms: C_2  and  C_11
REMARK    4  A    between atoms: C_3  and  C_5
REMARK    5  A    between atoms: C_11  and  C_13
REMARK                            x       y       z     vdW  Elec       q    Type
REMARK                         _______ _______ _______ _____ _____    ______ ____
ROOT
ATOM      1  C   UNL     1       3.210   6.402  19.047  0.00  0.00    +0.000 C 
ATOM      2  C   UNL     1       2.986   5.468  17.853  0.00  0.00    +0.000 C 
ENDROOT
BRANCH   2   3
ATOM      3  C   UNL     1       4.321   4.855  17.476  0.00  0.00    +0.000 C 
ATOM      4  O   UNL     1       4.409   3.721  17.005  0.00  0.00    +0.000 OA
BRANCH   3   5
ATOM      5  C   UNL     1       5.583   5.608  17.760  0.00  0.00    +0.000 A 
ATOM      6  C   UNL     1       6.413   5.154  18.795  0.00  0.00    +0.000 A 
ATOM      7  C   UNL     1       7.589   5.840  19.112  0.00  0.00    +0.000 A 
ATOM      8  C   UNL     1       7.950   6.975  18.390  0.00  0.00    +0.000 A 
ATOM      9  C   UNL     1       7.145   7.417  17.342  0.00  0.00    +0.000 A 
ATOM     10  C   UNL     1       5.964   6.738  17.026  0.00  0.00    +0.000 A 
ENDBRANCH   3   5
ENDBRANCH   2   3
BRANCH   2  11
ATOM     11  C   UNL     1       1.907   4.437  18.166  0.00  0.00    +0.000 C 
ATOM     12  O   UNL     1       1.123   4.049  17.297  0.00  0.00    +0.000 OA
BRANCH  11  13
ATOM     13  C   UNL     1       1.915   3.795  19.472  0.00  0.00    +0.000 A 
ATOM     14  C   UNL     1       1.001   3.757  20.511  0.00  0.00    +0.000 A 
ATOM     15  C   UNL     1       1.547   2.957  21.547  0.00  0.00    +0.000 A 
ATOM     16  C   UNL     1       2.788   2.540  21.132  0.00  0.00    +0.000 A 
ATOM     17  N   UNL     1       2.999   3.041  19.878  0.00  0.00    +0.000 N 
ATOM     18  H   UNL     1       3.822   2.897  19.306  0.00  0.00    +0.000 HD
ENDBRANCH  11  13
ENDBRANCH   2  11
TORSDOF 4
ENDMDL
MODEL 4
REMARK VINA RESULT:      -7.1      0.784      1.409
REMARK  Name = 
REMARK  5 active torsions:
REMARK  status: ('A' for Active; 'I' for Inactive)
REMARK    1  A    between atoms: C_1  and  C_2
REMARK    2  A    between atoms: C_2  and  C_3
REMARK    3  A    between atoms: C_2  and  C_11
REMARK    4  A    between atoms: C_3  and  C_5
REMARK    5  A    between atoms: C_11  and  C_13
REMARK                            x       y       z     vdW  Elec       q    Type
REMARK                         _______ _______ _______ _____ _____    ______ ____
ROOT
ATOM      1  C   UNL     1       6.484   5.454  19.058  0.00  0.00    +0.000 C 
ATOM      2  C   UNL     1       5.793   5.258  17.704  0.00  0.00    +0.000 C 
ENDROOT
BRANCH   2   3
ATOM      3  C   UNL     1       4.438   5.938  17.763  0.00  0.00    +0.000 C 
ATOM      4  O   UNL     1       4.258   7.074  17.325  0.00  0.00    +0.000 OA
BRANCH   3   5
ATOM      5  C   UNL     1       3.300   5.251  18.450  0.00  0.00    +0.000 A 
ATOM      6  C   UNL     1       2.636   4.218  17.773  0.00  0.00    +0.000 A 
ATOM      7  C   UNL     1       1.552   3.564  18.366  0.00  0.00    +0.000 A 
ATOM      8  C   UNL     1       1.133   3.929  19.644  0.00  0.00    +0.000 A 
ATOM      9  C   UNL     1       1.804   4.936  20.335  0.00  0.00    +0.000 A 
ATOM     10  C   UNL     1       2.884   5.596  19.743  0.00  0.00    +0.000 A 
ENDBRANCH   3   5
ENDBRANCH   2   3
BRANCH   2  11
ATOM     11  C   UNL     1       6.677   5.756  16.566  0.00  0.00    +0.000 C 
ATOM     12  O   UNL     1       7.530   6.626  16.753  0.00  0.00    +0.000 OA
BRANCH  11  13
ATOM     13  C   UNL     1       6.607   5.075  15.281  0.00  0.00    +0.000 A 
ATOM     14  C   UNL     1       5.772   4.092  14.779  0.00  0.00    +0.000 A 
ATOM     15  C   UNL     1       6.170   3.818  13.445  0.00  0.00    +0.000 A 
ATOM     16  C   UNL     1       7.249   4.621  13.166  0.00  0.00    +0.000 A 
ATOM     17  N   UNL     1       7.500   5.381  14.274  0.00  0.00    +0.000 N 
ATOM     18  H   UNL     1       8.231   6.077  14.370  0.00  0.00    +0.000 HD
ENDBRANCH  11  13
ENDBRANCH   2  11
TORSDOF 4
ENDMDL
MODEL 5
REMARK VINA RESULT:      -7.0      3.129      6.113
REMARK  Name = 
REMARK  5 active torsions:
REMARK  status: ('A' for Active; 'I' for Inactive)
REMARK    1  A    between atoms: C_1  and  C_2
REMARK    2  A    between atoms: C_2  and  C_3
REMARK    3  A    between atoms: C_2  and  C_11
REMARK    4  A    between atoms: C_3  and  C_5
REMARK    5  A    between atoms: C_11  and  C_13
REMARK                            x       y       z     vdW  Elec       q    Type
REMARK                         _______ _______ _______ _____ _____    ______ ____
ROOT
ATOM      1  C   UNL     1       3.207   6.375  19.059  0.00  0.00    +0.000 C 
ATOM      2  C   UNL     1       2.915   5.512  17.828  0.00  0.00    +0.000 C 
ENDROOT
BRANCH   2   3
ATOM      3  C   UNL     1       4.231   4.954  17.319  0.00  0.00    +0.000 C 
ATOM      4  O   UNL     1       4.285   3.945  16.617  0.00  0.00    +0.000 OA
BRANCH   3   5
ATOM      5  C   UNL     1       5.516   5.592  17.750  0.00  0.00    +0.000 A 
ATOM      6  C   UNL     1       5.986   6.699  17.031  0.00  0.00    +0.000 A 
ATOM      7  C   UNL     1       7.192   7.312  17.382  0.00  0.00    +0.000 A 
ATOM      8  C   UNL     1       7.929   6.831  18.462  0.00  0.00    +0.000 A 
ATOM      9  C   UNL     1       7.455   5.748  19.200  0.00  0.00    +0.000 A 
ATOM     10  C   UNL     1       6.253   5.128  18.848  0.00  0.00    +0.000 A 
ENDBRANCH   3   5
ENDBRANCH   2   3
BRANCH   2  11
ATOM     11  C   UNL     1       1.881   4.438  18.149  0.00  0.00    +0.000 C 
ATOM     12  O   UNL     1       1.116   4.009  17.283  0.00  0.00    +0.000 OA
BRANCH  11  13
ATOM     13  C   UNL     1       1.915   3.810  19.462  0.00  0.00    +0.000 A 
ATOM     14  C   UNL     1       1.015   3.772  20.513  0.00  0.00    +0.000 A 
ATOM     15  C   UNL     1       1.585   2.990  21.550  0.00  0.00    +0.000 A 
ATOM     16  C   UNL     1       2.825   2.583  21.123  0.00  0.00    +0.000 A 
ATOM     17  N   UNL     1       3.013   3.074  19.861  0.00  0.00    +0.000 N 
ATOM     18  H   UNL     1       3.831   2.934  19.279  0.00  0.00    +0.000 HD
ENDBRANCH  11  13
ENDBRANCH   2  11
TORSDOF 4
ENDMDL
MODEL 6
REMARK VINA RESULT:      -6.9      1.493      2.073
REMARK  Name = 
REMARK  5 active torsions:
REMARK  status: ('A' for Active; 'I' for Inactive)
REMARK    1  A    between atoms: C_1  and  C_2
REMARK    2  A    between atoms: C_2  and  C_3
REMARK    3  A    between atoms: C_2  and  C_11
REMARK    4  A    between atoms: C_3  and  C_5
REMARK    5  A    between atoms: C_11  and  C_13
REMARK                            x       y       z     vdW  Elec       q    Type
REMARK                         _______ _______ _______ _____ _____    ______ ____
ROOT
ATOM      1  C   UNL     1       5.159   6.211  16.811  0.00  0.00    +0.000 C 
ATOM      2  C   UNL     1       6.428   5.860  17.593  0.00  0.00    +0.000 C 
ENDROOT
BRANCH   2   3
ATOM      3  C   UNL     1       6.015   5.373  18.969  0.00  0.00    +0.000 C 
ATOM      4  O   UNL     1       6.778   5.418  19.934  0.00  0.00    +0.000 OA
BRANCH   3   5
ATOM      5  C   UNL     1       4.672   4.738  19.152  0.00  0.00    +0.000 A 
ATOM      6  C   UNL     1       4.508   3.400  18.768  0.00  0.00    +0.000 A 
ATOM      7  C   UNL     1       3.266   2.772  18.898  0.00  0.00    +0.000 A 
ATOM      8  C   UNL     1       2.183   3.473  19.425  0.00  0.00    +0.000 A 
ATOM      9  C   UNL     1       2.344   4.795  19.835  0.00  0.00    +0.000 A 
ATOM     10  C   UNL     1       3.583   5.428  19.701  0.00  0.00    +0.000 A 
ENDBRANCH   3   5
ENDBRANCH   2   3
BRANCH   2  11
ATOM     11  C   UNL     1       7.281   4.858  16.823  0.00  0.00    +0.000 C 
ATOM     12  O   UNL     1       8.138   4.178  17.391  0.00  0.00    +0.000 OA
BRANCH  11  13
ATOM     13  C   UNL     1       6.960   4.599  15.426  0.00  0.00    +0.000 A 
ATOM     14  C   UNL     1       6.078   3.731  14.805  0.00  0.00    +0.000 A 
ATOM     15  C   UNL     1       6.186   3.925  13.404  0.00  0.00    +0.000 A 
ATOM     16  C   UNL     1       7.142   4.889  13.196  0.00  0.00    +0.000 A 
ATOM     17  N   UNL     1       7.597   5.296  14.419  0.00  0.00    +0.000 N 
ATOM     18  H   UNL     1       8.301   6.005  14.590  0.00  0.00    +0.000 HD
ENDBRANCH  11  13
ENDBRANCH   2  11
TORSDOF 4
ENDMDL
MODEL 7
REMARK VINA RESULT:      -6.9      1.330      1.906
REMARK  Name = 
REMARK  5 active torsions:
REMARK  status: ('A' for Active; 'I' for Inactive)
REMARK    1  A    between atoms: C_1  and  C_2
REMARK    2  A    between atoms: C_2  and  C_3
REMARK    3  A    between atoms: C_2  and  C_11
REMARK    4  A    between atoms: C_3  and  C_5
REMARK    5  A    between atoms: C_11  and  C_13
REMARK                            x       y       z     vdW  Elec       q    Type
REMARK                         _______ _______ _______ _____ _____    ______ ____
ROOT
ATOM      1  C   UNL     1       7.789   6.795  18.257  0.00  0.00    +0.000 C 
ATOM      2  C   UNL     1       6.964   5.654  17.654  0.00  0.00    +0.000 C 
ENDROOT
BRANCH   2   3
ATOM      3  C   UNL     1       6.026   5.131  18.725  0.00  0.00    +0.000 C 
ATOM      4  O   UNL     1       6.411   4.893  19.871  0.00  0.00    +0.000 OA
BRANCH   3   5
ATOM      5  C   UNL     1       4.608   4.809  18.368  0.00  0.00    +0.000 A 
ATOM      6  C   UNL     1       4.314   3.522  17.896  0.00  0.00    +0.000 A 
ATOM      7  C   UNL     1       3.009   3.184  17.529  0.00  0.00    +0.000 A 
ATOM      8  C   UNL     1       1.987   4.124  17.641  0.00  0.00    +0.000 A 
ATOM      9  C   UNL     1       2.266   5.397  18.135  0.00  0.00    +0.000 A 
ATOM     10  C   UNL     1       3.571   5.742  18.498  0.00  0.00    +0.000 A 
ENDBRANCH   3   5
ENDBRANCH   2   3
BRANCH   2  11
ATOM     11  C   UNL     1       6.250   6.110  16.387  0.00  0.00    +0.000 C 
ATOM     12  O   UNL     1       5.733   7.227  16.312  0.00  0.00    +0.000 OA
BRANCH  11  13
ATOM     13  C   UNL     1       6.322   5.265  15.204  0.00  0.00    +0.000 A 
ATOM     14  C   UNL     1       5.470   4.312  14.671  0.00  0.00    +0.000 A 
ATOM     15  C   UNL     1       6.060   3.813  13.482  0.00  0.00    +0.000 A 
ATOM     16  C   UNL     1       7.265   4.452  13.322  0.00  0.00    +0.000 A 
ATOM     17  N   UNL     1       7.412   5.331  14.358  0.00  0.00    +0.000 N 
ATOM     18  H   UNL     1       8.197   5.954  14.510  0.00  0.00    +0.000 HD
ENDBRANCH  11  13
ENDBRANCH   2  11
TORSDOF 4
ENDMDL
MODEL 8
REMARK VINA RESULT:      -6.9      2.836      4.284
REMARK  Name = 
REMARK  5 active torsions:
REMARK  status: ('A' for Active; 'I' for Inactive)
REMARK    1  A    between atoms: C_1  and  C_2
REMARK    2  A    between atoms: C_2  and  C_3
REMARK    3  A    between atoms: C_2  and  C_11
REMARK    4  A    between atoms: C_3  and  C_5
REMARK    5  A    between atoms: C_11  and  C_13
REMARK                            x       y       z     vdW  Elec       q    Type
REMARK                         _______ _______ _______ _____ _____    ______ ____
ROOT
ATOM      1  C   UNL     1       1.496   4.136  18.194  0.00  0.00    +0.000 C 
ATOM      2  C   UNL     1       2.832   4.757  17.775  0.00  0.00    +0.000 C 
ENDROOT
BRANCH   2   3
ATOM      3  C   UNL     1       3.244   5.755  18.841  0.00  0.00    +0.000 C 
ATOM      4  O   UNL     1       4.090   5.488  19.694  0.00  0.00    +0.000 OA
BRANCH   3   5
ATOM      5  C   UNL     1       2.544   7.076  18.920  0.00  0.00    +0.000 A 
ATOM      6  C   UNL     1       1.960   7.451  20.139  0.00  0.00    +0.000 A 
ATOM      7  C   UNL     1       1.276   8.664  20.253  0.00  0.00    +0.000 A 
ATOM      8  C   UNL     1       1.181   9.517  19.156  0.00  0.00    +0.000 A 
ATOM      9  C   UNL     1       1.782   9.165  17.948  0.00  0.00    +0.000 A 
ATOM     10  C   UNL     1       2.461   7.949  17.828  0.00  0.00    +0.000 A 
ENDBRANCH   3   5
ENDBRANCH   2   3
BRANCH   2  11
ATOM     11  C   UNL     1       3.876   3.676  17.517  0.00  0.00    +0.000 C 
ATOM     12  O   UNL     1       3.618   2.484  17.695  0.00  0.00    +0.000 OA
BRANCH  11  13
ATOM     13  C   UNL     1       5.138   4.060  16.901  0.00  0.00    +0.000 A 
ATOM     14  C   UNL     1       5.501   4.356  15.598  0.00  0.00    +0.000 A 
ATOM     15  C   UNL     1       6.883   4.678  15.591  0.00  0.00    +0.000 A 
ATOM     16  C   UNL     1       7.340   4.552  16.880  0.00  0.00    +0.000 A 
ATOM     17  N   UNL     1       6.281   4.189  17.665  0.00  0.00    +0.000 N 
ATOM     18  H   UNL     1       6.304   4.029  18.665  0.00  0.00    +0.000 HD
ENDBRANCH  11  13
ENDBRANCH   2  11
TORSDOF 4
ENDMDL
MODEL 9
REMARK VINA RESULT:      -6.8      1.143      1.209
REMARK  Name = 
REMARK  5 active torsions:
REMARK  status: ('A' for Active; 'I' for Inactive)
REMARK    1  A    between atoms: C_1  and  C_2
REMARK    2  A    between atoms: C_2  and  C_3
REMARK    3  A    between atoms: C_2  and  C_11
REMARK    4  A    between atoms: C_3  and  C_5
REMARK    5  A    between atoms: C_11  and  C_13
REMARK                            x       y       z     vdW  Elec       q    Type
REMARK                         _______ _______ _______ _____ _____    ______ ____
ROOT
ATOM      1  C   UNL     1       7.649   4.592  17.448  0.00  0.00    +0.000 C 
ATOM      2  C   UNL     1       6.208   4.445  16.948  0.00  0.00    +0.000 C 
ENDROOT
BRANCH   2   3
ATOM      3  C   UNL     1       5.273   4.744  18.104  0.00  0.00    +0.000 C 
ATOM      4  O   UNL     1       5.604   5.472  19.040  0.00  0.00    +0.000 OA
BRANCH   3   5
ATOM      5  C   UNL     1       3.938   4.070  18.163  0.00  0.00    +0.000 A 
ATOM      6  C   UNL     1       2.797   4.817  17.838  0.00  0.00    +0.000 A 
ATOM      7  C   UNL     1       1.528   4.236  17.902  0.00  0.00    +0.000 A 
ATOM      8  C   UNL     1       1.390   2.902  18.279  0.00  0.00    +0.000 A 
ATOM      9  C   UNL     1       2.521   2.144  18.577  0.00  0.00    +0.000 A 
ATOM     10  C   UNL     1       3.792   2.723  18.521  0.00  0.00    +0.000 A 
ENDBRANCH   3   5
ENDBRANCH   2   3
BRANCH   2  11
ATOM     11  C   UNL     1       5.966   5.324  15.725  0.00  0.00    +0.000 C 
ATOM     12  O   UNL     1       5.591   6.492  15.842  0.00  0.00    +0.000 OA
BRANCH  11  13
ATOM     13  C   UNL     1       6.338   4.810  14.414  0.00  0.00    +0.000 A 
ATOM     14  C   UNL     1       5.819   3.808  13.612  0.00  0.00    +0.000 A 
ATOM     15  C   UNL     1       6.589   3.757  12.422  0.00  0.00    +0.000 A 
ATOM     16  C   UNL     1       7.572   4.711  12.528  0.00  0.00    +0.000 A 
ATOM     17  N   UNL     1       7.408   5.347  13.727  0.00  0.00    +0.000 N 
ATOM     18  H   UNL     1       7.976   6.105  14.085  0.00  0.00    +0.000 HD
ENDBRANCH  11  13
ENDBRANCH   2  11
TORSDOF 4
ENDMDL
