MODEL 1
REMARK VINA RESULT:      -8.5      0.000      0.000
REMARK  Name = 
REMARK  7 active torsions:
REMARK  status: ('A' for Active; 'I' for Inactive)
REMARK    1  A    between atoms: N_3  and  C_4
REMARK    2  A    between atoms: C_7  and  O_8
REMARK    3  A    between atoms: O_8  and  C_9
REMARK    4  A    between atoms: C_20  and  O_21
REMARK    5  A    between atoms: C_22  and  O_23
REMARK    6  A    between atoms: O_23  and  C_24
REMARK    7  A    between atoms: C_24  and  C_25
REMARK                            x       y       z     vdW  Elec       q    Type
REMARK                         _______ _______ _______ _____ _____    ______ ____
ROOT
ATOM      1  O   UNL     1       4.349   6.863  17.316  0.00  0.00    +0.000 OA
ATOM      2  C   UNL     1       3.698   6.112  18.026  0.00  0.00    +0.000 C 
ATOM      3  N   UNL     1       2.635   6.430  18.875  0.00  0.00    +0.000 N 
ATOM      4  C   UNL     1       2.163   5.271  19.594  0.00  0.00    +0.000 C 
ATOM      5  C   UNL     1       2.664   4.109  18.756  0.00  0.00    +0.000 C 
ATOM      6  C   UNL     1       3.995   4.620  18.177  0.00  0.00    +0.000 C 
ATOM      7  C   UNL     1       5.154   4.377  19.153  0.00  0.00    +0.000 C 
ATOM      8  C   UNL     1       6.501   4.791  18.569  0.00  0.00    +0.000 C 
ATOM      9  C   UNL     1       6.775   4.151  17.205  0.00  0.00    +0.000 C 
ATOM     10  C   UNL     1       5.624   4.368  16.194  0.00  0.00    +0.000 C 
ATOM     11  C   UNL     1       4.269   3.994  16.814  0.00  0.00    +0.000 C 
ENDROOT
BRANCH   3  12
ATOM     12  C   UNL     1       2.054   7.706  19.010  0.00  0.00    +0.000 A 
ATOM     13  C   UNL     1       1.907   8.559  17.914  0.00  0.00    +0.000 A 
ATOM     14  C   UNL     1       1.277   9.798  18.052  0.00  0.00    +0.000 A 
ATOM     15  C   UNL     1       0.797  10.218  19.292  0.00  0.00    +0.000 A 
ATOM     16  C   UNL     1       1.002   9.409  20.404  0.00  0.00    +0.000 A 
ATOM     17  C   UNL     1       1.591   8.146  20.259  0.00  0.00    +0.000 A 
BRANCH  15  18
ATOM     18  O   UNL     1       0.216  11.447  19.297  0.00  0.00    +0.000 OA
BRANCH  18  19
ATOM     19  C   UNL     1      -1.194  11.552  19.442  0.00  0.00    +0.000 C 
ATOM     20  F   UNL     1      -1.739  12.643  18.865  0.00  0.00    +0.000 F 
ATOM     21  F   UNL     1      -1.772  10.451  18.914  0.00  0.00    +0.000 F 
ATOM     22  F   UNL     1      -1.490  11.592  20.760  0.00  0.00    +0.000 F 
ENDBRANCH  18  19
ENDBRANCH  15  18
ENDBRANCH   3  12
BRANCH   9  23
ATOM     23  O   UNL     1       8.003   4.696  16.709  0.00  0.00    +0.000 OA
ATOM     24  H   UNL     1       8.717   4.429  17.315  0.00  0.00    +0.000 HD
ENDBRANCH   9  23
BRANCH  10  25
ATOM     25  O   UNL     1       5.851   3.542  15.033  0.00  0.00    +0.000 OA
BRANCH  25  26
ATOM     26  C   UNL     1       6.283   4.279  13.876  0.00  0.00    +0.000 C 
BRANCH  26  27
ATOM     27  C   UNL     1       5.996   3.577  12.548  0.00  0.00    +0.000 C 
ATOM     28  F   UNL     1       6.182   2.243  12.594  0.00  0.00    +0.000 F 
ATOM     29  F   UNL     1       4.713   3.797  12.167  0.00  0.00    +0.000 F 
ATOM     30  F   UNL     1       6.788   4.070  11.566  0.00  0.00    +0.000 F 
ENDBRANCH  26  27
ENDBRANCH  25  26
ENDBRANCH  10  25
TORSDOF 7
ENDMDL
MODEL 2
REMARK VINA RESULT:      -8.5      0.923      1.634
REMARK  Name = 
REMARK  7 active torsions:
REMARK  status: ('A' for Active; 'I' for Inactive)
REMARK    1  A    between atoms: N_3  and  C_4
REMARK    2  A    between atoms: C_7  and  O_8
REMARK    3  A    between atoms: O_8  and  C_9
REMARK    4  A    between atoms: C_20  and  O_21
REMARK    5  A    between atoms: C_22  and  O_23
REMARK    6  A    between atoms: O_23  and  C_24
REMARK    7  A    between atoms: C_24  and  C_25
REMARK                            x       y       z     vdW  Elec       q    Type
REMARK                         _______ _______ _______ _____ _____    ______ ____
ROOT
ATOM      1  O   UNL     1       4.195   6.889  16.690  0.00  0.00    +0.000 OA
ATOM      2  C   UNL     1       4.057   6.189  17.682  0.00  0.00    +0.000 C 
ATOM      3  N   UNL     1       3.267   6.432  18.808  0.00  0.00    +0.000 N 
ATOM      4  C   UNL     1       3.416   5.392  19.797  0.00  0.00    +0.000 C 
ATOM      5  C   UNL     1       3.958   4.221  18.997  0.00  0.00    +0.000 C 
ATOM      6  C   UNL     1       4.822   4.887  17.912  0.00  0.00    +0.000 C 
ATOM      7  C   UNL     1       6.244   5.157  18.422  0.00  0.00    +0.000 C 
ATOM      8  C   UNL     1       7.150   5.733  17.339  0.00  0.00    +0.000 C 
ATOM      9  C   UNL     1       7.166   4.880  16.068  0.00  0.00    +0.000 C 
ATOM     10  C   UNL     1       5.748   4.579  15.525  0.00  0.00    +0.000 C 
ATOM     11  C   UNL     1       4.834   4.047  16.639  0.00  0.00    +0.000 C 
ENDROOT
BRANCH   3  12
ATOM     12  C   UNL     1       2.400   7.530  18.974  0.00  0.00    +0.000 A 
ATOM     13  C   UNL     1       1.822   7.821  20.212  0.00  0.00    +0.000 A 
ATOM     14  C   UNL     1       1.009   8.945  20.374  0.00  0.00    +0.000 A 
ATOM     15  C   UNL     1       0.743   9.792  19.298  0.00  0.00    +0.000 A 
ATOM     16  C   UNL     1       1.253   9.473  18.045  0.00  0.00    +0.000 A 
ATOM     17  C   UNL     1       2.108   8.372  17.891  0.00  0.00    +0.000 A 
BRANCH  15  18
ATOM     18  O   UNL     1      -0.070  10.844  19.583  0.00  0.00    +0.000 OA
BRANCH  18  19
ATOM     19  C   UNL     1      -1.333  10.943  18.939  0.00  0.00    +0.000 C 
ATOM     20  F   UNL     1      -1.891   9.759  18.609  0.00  0.00    +0.000 F 
ATOM     21  F   UNL     1      -2.186  11.611  19.746  0.00  0.00    +0.000 F 
ATOM     22  F   UNL     1      -1.182  11.657  17.802  0.00  0.00    +0.000 F 
ENDBRANCH  18  19
ENDBRANCH  15  18
ENDBRANCH   3  12
BRANCH   9  23
ATOM     23  O   UNL     1       7.954   5.571  15.091  0.00  0.00    +0.000 OA
ATOM     24  H   UNL     1       7.688   5.251  14.211  0.00  0.00    +0.000 HD
ENDBRANCH   9  23
BRANCH  10  25
ATOM     25  O   UNL     1       5.841   3.587  14.482  0.00  0.00    +0.000 OA
BRANCH  25  26
ATOM     26  C   UNL     1       4.958   3.830  13.373  0.00  0.00    +0.000 C 
BRANCH  26  27
ATOM     27  C   UNL     1       5.505   3.358  12.025  0.00  0.00    +0.000 C 
ATOM     28  F   UNL     1       6.685   3.921  11.698  0.00  0.00    +0.000 F 
ATOM     29  F   UNL     1       5.684   2.013  12.035  0.00  0.00    +0.000 F 
ATOM     30  F   UNL     1       4.628   3.631  11.030  0.00  0.00    +0.000 F 
ENDBRANCH  26  27
ENDBRANCH  25  26
ENDBRANCH  10  25
TORSDOF 7
ENDMDL
MODEL 3
REMARK VINA RESULT:      -8.5      0.357      1.096
REMARK  Name = 
REMARK  7 active torsions:
REMARK  status: ('A' for Active; 'I' for Inactive)
REMARK    1  A    between atoms: N_3  and  C_4
REMARK    2  A    between atoms: C_7  and  O_8
REMARK    3  A    between atoms: O_8  and  C_9
REMARK    4  A    between atoms: C_20  and  O_21
REMARK    5  A    between atoms: C_22  and  O_23
REMARK    6  A    between atoms: O_23  and  C_24
REMARK    7  A    between atoms: C_24  and  C_25
REMARK                            x       y       z     vdW  Elec       q    Type
REMARK                         _______ _______ _______ _____ _____    ______ ____
ROOT
ATOM      1  O   UNL     1       4.349   6.843  17.281  0.00  0.00    +0.000 OA
ATOM      2  C   UNL     1       3.704   6.077  17.982  0.00  0.00    +0.000 C 
ATOM      3  N   UNL     1       2.648   6.376  18.846  0.00  0.00    +0.000 N 
ATOM      4  C   UNL     1       2.184   5.202  19.545  0.00  0.00    +0.000 C 
ATOM      5  C   UNL     1       2.678   4.058  18.679  0.00  0.00    +0.000 C 
ATOM      6  C   UNL     1       4.004   4.583  18.099  0.00  0.00    +0.000 C 
ATOM      7  C   UNL     1       5.172   4.321  19.060  0.00  0.00    +0.000 C 
ATOM      8  C   UNL     1       6.513   4.749  18.473  0.00  0.00    +0.000 C 
ATOM      9  C   UNL     1       6.776   4.137  17.094  0.00  0.00    +0.000 C 
ATOM     10  C   UNL     1       5.615   4.373  16.097  0.00  0.00    +0.000 C 
ATOM     11  C   UNL     1       4.266   3.985  16.721  0.00  0.00    +0.000 C 
ENDROOT
BRANCH   3  12
ATOM     12  C   UNL     1       2.067   7.649  19.012  0.00  0.00    +0.000 A 
ATOM     13  C   UNL     1       1.934   8.534  17.940  0.00  0.00    +0.000 A 
ATOM     14  C   UNL     1       1.305   9.769  18.108  0.00  0.00    +0.000 A 
ATOM     15  C   UNL     1       0.810  10.153  19.354  0.00  0.00    +0.000 A 
ATOM     16  C   UNL     1       1.001   9.311  20.444  0.00  0.00    +0.000 A 
ATOM     17  C   UNL     1       1.590   8.051  20.268  0.00  0.00    +0.000 A 
BRANCH  15  18
ATOM     18  O   UNL     1       0.230  11.382  19.389  0.00  0.00    +0.000 OA
BRANCH  18  19
ATOM     19  C   UNL     1      -1.134  11.521  19.017  0.00  0.00    +0.000 C 
ATOM     20  F   UNL     1      -1.802  10.356  18.885  0.00  0.00    +0.000 F 
ATOM     21  F   UNL     1      -1.766  12.278  19.939  0.00  0.00    +0.000 F 
ATOM     22  F   UNL     1      -1.193  12.165  17.830  0.00  0.00    +0.000 F 
ENDBRANCH  18  19
ENDBRANCH  15  18
ENDBRANCH   3  12
BRANCH   9  23
ATOM     23  O   UNL     1       7.999   4.693  16.598  0.00  0.00    +0.000 OA
ATOM     24  H   UNL     1       8.680   3.998  16.631  0.00  0.00    +0.000 HD
ENDBRANCH   9  23
BRANCH  10  25
ATOM     25  O   UNL     1       5.833   3.572  14.918  0.00  0.00    +0.000 OA
BRANCH  25  26
ATOM     26  C   UNL     1       6.074   4.346  13.730  0.00  0.00    +0.000 C 
BRANCH  26  27
ATOM     27  C   UNL     1       6.041   3.530  12.437  0.00  0.00    +0.000 C 
ATOM     28  F   UNL     1       4.926   3.727  11.706  0.00  0.00    +0.000 F 
ATOM     29  F   UNL     1       7.103   3.845  11.654  0.00  0.00    +0.000 F 
ATOM     30  F   UNL     1       6.129   2.205  12.705  0.00  0.00    +0.000 F 
ENDBRANCH  26  27
ENDBRANCH  25  26
ENDBRANCH  10  25
TORSDOF 7
ENDMDL
MODEL 4
REMARK VINA RESULT:      -8.4      0.343      1.076
REMARK  Name = 
REMARK  7 active torsions:
REMARK  status: ('A' for Active; 'I' for Inactive)
REMARK    1  A    between atoms: N_3  and  C_4
REMARK    2  A    between atoms: C_7  and  O_8
REMARK    3  A    between atoms: O_8  and  C_9
REMARK    4  A    between atoms: C_20  and  O_21
REMARK    5  A    between atoms: C_22  and  O_23
REMARK    6  A    between atoms: O_23  and  C_24
REMARK    7  A    between atoms: C_24  and  C_25
REMARK                            x       y       z     vdW  Elec       q    Type
REMARK                         _______ _______ _______ _____ _____    ______ ____
ROOT
ATOM      1  O   UNL     1       4.247   6.848  17.280  0.00  0.00    +0.000 OA
ATOM      2  C   UNL     1       3.648   6.110  18.048  0.00  0.00    +0.000 C 
ATOM      3  N   UNL     1       2.618   6.436  18.934  0.00  0.00    +0.000 N 
ATOM      4  C   UNL     1       2.209   5.295  19.716  0.00  0.00    +0.000 C 
ATOM      5  C   UNL     1       2.698   4.113  18.898  0.00  0.00    +0.000 C 
ATOM      6  C   UNL     1       3.987   4.632  18.239  0.00  0.00    +0.000 C 
ATOM      7  C   UNL     1       5.197   4.452  19.167  0.00  0.00    +0.000 C 
ATOM      8  C   UNL     1       6.504   4.874  18.504  0.00  0.00    +0.000 C 
ATOM      9  C   UNL     1       6.730   4.190  17.154  0.00  0.00    +0.000 C 
ATOM     10  C   UNL     1       5.527   4.343  16.191  0.00  0.00    +0.000 C 
ATOM     11  C   UNL     1       4.212   3.962  16.888  0.00  0.00    +0.000 C 
ENDROOT
BRANCH   3  12
ATOM     12  C   UNL     1       2.013   7.703  19.050  0.00  0.00    +0.000 A 
ATOM     13  C   UNL     1       1.540   8.174  20.277  0.00  0.00    +0.000 A 
ATOM     14  C   UNL     1       0.994   9.455  20.387  0.00  0.00    +0.000 A 
ATOM     15  C   UNL     1       0.894  10.285  19.270  0.00  0.00    +0.000 A 
ATOM     16  C   UNL     1       1.295   9.800  18.031  0.00  0.00    +0.000 A 
ATOM     17  C   UNL     1       1.886   8.533  17.927  0.00  0.00    +0.000 A 
BRANCH  15  18
ATOM     18  O   UNL     1       0.334  11.501  19.507  0.00  0.00    +0.000 OA
BRANCH  18  19
ATOM     19  C   UNL     1      -1.008  11.741  19.107  0.00  0.00    +0.000 C 
ATOM     20  F   UNL     1      -1.695  12.575  19.916  0.00  0.00    +0.000 F 
ATOM     21  F   UNL     1      -1.009  12.255  17.858  0.00  0.00    +0.000 F 
ATOM     22  F   UNL     1      -1.667  10.561  19.078  0.00  0.00    +0.000 F 
ENDBRANCH  18  19
ENDBRANCH  15  18
ENDBRANCH   3  12
BRANCH   9  23
ATOM     23  O   UNL     1       7.920   4.742  16.580  0.00  0.00    +0.000 OA
ATOM     24  H   UNL     1       8.254   4.112  15.918  0.00  0.00    +0.000 HD
ENDBRANCH   9  23
BRANCH  10  25
ATOM     25  O   UNL     1       5.720   3.479  15.052  0.00  0.00    +0.000 OA
BRANCH  25  26
ATOM     26  C   UNL     1       6.354   4.128  13.936  0.00  0.00    +0.000 C 
BRANCH  26  27
ATOM     27  C   UNL     1       5.948   3.563  12.574  0.00  0.00    +0.000 C 
ATOM     28  F   UNL     1       6.131   2.232  12.468  0.00  0.00    +0.000 F 
ATOM     29  F   UNL     1       4.638   3.815  12.331  0.00  0.00    +0.000 F 
ATOM     30  F   UNL     1       6.654   4.157  11.581  0.00  0.00    +0.000 F 
ENDBRANCH  26  27
ENDBRANCH  25  26
ENDBRANCH  10  25
TORSDOF 7
ENDMDL
MODEL 5
REMARK VINA RESULT:      -8.4      2.880      4.102
REMARK  Name = 
REMARK  7 active torsions:
REMARK  status: ('A' for Active; 'I' for Inactive)
REMARK    1  A    between atoms: N_3  and  C_4
REMARK    2  A    between atoms: C_7  and  O_8
REMARK    3  A    between atoms: O_8  and  C_9
REMARK    4  A    between atoms: C_20  and  O_21
REMARK    5  A    between atoms: C_22  and  O_23
REMARK    6  A    between atoms: O_23  and  C_24
REMARK    7  A    between atoms: C_24  and  C_25
REMARK                            x       y       z     vdW  Elec       q    Type
REMARK                         _______ _______ _______ _____ _____    ______ ____
ROOT
ATOM      1  O   UNL     1       2.260   6.514  20.782  0.00  0.00    +0.000 OA
ATOM      2  C   UNL     1       2.216   7.138  19.733  0.00  0.00    +0.000 C 
ATOM      3  N   UNL     1       1.573   8.351  19.475  0.00  0.00    +0.000 N 
ATOM      4  C   UNL     1       1.703   8.738  18.091  0.00  0.00    +0.000 C 
ATOM      5  C   UNL     1       2.905   7.944  17.614  0.00  0.00    +0.000 C 
ATOM      6  C   UNL     1       2.827   6.638  18.424  0.00  0.00    +0.000 C 
ATOM      7  C   UNL     1       1.915   5.612  17.738  0.00  0.00    +0.000 C 
ATOM      8  C   UNL     1       1.890   4.275  18.471  0.00  0.00    +0.000 C 
ATOM      9  C   UNL     1       3.292   3.706  18.709  0.00  0.00    +0.000 C 
ATOM     10  C   UNL     1       4.245   4.715  19.394  0.00  0.00    +0.000 C 
ATOM     11  C   UNL     1       4.221   6.072  18.673  0.00  0.00    +0.000 C 
ENDROOT
BRANCH   3  12
ATOM     12  C   UNL     1       0.902   9.138  20.432  0.00  0.00    +0.000 A 
ATOM     13  C   UNL     1       0.173   8.555  21.471  0.00  0.00    +0.000 A 
ATOM     14  C   UNL     1      -0.439   9.347  22.445  0.00  0.00    +0.000 A 
ATOM     15  C   UNL     1      -0.350  10.738  22.391  0.00  0.00    +0.000 A 
ATOM     16  C   UNL     1       0.311  11.331  21.322  0.00  0.00    +0.000 A 
ATOM     17  C   UNL     1       0.967  10.538  20.370  0.00  0.00    +0.000 A 
BRANCH  15  18
ATOM     18  O   UNL     1      -0.999  11.394  23.390  0.00  0.00    +0.000 OA
BRANCH  18  19
ATOM     19  C   UNL     1      -2.192  12.108  23.096  0.00  0.00    +0.000 C 
ATOM     20  F   UNL     1      -2.590  12.032  21.809  0.00  0.00    +0.000 F 
ATOM     21  F   UNL     1      -3.187  11.642  23.883  0.00  0.00    +0.000 F 
ATOM     22  F   UNL     1      -1.997  13.412  23.390  0.00  0.00    +0.000 F 
ENDBRANCH  18  19
ENDBRANCH  15  18
ENDBRANCH   3  12
BRANCH   9  23
ATOM     23  O   UNL     1       3.150   2.518  19.496  0.00  0.00    +0.000 OA
ATOM     24  H   UNL     1       2.285   2.122  19.289  0.00  0.00    +0.000 HD
ENDBRANCH   9  23
BRANCH  10  25
ATOM     25  O   UNL     1       5.589   4.193  19.363  0.00  0.00    +0.000 OA
BRANCH  25  26
ATOM     26  C   UNL     1       6.570   5.149  18.923  0.00  0.00    +0.000 C 
BRANCH  26  27
ATOM     27  C   UNL     1       7.217   4.804  17.580  0.00  0.00    +0.000 C 
ATOM     28  F   UNL     1       6.423   4.072  16.774  0.00  0.00    +0.000 F 
ATOM     29  F   UNL     1       7.543   5.938  16.911  0.00  0.00    +0.000 F 
ATOM     30  F   UNL     1       8.366   4.112  17.767  0.00  0.00    +0.000 F 
ENDBRANCH  26  27
ENDBRANCH  25  26
ENDBRANCH  10  25
TORSDOF 7
ENDMDL
MODEL 6
REMARK VINA RESULT:      -8.4      3.152      4.260
REMARK  Name = 
REMARK  7 active torsions:
REMARK  status: ('A' for Active; 'I' for Inactive)
REMARK    1  A    between atoms: N_3  and  C_4
REMARK    2  A    between atoms: C_7  and  O_8
REMARK    3  A    between atoms: O_8  and  C_9
REMARK    4  A    between atoms: C_20  and  O_21
REMARK    5  A    between atoms: C_22  and  O_23
REMARK    6  A    between atoms: O_23  and  C_24
REMARK    7  A    between atoms: C_24  and  C_25
REMARK                            x       y       z     vdW  Elec       q    Type
REMARK                         _______ _______ _______ _____ _____    ______ ____
ROOT
ATOM      1  O   UNL     1       2.202   6.511  20.827  0.00  0.00    +0.000 OA
ATOM      2  C   UNL     1       2.150   7.172  19.802  0.00  0.00    +0.000 C 
ATOM      3  N   UNL     1       1.519   8.402  19.597  0.00  0.00    +0.000 N 
ATOM      4  C   UNL     1       1.633   8.836  18.225  0.00  0.00    +0.000 C 
ATOM      5  C   UNL     1       2.817   8.045  17.702  0.00  0.00    +0.000 C 
ATOM      6  C   UNL     1       2.735   6.712  18.467  0.00  0.00    +0.000 C 
ATOM      7  C   UNL     1       1.799   5.722  17.758  0.00  0.00    +0.000 C 
ATOM      8  C   UNL     1       1.768   4.360  18.444  0.00  0.00    +0.000 C 
ATOM      9  C   UNL     1       3.165   3.766  18.640  0.00  0.00    +0.000 C 
ATOM     10  C   UNL     1       4.142   4.738  19.345  0.00  0.00    +0.000 C 
ATOM     11  C   UNL     1       4.124   6.119  18.674  0.00  0.00    +0.000 C 
ENDROOT
BRANCH   3  12
ATOM     12  C   UNL     1       0.873   9.162  20.592  0.00  0.00    +0.000 A 
ATOM     13  C   UNL     1       0.948  10.557  20.605  0.00  0.00    +0.000 A 
ATOM     14  C   UNL     1       0.256  11.300  21.564  0.00  0.00    +0.000 A 
ATOM     15  C   UNL     1      -0.512  10.663  22.540  0.00  0.00    +0.000 A 
ATOM     16  C   UNL     1      -0.535   9.274  22.580  0.00  0.00    +0.000 A 
ATOM     17  C   UNL     1       0.120   8.529  21.590  0.00  0.00    +0.000 A 
BRANCH  15  18
ATOM     18  O   UNL     1      -1.126  11.497  23.421  0.00  0.00    +0.000 OA
BRANCH  18  19
ATOM     19  C   UNL     1      -2.296  12.197  23.020  0.00  0.00    +0.000 C 
ATOM     20  F   UNL     1      -2.689  11.955  21.752  0.00  0.00    +0.000 F 
ATOM     21  F   UNL     1      -3.308  11.874  23.854  0.00  0.00    +0.000 F 
ATOM     22  F   UNL     1      -2.064  13.524  23.132  0.00  0.00    +0.000 F 
ENDBRANCH  18  19
ENDBRANCH  15  18
ENDBRANCH   3  12
BRANCH   9  23
ATOM     23  O   UNL     1       3.021   2.552  19.386  0.00  0.00    +0.000 OA
ATOM     24  H   UNL     1       2.485   1.936  18.856  0.00  0.00    +0.000 HD
ENDBRANCH   9  23
BRANCH  10  25
ATOM     25  O   UNL     1       5.479   4.200  19.274  0.00  0.00    +0.000 OA
BRANCH  25  26
ATOM     26  C   UNL     1       6.121   4.416  18.006  0.00  0.00    +0.000 C 
BRANCH  26  27
ATOM     27  C   UNL     1       7.529   5.005  18.112  0.00  0.00    +0.000 C 
ATOM     28  F   UNL     1       8.505   4.117  17.838  0.00  0.00    +0.000 F 
ATOM     29  F   UNL     1       7.670   6.044  17.252  0.00  0.00    +0.000 F 
ATOM     30  F   UNL     1       7.751   5.490  19.357  0.00  0.00    +0.000 F 
ENDBRANCH  26  27
ENDBRANCH  25  26
ENDBRANCH  10  25
TORSDOF 7
ENDMDL
MODEL 7
REMARK VINA RESULT:      -8.3      2.882      4.190
REMARK  Name = 
REMARK  7 active torsions:
REMARK  status: ('A' for Active; 'I' for Inactive)
REMARK    1  A    between atoms: N_3  and  C_4
REMARK    2  A    between atoms: C_7  and  O_8
REMARK    3  A    between atoms: O_8  and  C_9
REMARK    4  A    between atoms: C_20  and  O_21
REMARK    5  A    between atoms: C_22  and  O_23
REMARK    6  A    between atoms: O_23  and  C_24
REMARK    7  A    between atoms: C_24  and  C_25
REMARK                            x       y       z     vdW  Elec       q    Type
REMARK                         _______ _______ _______ _____ _____    ______ ____
ROOT
ATOM      1  O   UNL     1       2.235   6.492  20.772  0.00  0.00    +0.000 OA
ATOM      2  C   UNL     1       2.199   7.136  19.735  0.00  0.00    +0.000 C 
ATOM      3  N   UNL     1       1.557   8.353  19.494  0.00  0.00    +0.000 N 
ATOM      4  C   UNL     1       1.698   8.766  18.118  0.00  0.00    +0.000 C 
ATOM      5  C   UNL     1       2.906   7.983  17.638  0.00  0.00    +0.000 C 
ATOM      6  C   UNL     1       2.823   6.662  18.422  0.00  0.00    +0.000 C 
ATOM      7  C   UNL     1       1.919   5.648  17.708  0.00  0.00    +0.000 C 
ATOM      8  C   UNL     1       1.890   4.297  18.416  0.00  0.00    +0.000 C 
ATOM      9  C   UNL     1       3.290   3.725  18.655  0.00  0.00    +0.000 C 
ATOM     10  C   UNL     1       4.235   4.722  19.368  0.00  0.00    +0.000 C 
ATOM     11  C   UNL     1       4.215   6.093  18.673  0.00  0.00    +0.000 C 
ENDROOT
BRANCH   3  12
ATOM     12  C   UNL     1       0.876   9.121  20.460  0.00  0.00    +0.000 A 
ATOM     13  C   UNL     1       0.145   8.517  21.485  0.00  0.00    +0.000 A 
ATOM     14  C   UNL     1      -0.477   9.290  22.468  0.00  0.00    +0.000 A 
ATOM     15  C   UNL     1      -0.396  10.682  22.437  0.00  0.00    +0.000 A 
ATOM     16  C   UNL     1       0.267  11.296  21.381  0.00  0.00    +0.000 A 
ATOM     17  C   UNL     1       0.933  10.521  20.420  0.00  0.00    +0.000 A 
BRANCH  15  18
ATOM     18  O   UNL     1      -1.054  11.318  23.442  0.00  0.00    +0.000 OA
BRANCH  18  19
ATOM     19  C   UNL     1      -2.211  12.087  23.142  0.00  0.00    +0.000 C 
ATOM     20  F   UNL     1      -3.282  11.817  23.917  0.00  0.00    +0.000 F 
ATOM     21  F   UNL     1      -1.910  13.398  23.265  0.00  0.00    +0.000 F 
ATOM     22  F   UNL     1      -2.562  11.854  21.858  0.00  0.00    +0.000 F 
ENDBRANCH  18  19
ENDBRANCH  15  18
ENDBRANCH   3  12
BRANCH   9  23
ATOM     23  O   UNL     1       3.143   2.522  19.418  0.00  0.00    +0.000 OA
ATOM     24  H   UNL     1       3.250   1.768  18.813  0.00  0.00    +0.000 HD
ENDBRANCH   9  23
BRANCH  10  25
ATOM     25  O   UNL     1       5.581   4.203  19.339  0.00  0.00    +0.000 OA
BRANCH  25  26
ATOM     26  C   UNL     1       6.562   5.165  18.913  0.00  0.00    +0.000 C 
BRANCH  26  27
ATOM     27  C   UNL     1       7.216   4.835  17.570  0.00  0.00    +0.000 C 
ATOM     28  F   UNL     1       7.564   5.926  16.860  0.00  0.00    +0.000 F 
ATOM     29  F   UNL     1       8.338   4.098  17.762  0.00  0.00    +0.000 F 
ATOM     30  F   UNL     1       6.383   4.091  16.803  0.00  0.00    +0.000 F 
ENDBRANCH  26  27
ENDBRANCH  25  26
ENDBRANCH  10  25
TORSDOF 7
ENDMDL
MODEL 8
REMARK VINA RESULT:      -8.3      1.246      1.669
REMARK  Name = 
REMARK  7 active torsions:
REMARK  status: ('A' for Active; 'I' for Inactive)
REMARK    1  A    between atoms: N_3  and  C_4
REMARK    2  A    between atoms: C_7  and  O_8
REMARK    3  A    between atoms: O_8  and  C_9
REMARK    4  A    between atoms: C_20  and  O_21
REMARK    5  A    between atoms: C_22  and  O_23
REMARK    6  A    between atoms: O_23  and  C_24
REMARK    7  A    between atoms: C_24  and  C_25
REMARK                            x       y       z     vdW  Elec       q    Type
REMARK                         _______ _______ _______ _____ _____    ______ ____
ROOT
ATOM      1  O   UNL     1       4.232   6.843  16.634  0.00  0.00    +0.000 OA
ATOM      2  C   UNL     1       4.119   6.142  17.628  0.00  0.00    +0.000 C 
ATOM      3  N   UNL     1       3.342   6.373  18.765  0.00  0.00    +0.000 N 
ATOM      4  C   UNL     1       3.523   5.336  19.752  0.00  0.00    +0.000 C 
ATOM      5  C   UNL     1       4.072   4.174  18.945  0.00  0.00    +0.000 C 
ATOM      6  C   UNL     1       4.909   4.852  17.847  0.00  0.00    +0.000 C 
ATOM      7  C   UNL     1       6.334   5.146  18.337  0.00  0.00    +0.000 C 
ATOM      8  C   UNL     1       7.215   5.736  17.241  0.00  0.00    +0.000 C 
ATOM      9  C   UNL     1       7.226   4.883  15.969  0.00  0.00    +0.000 C 
ATOM     10  C   UNL     1       5.805   4.558  15.447  0.00  0.00    +0.000 C 
ATOM     11  C   UNL     1       4.916   4.012  16.575  0.00  0.00    +0.000 C 
ENDROOT
BRANCH   3  12
ATOM     12  C   UNL     1       2.459   7.457  18.943  0.00  0.00    +0.000 A 
ATOM     13  C   UNL     1       1.890   7.735  20.188  0.00  0.00    +0.000 A 
ATOM     14  C   UNL     1       1.062   8.846  20.361  0.00  0.00    +0.000 A 
ATOM     15  C   UNL     1       0.771   9.691  19.291  0.00  0.00    +0.000 A 
ATOM     16  C   UNL     1       1.273   9.383  18.031  0.00  0.00    +0.000 A 
ATOM     17  C   UNL     1       2.142   8.296  17.866  0.00  0.00    +0.000 A 
BRANCH  15  18
ATOM     18  O   UNL     1      -0.056  10.729  19.587  0.00  0.00    +0.000 OA
BRANCH  18  19
ATOM     19  C   UNL     1       0.490  11.923  20.131  0.00  0.00    +0.000 C 
ATOM     20  F   UNL     1       1.793  12.127  19.845  0.00  0.00    +0.000 F 
ATOM     21  F   UNL     1      -0.221  12.978  19.677  0.00  0.00    +0.000 F 
ATOM     22  F   UNL     1       0.366  11.879  21.476  0.00  0.00    +0.000 F 
ENDBRANCH  18  19
ENDBRANCH  15  18
ENDBRANCH   3  12
BRANCH   9  23
ATOM     23  O   UNL     1       7.987   5.586  14.981  0.00  0.00    +0.000 OA
ATOM     24  H   UNL     1       7.371   5.907  14.300  0.00  0.00    +0.000 HD
ENDBRANCH   9  23
BRANCH  10  25
ATOM     25  O   UNL     1       5.899   3.566  14.404  0.00  0.00    +0.000 OA
BRANCH  25  26
ATOM     26  C   UNL     1       4.931   3.739  13.355  0.00  0.00    +0.000 C 
BRANCH  26  27
ATOM     27  C   UNL     1       5.424   3.304  11.974  0.00  0.00    +0.000 C 
ATOM     28  F   UNL     1       5.564   1.970  11.849  0.00  0.00    +0.000 F 
ATOM     29  F   UNL     1       4.559   3.716  11.014  0.00  0.00    +0.000 F 
ATOM     30  F   UNL     1       6.622   3.872  11.694  0.00  0.00    +0.000 F 
ENDBRANCH  26  27
ENDBRANCH  25  26
ENDBRANCH  10  25
TORSDOF 7
ENDMDL
MODEL 9
REMARK VINA RESULT:      -8.2      1.103      1.495
REMARK  Name = 
REMARK  7 active torsions:
REMARK  status: ('A' for Active; 'I' for Inactive)
REMARK    1  A    between atoms: N_3  and  C_4
REMARK    2  A    between atoms: C_7  and  O_8
REMARK    3  A    between atoms: O_8  and  C_9
REMARK    4  A    between atoms: C_20  and  O_21
REMARK    5  A    between atoms: C_22  and  O_23
REMARK    6  A    between atoms: O_23  and  C_24
REMARK    7  A    between atoms: C_24  and  C_25
REMARK                            x       y       z     vdW  Elec       q    Type
REMARK                         _______ _______ _______ _____ _____    ______ ____
ROOT
ATOM      1  O   UNL     1       4.337   6.897  17.259  0.00  0.00    +0.000 OA
ATOM      2  C   UNL     1       3.696   6.168  18.000  0.00  0.00    +0.000 C 
ATOM      3  N   UNL     1       2.648   6.512  18.857  0.00  0.00    +0.000 N 
ATOM      4  C   UNL     1       2.185   5.374  19.615  0.00  0.00    +0.000 C 
ATOM      5  C   UNL     1       2.669   4.188  18.802  0.00  0.00    +0.000 C 
ATOM      6  C   UNL     1       3.992   4.680  18.188  0.00  0.00    +0.000 C 
ATOM      7  C   UNL     1       5.167   4.461  19.151  0.00  0.00    +0.000 C 
ATOM      8  C   UNL     1       6.505   4.855  18.534  0.00  0.00    +0.000 C 
ATOM      9  C   UNL     1       6.755   4.177  17.184  0.00  0.00    +0.000 C 
ATOM     10  C   UNL     1       5.588   4.369  16.186  0.00  0.00    +0.000 C 
ATOM     11  C   UNL     1       4.242   4.016  16.838  0.00  0.00    +0.000 C 
ENDROOT
BRANCH   3  12
ATOM     12  C   UNL     1       2.071   7.793  18.966  0.00  0.00    +0.000 A 
ATOM     13  C   UNL     1       1.924   8.622  17.852  0.00  0.00    +0.000 A 
ATOM     14  C   UNL     1       1.299   9.866  17.965  0.00  0.00    +0.000 A 
ATOM     15  C   UNL     1       0.825  10.314  19.198  0.00  0.00    +0.000 A 
ATOM     16  C   UNL     1       1.031   9.530  20.327  0.00  0.00    +0.000 A 
ATOM     17  C   UNL     1       1.615   8.261  20.207  0.00  0.00    +0.000 A 
BRANCH  15  18
ATOM     18  O   UNL     1       0.248  11.546  19.178  0.00  0.00    +0.000 OA
BRANCH  18  19
ATOM     19  C   UNL     1       0.929  12.645  19.768  0.00  0.00    +0.000 C 
ATOM     20  F   UNL     1       0.816  12.720  21.110  0.00  0.00    +0.000 F 
ATOM     21  F   UNL     1       2.239  12.572  19.449  0.00  0.00    +0.000 F 
ATOM     22  F   UNL     1       0.431  13.789  19.249  0.00  0.00    +0.000 F 
ENDBRANCH  18  19
ENDBRANCH  15  18
ENDBRANCH   3  12
BRANCH   9  23
ATOM     23  O   UNL     1       7.976   4.704  16.653  0.00  0.00    +0.000 OA
ATOM     24  H   UNL     1       7.826   5.638  16.426  0.00  0.00    +0.000 HD
ENDBRANCH   9  23
BRANCH  10  25
ATOM     25  O   UNL     1       5.794   3.511  15.045  0.00  0.00    +0.000 OA
BRANCH  25  26
ATOM     26  C   UNL     1       6.442   4.165  13.940  0.00  0.00    +0.000 C 
BRANCH  26  27
ATOM     27  C   UNL     1       6.022   3.633  12.569  0.00  0.00    +0.000 C 
ATOM     28  F   UNL     1       6.618   4.270  11.541  0.00  0.00    +0.000 F 
ATOM     29  F   UNL     1       6.326   2.315  12.462  0.00  0.00    +0.000 F 
ATOM     30  F   UNL     1       4.683   3.743  12.402  0.00  0.00    +0.000 F 
ENDBRANCH  26  27
ENDBRANCH  25  26
ENDBRANCH  10  25
TORSDOF 7
ENDMDL
