MODEL 1
REMARK VINA RESULT:      -8.3      0.000      0.000
REMARK  Name = 
REMARK  8 active torsions:
REMARK  status: ('A' for Active; 'I' for Inactive)
REMARK    1  A    between atoms: C_2  and  C_3
REMARK    2  A    between atoms: C_3  and  N_4
REMARK    3  A    between atoms: C_5  and  C_7
REMARK    4  A    between atoms: C_11  and  C_12
REMARK    5  A    between atoms: N_17  and  C_18
REMARK    6  A    between atoms: N_21  and  C_22
REMARK    7  A    between atoms: C_25  and  O_26
REMARK    8  A    between atoms: C_25  and  C_27
REMARK                            x       y       z     vdW  Elec       q    Type
REMARK                         _______ _______ _______ _____ _____    ______ ____
ROOT
ATOM      1  O   UNL     1       1.346   2.638  18.711  0.00  0.00    +0.000 OA
ATOM      2  C   UNL     1       2.497   3.060  18.796  0.00  0.00    +0.000 C 
ATOM      3  N   UNL     1       2.809   4.374  19.084  0.00  0.00    +0.000 N 
ATOM      4  H   UNL     1       3.710   4.689  18.725  0.00  0.00    +0.000 HD
ENDROOT
BRANCH   3   5
ATOM      5  C   UNL     1       1.765   5.366  19.307  0.00  0.00    +0.000 C 
ATOM      6  C   UNL     1       1.817   6.471  18.259  0.00  0.00    +0.000 C 
ATOM      7  C   UNL     1       2.443   7.652  18.981  0.00  0.00    +0.000 C 
ATOM      8  N   UNL     1       2.017   7.554  20.382  0.00  0.00    +0.000 NA
ATOM      9  C   UNL     1       1.904   6.107  20.657  0.00  0.00    +0.000 C 
BRANCH   8  10
ATOM     10  C   UNL     1       0.846   8.380  20.732  0.00  0.00    +0.000 C 
ATOM     11  C   UNL     1       0.799   8.842  22.199  0.00  0.00    +0.000 C 
ATOM     12  C   UNL     1      -0.312   9.841  22.501  0.00  0.00    +0.000 C 
ATOM     13  C   UNL     1      -0.332  11.036  21.535  0.00  0.00    +0.000 C 
ATOM     14  C   UNL     1      -0.441  10.506  20.091  0.00  0.00    +0.000 C 
ATOM     15  C   UNL     1       0.692   9.543  19.726  0.00  0.00    +0.000 C 
BRANCH  13  16
ATOM     16  C   UNL     1      -1.502  11.957  21.916  0.00  0.00    +0.000 A 
ATOM     17  N   UNL     1      -1.836  12.937  21.042  0.00  0.00    +0.000 NA
ATOM     18  C   UNL     1      -2.867  13.730  21.379  0.00  0.00    +0.000 A 
ATOM     19  C   UNL     1      -3.565  13.604  22.554  0.00  0.00    +0.000 A 
ATOM     20  C   UNL     1      -3.144  12.598  23.387  0.00  0.00    +0.000 A 
ATOM     21  N   UNL     1      -2.121  11.772  23.101  0.00  0.00    +0.000 NA
ENDBRANCH  13  16
BRANCH  13  22
ATOM     22  O   UNL     1       0.891  11.785  21.659  0.00  0.00    +0.000 OA
ATOM     23  H   UNL     1       0.755  12.683  21.317  0.00  0.00    +0.000 HD
ENDBRANCH  13  22
ENDBRANCH   8  10
ENDBRANCH   3   5
BRANCH   2  24
ATOM     24  C   UNL     1       3.721   2.186  18.514  0.00  0.00    +0.000 C 
BRANCH  24  25
ATOM     25  N   UNL     1       4.410   2.640  17.321  0.00  0.00    +0.000 N 
ATOM     26  C   UNL     1       5.356   3.636  17.389  0.00  0.00    +0.000 C 
ATOM     27  O   UNL     1       5.661   4.190  18.440  0.00  0.00    +0.000 OA
ATOM     28  H   UNL     1       4.178   2.192  16.445  0.00  0.00    +0.000 HD
BRANCH  26  29
ATOM     29  C   UNL     1       6.017   4.026  16.114  0.00  0.00    +0.000 A 
ATOM     30  C   UNL     1       7.025   4.995  16.158  0.00  0.00    +0.000 A 
ATOM     31  C   UNL     1       7.631   5.434  14.980  0.00  0.00    +0.000 A 
ATOM     32  C   UNL     1       7.222   4.917  13.750  0.00  0.00    +0.000 A 
ATOM     33  C   UNL     1       6.206   3.951  13.684  0.00  0.00    +0.000 A 
ATOM     34  C   UNL     1       5.612   3.500  14.879  0.00  0.00    +0.000 A 
BRANCH  33  35
ATOM     35  C   UNL     1       5.728   3.416  12.356  0.00  0.00    +0.000 C 
ATOM     36  F   UNL     1       5.894   2.073  12.215  0.00  0.00    +0.000 F 
ATOM     37  F   UNL     1       4.404   3.655  12.148  0.00  0.00    +0.000 F 
ATOM     38  F   UNL     1       6.381   3.985  11.305  0.00  0.00    +0.000 F 
ENDBRANCH  33  35
ENDBRANCH  26  29
ENDBRANCH  24  25
ENDBRANCH   2  24
TORSDOF 8
ENDMDL
MODEL 2
REMARK VINA RESULT:      -8.1      4.446      6.513
REMARK  Name = 
REMARK  8 active torsions:
REMARK  status: ('A' for Active; 'I' for Inactive)
REMARK    1  A    between atoms: C_2  and  C_3
REMARK    2  A    between atoms: C_3  and  N_4
REMARK    3  A    between atoms: C_5  and  C_7
REMARK    4  A    between atoms: C_11  and  C_12
REMARK    5  A    between atoms: N_17  and  C_18
REMARK    6  A    between atoms: N_21  and  C_22
REMARK    7  A    between atoms: C_25  and  O_26
REMARK    8  A    between atoms: C_25  and  C_27
REMARK                            x       y       z     vdW  Elec       q    Type
REMARK                         _______ _______ _______ _____ _____    ______ ____
ROOT
ATOM      1  O   UNL     1       0.063   9.616  17.754  0.00  0.00    +0.000 OA
ATOM      2  C   UNL     1       1.157   9.894  18.240  0.00  0.00    +0.000 C 
ATOM      3  N   UNL     1       1.325  10.770  19.294  0.00  0.00    +0.000 N 
ATOM      4  H   UNL     1       2.234  11.231  19.328  0.00  0.00    +0.000 HD
ENDROOT
BRANCH   3   5
ATOM      5  C   UNL     1       0.184  11.437  19.909  0.00  0.00    +0.000 C 
ATOM      6  C   UNL     1       0.265  12.949  19.733  0.00  0.00    +0.000 C 
ATOM      7  C   UNL     1       0.706  13.467  21.091  0.00  0.00    +0.000 C 
ATOM      8  N   UNL     1       0.132  12.555  22.089  0.00  0.00    +0.000 NA
ATOM      9  C   UNL     1       0.107  11.229  21.439  0.00  0.00    +0.000 C 
BRANCH   8  10
ATOM     10  C   UNL     1      -1.135  13.015  22.689  0.00  0.00    +0.000 C 
ATOM     11  C   UNL     1      -1.897  14.064  21.860  0.00  0.00    +0.000 C 
ATOM     12  C   UNL     1      -3.285  14.392  22.397  0.00  0.00    +0.000 C 
ATOM     13  C   UNL     1      -4.147  13.146  22.655  0.00  0.00    +0.000 C 
ATOM     14  C   UNL     1      -3.388  12.208  23.616  0.00  0.00    +0.000 C 
ATOM     15  C   UNL     1      -2.010  11.804  23.085  0.00  0.00    +0.000 C 
BRANCH  13  16
ATOM     16  C   UNL     1      -5.505  13.594  23.217  0.00  0.00    +0.000 A 
ATOM     17  N   UNL     1      -6.379  12.627  23.585  0.00  0.00    +0.000 NA
ATOM     18  C   UNL     1      -7.559  13.029  24.085  0.00  0.00    +0.000 A 
ATOM     19  C   UNL     1      -7.915  14.348  24.216  0.00  0.00    +0.000 A 
ATOM     20  C   UNL     1      -6.977  15.258  23.799  0.00  0.00    +0.000 A 
ATOM     21  N   UNL     1      -5.777  14.914  23.293  0.00  0.00    +0.000 NA
ENDBRANCH  13  16
BRANCH  13  22
ATOM     22  O   UNL     1      -4.378  12.447  21.418  0.00  0.00    +0.000 OA
ATOM     23  H   UNL     1      -5.155  11.874  21.512  0.00  0.00    +0.000 HD
ENDBRANCH  13  22
ENDBRANCH   8  10
ENDBRANCH   3   5
BRANCH   2  24
ATOM     24  C   UNL     1       2.473   9.356  17.674  0.00  0.00    +0.000 C 
BRANCH  24  25
ATOM     25  N   UNL     1       2.527   7.911  17.787  0.00  0.00    +0.000 N 
ATOM     26  C   UNL     1       2.394   7.294  19.009  0.00  0.00    +0.000 C 
ATOM     27  O   UNL     1       2.232   7.918  20.053  0.00  0.00    +0.000 OA
ATOM     28  H   UNL     1       2.653   7.376  16.938  0.00  0.00    +0.000 HD
BRANCH  26  29
ATOM     29  C   UNL     1       2.452   5.807  19.023  0.00  0.00    +0.000 A 
ATOM     30  C   UNL     1       2.465   5.131  17.799  0.00  0.00    +0.000 A 
ATOM     31  C   UNL     1       2.460   3.736  17.764  0.00  0.00    +0.000 A 
ATOM     32  C   UNL     1       2.425   3.009  18.954  0.00  0.00    +0.000 A 
ATOM     33  C   UNL     1       2.401   3.668  20.193  0.00  0.00    +0.000 A 
ATOM     34  C   UNL     1       2.426   5.076  20.220  0.00  0.00    +0.000 A 
BRANCH  33  35
ATOM     35  C   UNL     1       2.322   2.891  21.485  0.00  0.00    +0.000 C 
ATOM     36  F   UNL     1       1.176   2.170  21.622  0.00  0.00    +0.000 F 
ATOM     37  F   UNL     1       3.344   2.000  21.616  0.00  0.00    +0.000 F 
ATOM     38  F   UNL     1       2.388   3.699  22.579  0.00  0.00    +0.000 F 
ENDBRANCH  33  35
ENDBRANCH  26  29
ENDBRANCH  24  25
ENDBRANCH   2  24
TORSDOF 8
ENDMDL
MODEL 3
REMARK VINA RESULT:      -8.1      5.929     12.314
REMARK  Name = 
REMARK  8 active torsions:
REMARK  status: ('A' for Active; 'I' for Inactive)
REMARK    1  A    between atoms: C_2  and  C_3
REMARK    2  A    between atoms: C_3  and  N_4
REMARK    3  A    between atoms: C_5  and  C_7
REMARK    4  A    between atoms: C_11  and  C_12
REMARK    5  A    between atoms: N_17  and  C_18
REMARK    6  A    between atoms: N_21  and  C_22
REMARK    7  A    between atoms: C_25  and  O_26
REMARK    8  A    between atoms: C_25  and  C_27
REMARK                            x       y       z     vdW  Elec       q    Type
REMARK                         _______ _______ _______ _____ _____    ______ ____
ROOT
ATOM      1  O   UNL     1       1.345   9.494  20.341  0.00  0.00    +0.000 OA
ATOM      2  C   UNL     1       1.142   8.717  21.271  0.00  0.00    +0.000 C 
ATOM      3  N   UNL     1       1.282   7.348  21.166  0.00  0.00    +0.000 N 
ATOM      4  H   UNL     1       0.710   6.807  21.815  0.00  0.00    +0.000 HD
ENDROOT
BRANCH   3   5
ATOM      5  C   UNL     1       1.687   6.724  19.913  0.00  0.00    +0.000 C 
ATOM      6  C   UNL     1       1.738   5.207  20.039  0.00  0.00    +0.000 C 
ATOM      7  C   UNL     1       3.219   4.883  20.137  0.00  0.00    +0.000 C 
ATOM      8  N   UNL     1       3.918   5.893  19.335  0.00  0.00    +0.000 NA
ATOM      9  C   UNL     1       3.112   7.123  19.465  0.00  0.00    +0.000 C 
BRANCH   8  10
ATOM     10  C   UNL     1       4.251   5.469  17.961  0.00  0.00    +0.000 C 
ATOM     11  C   UNL     1       4.514   6.623  16.978  0.00  0.00    +0.000 C 
ATOM     12  C   UNL     1       5.033   6.174  15.616  0.00  0.00    +0.000 C 
ATOM     13  C   UNL     1       6.241   5.229  15.710  0.00  0.00    +0.000 C 
ATOM     14  C   UNL     1       5.858   4.018  16.585  0.00  0.00    +0.000 C 
ATOM     15  C   UNL     1       5.388   4.422  17.984  0.00  0.00    +0.000 C 
BRANCH  13  16
ATOM     16  C   UNL     1       6.659   4.822  14.288  0.00  0.00    +0.000 A 
ATOM     17  N   UNL     1       7.664   5.521  13.708  0.00  0.00    +0.000 NA
ATOM     18  C   UNL     1       8.030   5.150  12.469  0.00  0.00    +0.000 A 
ATOM     19  C   UNL     1       7.427   4.130  11.776  0.00  0.00    +0.000 A 
ATOM     20  C   UNL     1       6.406   3.492  12.434  0.00  0.00    +0.000 A 
ATOM     21  N   UNL     1       5.998   3.817  13.675  0.00  0.00    +0.000 NA
ENDBRANCH  13  16
BRANCH  13  22
ATOM     22  O   UNL     1       7.348   5.911  16.328  0.00  0.00    +0.000 OA
ATOM     23  H   UNL     1       7.327   5.758  17.285  0.00  0.00    +0.000 HD
ENDBRANCH  13  22
ENDBRANCH   8  10
ENDBRANCH   3   5
BRANCH   2  24
ATOM     24  C   UNL     1       0.632   9.179  22.638  0.00  0.00    +0.000 C 
BRANCH  24  25
ATOM     25  N   UNL     1      -0.610   9.916  22.499  0.00  0.00    +0.000 N 
ATOM     26  C   UNL     1      -0.603  11.258  22.200  0.00  0.00    +0.000 C 
ATOM     27  O   UNL     1       0.432  11.897  22.042  0.00  0.00    +0.000 OA
ATOM     28  H   UNL     1      -1.475   9.407  22.619  0.00  0.00    +0.000 HD
BRANCH  26  29
ATOM     29  C   UNL     1      -1.927  11.926  22.067  0.00  0.00    +0.000 A 
ATOM     30  C   UNL     1      -2.260  12.502  20.837  0.00  0.00    +0.000 A 
ATOM     31  C   UNL     1      -3.465  13.188  20.684  0.00  0.00    +0.000 A 
ATOM     32  C   UNL     1      -4.337  13.316  21.766  0.00  0.00    +0.000 A 
ATOM     33  C   UNL     1      -4.017  12.754  23.011  0.00  0.00    +0.000 A 
ATOM     34  C   UNL     1      -2.807  12.046  23.152  0.00  0.00    +0.000 A 
BRANCH  33  35
ATOM     35  C   UNL     1      -4.935  12.922  24.198  0.00  0.00    +0.000 C 
ATOM     36  F   UNL     1      -5.062  14.212  24.614  0.00  0.00    +0.000 F 
ATOM     37  F   UNL     1      -6.198  12.484  23.941  0.00  0.00    +0.000 F 
ATOM     38  F   UNL     1      -4.508  12.220  25.284  0.00  0.00    +0.000 F 
ENDBRANCH  33  35
ENDBRANCH  26  29
ENDBRANCH  24  25
ENDBRANCH   2  24
TORSDOF 8
ENDMDL
MODEL 4
REMARK VINA RESULT:      -8.1      5.817     12.119
REMARK  Name = 
REMARK  8 active torsions:
REMARK  status: ('A' for Active; 'I' for Inactive)
REMARK    1  A    between atoms: C_2  and  C_3
REMARK    2  A    between atoms: C_3  and  N_4
REMARK    3  A    between atoms: C_5  and  C_7
REMARK    4  A    between atoms: C_11  and  C_12
REMARK    5  A    between atoms: N_17  and  C_18
REMARK    6  A    between atoms: N_21  and  C_22
REMARK    7  A    between atoms: C_25  and  O_26
REMARK    8  A    between atoms: C_25  and  C_27
REMARK                            x       y       z     vdW  Elec       q    Type
REMARK                         _______ _______ _______ _____ _____    ______ ____
ROOT
ATOM      1  O   UNL     1       1.225   8.963  19.913  0.00  0.00    +0.000 OA
ATOM      2  C   UNL     1       1.328   8.321  20.955  0.00  0.00    +0.000 C 
ATOM      3  N   UNL     1       1.850   7.045  21.017  0.00  0.00    +0.000 N 
ATOM      4  H   UNL     1       1.511   6.479  21.796  0.00  0.00    +0.000 HD
ENDROOT
BRANCH   3   5
ATOM      5  C   UNL     1       2.322   6.363  19.818  0.00  0.00    +0.000 C 
ATOM      6  C   UNL     1       1.903   4.898  19.812  0.00  0.00    +0.000 C 
ATOM      7  C   UNL     1       3.169   4.140  20.175  0.00  0.00    +0.000 C 
ATOM      8  N   UNL     1       4.288   4.914  19.625  0.00  0.00    +0.000 NA
ATOM      9  C   UNL     1       3.862   6.326  19.703  0.00  0.00    +0.000 C 
BRANCH   8  10
ATOM     10  C   UNL     1       4.776   4.448  18.312  0.00  0.00    +0.000 C 
ATOM     11  C   UNL     1       3.831   4.742  17.134  0.00  0.00    +0.000 C 
ATOM     12  C   UNL     1       4.425   4.422  15.766  0.00  0.00    +0.000 C 
ATOM     13  C   UNL     1       5.811   5.048  15.546  0.00  0.00    +0.000 C 
ATOM     14  C   UNL     1       6.750   4.588  16.679  0.00  0.00    +0.000 C 
ATOM     15  C   UNL     1       6.219   4.944  18.070  0.00  0.00    +0.000 C 
BRANCH  13  16
ATOM     16  C   UNL     1       6.320   4.639  14.155  0.00  0.00    +0.000 A 
ATOM     17  N   UNL     1       5.660   3.645  13.514  0.00  0.00    +0.000 NA
ATOM     18  C   UNL     1       6.106   3.303  12.294  0.00  0.00    +0.000 A 
ATOM     19  C   UNL     1       7.191   3.892  11.692  0.00  0.00    +0.000 A 
ATOM     20  C   UNL     1       7.810   4.875  12.423  0.00  0.00    +0.000 A 
ATOM     21  N   UNL     1       7.406   5.261  13.648  0.00  0.00    +0.000 NA
ENDBRANCH  13  16
BRANCH  13  22
ATOM     22  O   UNL     1       5.711   6.484  15.586  0.00  0.00    +0.000 OA
ATOM     23  H   UNL     1       6.068   6.809  16.427  0.00  0.00    +0.000 HD
ENDBRANCH  13  22
ENDBRANCH   8  10
ENDBRANCH   3   5
BRANCH   2  24
ATOM     24  C   UNL     1       0.812   8.839  22.300  0.00  0.00    +0.000 C 
BRANCH  24  25
ATOM     25  N   UNL     1      -0.402   9.612  22.119  0.00  0.00    +0.000 N 
ATOM     26  C   UNL     1      -0.350  10.977  21.959  0.00  0.00    +0.000 C 
ATOM     27  O   UNL     1       0.703  11.606  21.965  0.00  0.00    +0.000 OA
ATOM     28  H   UNL     1      -1.281   9.113  22.105  0.00  0.00    +0.000 HD
BRANCH  26  29
ATOM     29  C   UNL     1      -1.647  11.683  21.770  0.00  0.00    +0.000 A 
ATOM     30  C   UNL     1      -1.969  12.150  20.490  0.00  0.00    +0.000 A 
ATOM     31  C   UNL     1      -3.146  12.868  20.279  0.00  0.00    +0.000 A 
ATOM     32  C   UNL     1      -4.001  13.137  21.348  0.00  0.00    +0.000 A 
ATOM     33  C   UNL     1      -3.691  12.686  22.640  0.00  0.00    +0.000 A 
ATOM     34  C   UNL     1      -2.510  11.946  22.842  0.00  0.00    +0.000 A 
BRANCH  33  35
ATOM     35  C   UNL     1      -4.589  13.007  23.811  0.00  0.00    +0.000 C 
ATOM     36  F   UNL     1      -4.314  12.280  24.928  0.00  0.00    +0.000 F 
ATOM     37  F   UNL     1      -4.506  14.314  24.183  0.00  0.00    +0.000 F 
ATOM     38  F   UNL     1      -5.902  12.780  23.532  0.00  0.00    +0.000 F 
ENDBRANCH  33  35
ENDBRANCH  26  29
ENDBRANCH  24  25
ENDBRANCH   2  24
TORSDOF 8
ENDMDL
MODEL 5
REMARK VINA RESULT:      -8.0      1.094      1.627
REMARK  Name = 
REMARK  8 active torsions:
REMARK  status: ('A' for Active; 'I' for Inactive)
REMARK    1  A    between atoms: C_2  and  C_3
REMARK    2  A    between atoms: C_3  and  N_4
REMARK    3  A    between atoms: C_5  and  C_7
REMARK    4  A    between atoms: C_11  and  C_12
REMARK    5  A    between atoms: N_17  and  C_18
REMARK    6  A    between atoms: N_21  and  C_22
REMARK    7  A    between atoms: C_25  and  O_26
REMARK    8  A    between atoms: C_25  and  C_27
REMARK                            x       y       z     vdW  Elec       q    Type
REMARK                         _______ _______ _______ _____ _____    ______ ____
ROOT
ATOM      1  O   UNL     1       2.034   3.928  17.728  0.00  0.00    +0.000 OA
ATOM      2  C   UNL     1       3.063   4.317  18.276  0.00  0.00    +0.000 C 
ATOM      3  N   UNL     1       3.124   5.438  19.079  0.00  0.00    +0.000 N 
ATOM      4  H   UNL     1       4.039   5.886  19.122  0.00  0.00    +0.000 HD
ENDROOT
BRANCH   3   5
ATOM      5  C   UNL     1       1.941   6.250  19.331  0.00  0.00    +0.000 C 
ATOM      6  C   UNL     1       1.775   7.332  18.271  0.00  0.00    +0.000 C 
ATOM      7  C   UNL     1       2.225   8.610  18.958  0.00  0.00    +0.000 C 
ATOM      8  N   UNL     1       1.871   8.466  20.375  0.00  0.00    +0.000 NA
ATOM      9  C   UNL     1       2.005   7.025  20.667  0.00  0.00    +0.000 C 
BRANCH   8  10
ATOM     10  C   UNL     1       0.593   9.097  20.760  0.00  0.00    +0.000 C 
ATOM     11  C   UNL     1       0.463   9.423  22.258  0.00  0.00    +0.000 C 
ATOM     12  C   UNL     1      -0.777  10.237  22.611  0.00  0.00    +0.000 C 
ATOM     13  C   UNL     1      -0.945  11.495  21.745  0.00  0.00    +0.000 C 
ATOM     14  C   UNL     1      -0.959  11.078  20.261  0.00  0.00    +0.000 C 
ATOM     15  C   UNL     1       0.299  10.309  19.848  0.00  0.00    +0.000 C 
BRANCH  13  16
ATOM     16  C   UNL     1      -2.233  12.217  22.169  0.00  0.00    +0.000 A 
ATOM     17  N   UNL     1      -2.685  12.003  23.428  0.00  0.00    +0.000 NA
ATOM     18  C   UNL     1      -3.806  12.647  23.792  0.00  0.00    +0.000 A 
ATOM     19  C   UNL     1      -4.507  13.478  22.954  0.00  0.00    +0.000 A 
ATOM     20  C   UNL     1      -3.988  13.619  21.692  0.00  0.00    +0.000 A 
ATOM     21  N   UNL     1      -2.868  13.002  21.272  0.00  0.00    +0.000 NA
ENDBRANCH  13  16
BRANCH  13  22
ATOM     22  O   UNL     1       0.164  12.388  21.961  0.00  0.00    +0.000 OA
ATOM     23  H   UNL     1       0.825  12.256  21.263  0.00  0.00    +0.000 HD
ENDBRANCH  13  22
ENDBRANCH   8  10
ENDBRANCH   3   5
BRANCH   2  24
ATOM     24  C   UNL     1       4.419   3.640  18.062  0.00  0.00    +0.000 C 
BRANCH  24  25
ATOM     25  N   UNL     1       4.797   3.679  16.662  0.00  0.00    +0.000 N 
ATOM     26  C   UNL     1       5.970   4.277  16.265  0.00  0.00    +0.000 C 
ATOM     27  O   UNL     1       6.745   4.806  17.056  0.00  0.00    +0.000 OA
ATOM     28  H   UNL     1       4.175   3.244  15.995  0.00  0.00    +0.000 HD
BRANCH  26  29
ATOM     29  C   UNL     1       6.277   4.258  14.810  0.00  0.00    +0.000 A 
ATOM     30  C   UNL     1       7.426   4.921  14.364  0.00  0.00    +0.000 A 
ATOM     31  C   UNL     1       7.722   4.978  13.002  0.00  0.00    +0.000 A 
ATOM     32  C   UNL     1       6.862   4.387  12.075  0.00  0.00    +0.000 A 
ATOM     33  C   UNL     1       5.700   3.726  12.501  0.00  0.00    +0.000 A 
ATOM     34  C   UNL     1       5.418   3.656  13.880  0.00  0.00    +0.000 A 
BRANCH  33  35
ATOM     35  C   UNL     1       4.742   3.119  11.504  0.00  0.00    +0.000 C 
ATOM     36  F   UNL     1       4.500   3.911  10.424  0.00  0.00    +0.000 F 
ATOM     37  F   UNL     1       5.195   1.935  11.007  0.00  0.00    +0.000 F 
ATOM     38  F   UNL     1       3.525   2.854  12.053  0.00  0.00    +0.000 F 
ENDBRANCH  33  35
ENDBRANCH  26  29
ENDBRANCH  24  25
ENDBRANCH   2  24
TORSDOF 8
ENDMDL
MODEL 6
REMARK VINA RESULT:      -8.0      5.989     12.407
REMARK  Name = 
REMARK  8 active torsions:
REMARK  status: ('A' for Active; 'I' for Inactive)
REMARK    1  A    between atoms: C_2  and  C_3
REMARK    2  A    between atoms: C_3  and  N_4
REMARK    3  A    between atoms: C_5  and  C_7
REMARK    4  A    between atoms: C_11  and  C_12
REMARK    5  A    between atoms: N_17  and  C_18
REMARK    6  A    between atoms: N_21  and  C_22
REMARK    7  A    between atoms: C_25  and  O_26
REMARK    8  A    between atoms: C_25  and  C_27
REMARK                            x       y       z     vdW  Elec       q    Type
REMARK                         _______ _______ _______ _____ _____    ______ ____
ROOT
ATOM      1  O   UNL     1       1.264   9.631  20.296  0.00  0.00    +0.000 OA
ATOM      2  C   UNL     1       1.096   8.852  21.231  0.00  0.00    +0.000 C 
ATOM      3  N   UNL     1       1.259   7.485  21.125  0.00  0.00    +0.000 N 
ATOM      4  H   UNL     1       0.712   6.934  21.786  0.00  0.00    +0.000 HD
ENDROOT
BRANCH   3   5
ATOM      5  C   UNL     1       1.649   6.867  19.863  0.00  0.00    +0.000 C 
ATOM      6  C   UNL     1       1.721   5.350  19.987  0.00  0.00    +0.000 C 
ATOM      7  C   UNL     1       3.208   5.045  20.058  0.00  0.00    +0.000 C 
ATOM      8  N   UNL     1       3.880   6.065  19.244  0.00  0.00    +0.000 NA
ATOM      9  C   UNL     1       3.060   7.285  19.390  0.00  0.00    +0.000 C 
BRANCH   8  10
ATOM     10  C   UNL     1       4.193   5.646  17.864  0.00  0.00    +0.000 C 
ATOM     11  C   UNL     1       4.685   6.778  16.945  0.00  0.00    +0.000 C 
ATOM     12  C   UNL     1       5.177   6.302  15.582  0.00  0.00    +0.000 C 
ATOM     13  C   UNL     1       6.205   5.164  15.672  0.00  0.00    +0.000 C 
ATOM     14  C   UNL     1       5.590   4.001  16.476  0.00  0.00    +0.000 C 
ATOM     15  C   UNL     1       5.137   4.423  17.876  0.00  0.00    +0.000 C 
BRANCH  13  16
ATOM     16  C   UNL     1       6.607   4.750  14.248  0.00  0.00    +0.000 A 
ATOM     17  N   UNL     1       5.946   3.708  13.689  0.00  0.00    +0.000 NA
ATOM     18  C   UNL     1       6.298   3.361  12.440  0.00  0.00    +0.000 A 
ATOM     19  C   UNL     1       7.290   3.991  11.731  0.00  0.00    +0.000 A 
ATOM     20  C   UNL     1       7.918   5.022  12.382  0.00  0.00    +0.000 A 
ATOM     21  N   UNL     1       7.607   5.415  13.632  0.00  0.00    +0.000 NA
ENDBRANCH  13  16
BRANCH  13  22
ATOM     22  O   UNL     1       7.385   5.624  16.358  0.00  0.00    +0.000 OA
ATOM     23  H   UNL     1       7.849   4.865  16.745  0.00  0.00    +0.000 HD
ENDBRANCH  13  22
ENDBRANCH   8  10
ENDBRANCH   3   5
BRANCH   2  24
ATOM     24  C   UNL     1       0.606   9.306  22.608  0.00  0.00    +0.000 C 
BRANCH  24  25
ATOM     25  N   UNL     1      -0.655  10.014  22.496  0.00  0.00    +0.000 N 
ATOM     26  C   UNL     1      -0.684  11.373  22.288  0.00  0.00    +0.000 C 
ATOM     27  O   UNL     1       0.335  12.051  22.194  0.00  0.00    +0.000 OA
ATOM     28  H   UNL     1      -1.506   9.473  22.565  0.00  0.00    +0.000 HD
BRANCH  26  29
ATOM     29  C   UNL     1      -2.024  12.009  22.176  0.00  0.00    +0.000 A 
ATOM     30  C   UNL     1      -2.382  12.593  20.955  0.00  0.00    +0.000 A 
ATOM     31  C   UNL     1      -3.605  13.251  20.822  0.00  0.00    +0.000 A 
ATOM     32  C   UNL     1      -4.470  13.344  21.913  0.00  0.00    +0.000 A 
ATOM     33  C   UNL     1      -4.125  12.774  23.148  0.00  0.00    +0.000 A 
ATOM     34  C   UNL     1      -2.897  12.094  23.269  0.00  0.00    +0.000 A 
BRANCH  33  35
ATOM     35  C   UNL     1      -5.036  12.904  24.345  0.00  0.00    +0.000 C 
ATOM     36  F   UNL     1      -6.166  12.150  24.258  0.00  0.00    +0.000 F 
ATOM     37  F   UNL     1      -4.424  12.533  25.503  0.00  0.00    +0.000 F 
ATOM     38  F   UNL     1      -5.457  14.185  24.537  0.00  0.00    +0.000 F 
ENDBRANCH  33  35
ENDBRANCH  26  29
ENDBRANCH  24  25
ENDBRANCH   2  24
TORSDOF 8
ENDMDL
MODEL 7
REMARK VINA RESULT:      -8.0      2.460      3.056
REMARK  Name = 
REMARK  8 active torsions:
REMARK  status: ('A' for Active; 'I' for Inactive)
REMARK    1  A    between atoms: C_2  and  C_3
REMARK    2  A    between atoms: C_3  and  N_4
REMARK    3  A    between atoms: C_5  and  C_7
REMARK    4  A    between atoms: C_11  and  C_12
REMARK    5  A    between atoms: N_17  and  C_18
REMARK    6  A    between atoms: N_21  and  C_22
REMARK    7  A    between atoms: C_25  and  O_26
REMARK    8  A    between atoms: C_25  and  C_27
REMARK                            x       y       z     vdW  Elec       q    Type
REMARK                         _______ _______ _______ _____ _____    ______ ____
ROOT
ATOM      1  O   UNL     1       2.873   4.850  17.828  0.00  0.00    +0.000 OA
ATOM      2  C   UNL     1       3.744   5.645  18.171  0.00  0.00    +0.000 C 
ATOM      3  N   UNL     1       3.487   6.957  18.515  0.00  0.00    +0.000 N 
ATOM      4  H   UNL     1       4.265   7.600  18.369  0.00  0.00    +0.000 HD
ENDROOT
BRANCH   3   5
ATOM      5  C   UNL     1       2.131   7.492  18.491  0.00  0.00    +0.000 C 
ATOM      6  C   UNL     1       1.968   8.537  17.394  0.00  0.00    +0.000 C 
ATOM      7  C   UNL     1       1.978   9.866  18.130  0.00  0.00    +0.000 C 
ATOM      8  N   UNL     1       1.370   9.618  19.442  0.00  0.00    +0.000 NA
ATOM      9  C   UNL     1       1.743   8.232  19.791  0.00  0.00    +0.000 C 
BRANCH   8  10
ATOM     10  C   UNL     1      -0.065   9.952  19.532  0.00  0.00    +0.000 C 
ATOM     11  C   UNL     1      -0.373  11.275  20.255  0.00  0.00    +0.000 C 
ATOM     12  C   UNL     1      -1.836  11.698  20.181  0.00  0.00    +0.000 C 
ATOM     13  C   UNL     1      -2.396  11.697  18.750  0.00  0.00    +0.000 C 
ATOM     14  C   UNL     1      -2.191  10.296  18.138  0.00  0.00    +0.000 C 
ATOM     15  C   UNL     1      -0.725   9.857  18.138  0.00  0.00    +0.000 C 
BRANCH  13  16
ATOM     16  C   UNL     1      -3.875  12.110  18.798  0.00  0.00    +0.000 A 
ATOM     17  N   UNL     1      -4.656  11.765  17.747  0.00  0.00    +0.000 NA
ATOM     18  C   UNL     1      -5.950  12.121  17.804  0.00  0.00    +0.000 A 
ATOM     19  C   UNL     1      -6.495  12.822  18.851  0.00  0.00    +0.000 A 
ATOM     20  C   UNL     1      -5.626  13.147  19.862  0.00  0.00    +0.000 A 
ATOM     21  N   UNL     1      -4.322  12.815  19.860  0.00  0.00    +0.000 NA
ENDBRANCH  13  16
BRANCH  13  22
ATOM     22  O   UNL     1      -1.685  12.658  17.946  0.00  0.00    +0.000 OA
ATOM     23  H   UNL     1      -1.114  13.195  18.517  0.00  0.00    +0.000 HD
ENDBRANCH  13  22
ENDBRANCH   8  10
ENDBRANCH   3   5
BRANCH   2  24
ATOM     24  C   UNL     1       5.232   5.289  18.178  0.00  0.00    +0.000 C 
BRANCH  24  25
ATOM     25  N   UNL     1       5.646   4.791  16.880  0.00  0.00    +0.000 N 
ATOM     26  C   UNL     1       5.646   5.614  15.777  0.00  0.00    +0.000 C 
ATOM     27  O   UNL     1       5.297   6.789  15.826  0.00  0.00    +0.000 OA
ATOM     28  H   UNL     1       5.943   3.827  16.818  0.00  0.00    +0.000 HD
BRANCH  26  29
ATOM     29  C   UNL     1       6.097   5.016  14.491  0.00  0.00    +0.000 A 
ATOM     30  C   UNL     1       7.400   5.283  14.055  0.00  0.00    +0.000 A 
ATOM     31  C   UNL     1       7.846   4.791  12.828  0.00  0.00    +0.000 A 
ATOM     32  C   UNL     1       6.987   4.044  12.022  0.00  0.00    +0.000 A 
ATOM     33  C   UNL     1       5.674   3.774  12.436  0.00  0.00    +0.000 A 
ATOM     34  C   UNL     1       5.237   4.257  13.685  0.00  0.00    +0.000 A 
BRANCH  33  35
ATOM     35  C   UNL     1       4.724   3.000  11.553  0.00  0.00    +0.000 C 
ATOM     36  F   UNL     1       4.459   3.612  10.366  0.00  0.00    +0.000 F 
ATOM     37  F   UNL     1       5.201   1.764  11.240  0.00  0.00    +0.000 F 
ATOM     38  F   UNL     1       3.516   2.797  12.147  0.00  0.00    +0.000 F 
ENDBRANCH  33  35
ENDBRANCH  26  29
ENDBRANCH  24  25
ENDBRANCH   2  24
TORSDOF 8
ENDMDL
MODEL 8
REMARK VINA RESULT:      -7.9      0.969      1.014
REMARK  Name = 
REMARK  8 active torsions:
REMARK  status: ('A' for Active; 'I' for Inactive)
REMARK    1  A    between atoms: C_2  and  C_3
REMARK    2  A    between atoms: C_3  and  N_4
REMARK    3  A    between atoms: C_5  and  C_7
REMARK    4  A    between atoms: C_11  and  C_12
REMARK    5  A    between atoms: N_17  and  C_18
REMARK    6  A    between atoms: N_21  and  C_22
REMARK    7  A    between atoms: C_25  and  O_26
REMARK    8  A    between atoms: C_25  and  C_27
REMARK                            x       y       z     vdW  Elec       q    Type
REMARK                         _______ _______ _______ _____ _____    ______ ____
ROOT
ATOM      1  O   UNL     1       1.711   2.927  20.725  0.00  0.00    +0.000 OA
ATOM      2  C   UNL     1       2.683   3.286  20.065  0.00  0.00    +0.000 C 
ATOM      3  N   UNL     1       2.796   4.534  19.487  0.00  0.00    +0.000 N 
ATOM      4  H   UNL     1       3.393   4.572  18.661  0.00  0.00    +0.000 HD
ENDROOT
BRANCH   3   5
ATOM      5  C   UNL     1       1.740   5.529  19.627  0.00  0.00    +0.000 C 
ATOM      6  C   UNL     1       1.751   6.517  18.467  0.00  0.00    +0.000 C 
ATOM      7  C   UNL     1       2.371   7.777  19.047  0.00  0.00    +0.000 C 
ATOM      8  N   UNL     1       1.977   7.821  20.460  0.00  0.00    +0.000 NA
ATOM      9  C   UNL     1       1.894   6.410  20.888  0.00  0.00    +0.000 C 
BRANCH   8  10
ATOM     10  C   UNL     1       0.798   8.663  20.746  0.00  0.00    +0.000 C 
ATOM     11  C   UNL     1       0.690   9.144  22.204  0.00  0.00    +0.000 C 
ATOM     12  C   UNL     1      -0.424  10.157  22.443  0.00  0.00    +0.000 C 
ATOM     13  C   UNL     1      -0.390  11.339  21.462  0.00  0.00    +0.000 C 
ATOM     14  C   UNL     1      -0.438  10.791  20.021  0.00  0.00    +0.000 C 
ATOM     15  C   UNL     1       0.701   9.814  19.720  0.00  0.00    +0.000 C 
BRANCH  13  16
ATOM     16  C   UNL     1      -1.566  12.275  21.778  0.00  0.00    +0.000 A 
ATOM     17  N   UNL     1      -2.526  12.416  20.832  0.00  0.00    +0.000 NA
ATOM     18  C   UNL     1      -3.556  13.228  21.123  0.00  0.00    +0.000 A 
ATOM     19  C   UNL     1      -3.663  13.921  22.303  0.00  0.00    +0.000 A 
ATOM     20  C   UNL     1      -2.635  13.734  23.193  0.00  0.00    +0.000 A 
ATOM     21  N   UNL     1      -1.580  12.932  22.958  0.00  0.00    +0.000 NA
ENDBRANCH  13  16
BRANCH  13  22
ATOM     22  O   UNL     1       0.834  12.079  21.631  0.00  0.00    +0.000 OA
ATOM     23  H   UNL     1       0.634  12.950  22.010  0.00  0.00    +0.000 HD
ENDBRANCH  13  22
ENDBRANCH   8  10
ENDBRANCH   3   5
BRANCH   2  24
ATOM     24  C   UNL     1       3.851   2.352  19.742  0.00  0.00    +0.000 C 
BRANCH  24  25
ATOM     25  N   UNL     1       4.721   2.945  18.743  0.00  0.00    +0.000 N 
ATOM     26  C   UNL     1       4.295   3.107  17.445  0.00  0.00    +0.000 C 
ATOM     27  O   UNL     1       3.182   2.760  17.064  0.00  0.00    +0.000 OA
ATOM     28  H   UNL     1       5.640   3.243  19.037  0.00  0.00    +0.000 HD
BRANCH  26  29
ATOM     29  C   UNL     1       5.254   3.734  16.496  0.00  0.00    +0.000 A 
ATOM     30  C   UNL     1       6.082   4.759  16.967  0.00  0.00    +0.000 A 
ATOM     31  C   UNL     1       6.954   5.415  16.099  0.00  0.00    +0.000 A 
ATOM     32  C   UNL     1       6.992   5.062  14.750  0.00  0.00    +0.000 A 
ATOM     33  C   UNL     1       6.163   4.044  14.255  0.00  0.00    +0.000 A 
ATOM     34  C   UNL     1       5.298   3.373  15.142  0.00  0.00    +0.000 A 
BRANCH  33  35
ATOM     35  C   UNL     1       6.167   3.683  12.788  0.00  0.00    +0.000 C 
ATOM     36  F   UNL     1       6.507   2.388  12.545  0.00  0.00    +0.000 F 
ATOM     37  F   UNL     1       4.950   3.868  12.207  0.00  0.00    +0.000 F 
ATOM     38  F   UNL     1       7.043   4.440  12.073  0.00  0.00    +0.000 F 
ENDBRANCH  33  35
ENDBRANCH  26  29
ENDBRANCH  24  25
ENDBRANCH   2  24
TORSDOF 8
ENDMDL
MODEL 9
REMARK VINA RESULT:      -7.9      1.323      1.543
REMARK  Name = 
REMARK  8 active torsions:
REMARK  status: ('A' for Active; 'I' for Inactive)
REMARK    1  A    between atoms: C_2  and  C_3
REMARK    2  A    between atoms: C_3  and  N_4
REMARK    3  A    between atoms: C_5  and  C_7
REMARK    4  A    between atoms: C_11  and  C_12
REMARK    5  A    between atoms: N_17  and  C_18
REMARK    6  A    between atoms: N_21  and  C_22
REMARK    7  A    between atoms: C_25  and  O_26
REMARK    8  A    between atoms: C_25  and  C_27
REMARK                            x       y       z     vdW  Elec       q    Type
REMARK                         _______ _______ _______ _____ _____    ______ ____
ROOT
ATOM      1  O   UNL     1       4.881   5.814  19.451  0.00  0.00    +0.000 OA
ATOM      2  C   UNL     1       4.594   4.872  18.716  0.00  0.00    +0.000 C 
ATOM      3  N   UNL     1       3.324   4.646  18.225  0.00  0.00    +0.000 N 
ATOM      4  H   UNL     1       3.117   3.672  18.004  0.00  0.00    +0.000 HD
ENDROOT
BRANCH   3   5
ATOM      5  C   UNL     1       2.217   5.532  18.560  0.00  0.00    +0.000 C 
ATOM      6  C   UNL     1       2.146   6.716  17.603  0.00  0.00    +0.000 C 
ATOM      7  C   UNL     1       2.707   7.882  18.399  0.00  0.00    +0.000 C 
ATOM      8  N   UNL     1       2.342   7.642  19.800  0.00  0.00    +0.000 NA
ATOM      9  C   UNL     1       2.350   6.173  19.960  0.00  0.00    +0.000 C 
BRANCH   8  10
ATOM     10  C   UNL     1       1.125   8.344  20.252  0.00  0.00    +0.000 C 
ATOM     11  C   UNL     1       1.085   8.659  21.757  0.00  0.00    +0.000 C 
ATOM     12  C   UNL     1      -0.085   9.541  22.177  0.00  0.00    +0.000 C 
ATOM     13  C   UNL     1      -0.216  10.818  21.332  0.00  0.00    +0.000 C 
ATOM     14  C   UNL     1      -0.325  10.421  19.846  0.00  0.00    +0.000 C 
ATOM     15  C   UNL     1       0.863   9.583  19.367  0.00  0.00    +0.000 C 
BRANCH  13  16
ATOM     16  C   UNL     1      -1.436  11.611  21.824  0.00  0.00    +0.000 A 
ATOM     17  N   UNL     1      -2.031  12.452  20.944  0.00  0.00    +0.000 NA
ATOM     18  C   UNL     1      -3.105  13.132  21.380  0.00  0.00    +0.000 A 
ATOM     19  C   UNL     1      -3.599  13.028  22.657  0.00  0.00    +0.000 A 
ATOM     20  C   UNL     1      -2.921  12.169  23.484  0.00  0.00    +0.000 A 
ATOM     21  N   UNL     1      -1.843  11.459  23.102  0.00  0.00    +0.000 NA
ENDBRANCH  13  16
BRANCH  13  22
ATOM     22  O   UNL     1       0.955  11.639  21.504  0.00  0.00    +0.000 OA
ATOM     23  H   UNL     1       1.307  11.883  20.634  0.00  0.00    +0.000 HD
ENDBRANCH  13  22
ENDBRANCH   8  10
ENDBRANCH   3   5
BRANCH   2  24
ATOM     24  C   UNL     1       5.606   3.792  18.324  0.00  0.00    +0.000 C 
BRANCH  24  25
ATOM     25  N   UNL     1       5.785   3.757  16.885  0.00  0.00    +0.000 N 
ATOM     26  C   UNL     1       6.619   4.652  16.256  0.00  0.00    +0.000 C 
ATOM     27  O   UNL     1       7.242   5.517  16.864  0.00  0.00    +0.000 OA
ATOM     28  H   UNL     1       5.286   3.048  16.365  0.00  0.00    +0.000 HD
BRANCH  26  29
ATOM     29  C   UNL     1       6.747   4.530  14.779  0.00  0.00    +0.000 A 
ATOM     30  C   UNL     1       7.831   5.155  14.152  0.00  0.00    +0.000 A 
ATOM     31  C   UNL     1       7.959   5.117  12.763  0.00  0.00    +0.000 A 
ATOM     32  C   UNL     1       6.995   4.467  11.992  0.00  0.00    +0.000 A 
ATOM     33  C   UNL     1       5.896   3.842  12.600  0.00  0.00    +0.000 A 
ATOM     34  C   UNL     1       5.784   3.869  14.004  0.00  0.00    +0.000 A 
BRANCH  33  35
ATOM     35  C   UNL     1       4.826   3.172  11.771  0.00  0.00    +0.000 C 
ATOM     36  F   UNL     1       5.172   1.930  11.332  0.00  0.00    +0.000 F 
ATOM     37  F   UNL     1       3.661   3.017  12.458  0.00  0.00    +0.000 F 
ATOM     38  F   UNL     1       4.512   3.888  10.656  0.00  0.00    +0.000 F 
ENDBRANCH  33  35
ENDBRANCH  26  29
ENDBRANCH  24  25
ENDBRANCH   2  24
TORSDOF 8
ENDMDL
