MODEL 1
REMARK VINA RESULT:      -7.8      0.000      0.000
REMARK  Name = 
REMARK  4 active torsions:
REMARK  status: ('A' for Active; 'I' for Inactive)
REMARK    1  A    between atoms: C_2  and  C_3
REMARK    2  A    between atoms: C_2  and  C_4
REMARK    3  A    between atoms: C_9  and  C_10
REMARK    4  A    between atoms: C_15  and  C_16
REMARK                            x       y       z     vdW  Elec       q    Type
REMARK                         _______ _______ _______ _____ _____    ______ ____
ROOT
ATOM      1  C   UNL     1       5.764   5.499  18.070  0.00  0.00    +0.000 C 
ATOM      2  C   UNL     1       4.766   6.360  17.293  0.00  0.00    +0.000 C 
ATOM      3  C   UNL     1       3.450   5.602  17.444  0.00  0.00    +0.000 C 
ATOM      4  C   UNL     1       3.483   4.939  18.856  0.00  0.00    +0.000 C 
ATOM      5  C   UNL     1       4.954   5.167  19.329  0.00  0.00    +0.000 C 
ATOM      6  C   UNL     1       2.558   5.568  19.906  0.00  0.00    +0.000 C 
ATOM      7  C   UNL     1       2.213   7.033  19.835  0.00  0.00    +0.000 C 
ATOM      8  C   UNL     1       2.091   4.862  20.953  0.00  0.00    +0.000 C 
ATOM      9  C   UNL     1       2.409   3.429  21.150  0.00  0.00    +0.000 C 
ATOM     10  O   UNL     1       2.075   2.881  22.198  0.00  0.00    +0.000 OA
ATOM     11  C   UNL     1       3.178   2.694  20.078  0.00  0.00    +0.000 C 
ATOM     12  C   UNL     1       3.148   3.412  18.720  0.00  0.00    +0.000 C 
ATOM     13  C   UNL     1       1.789   3.144  18.037  0.00  0.00    +0.000 C 
ENDROOT
BRANCH   1  15
ATOM     14  C   UNL     1       7.940   5.686  19.360  0.00  0.00    +0.000 C 
ATOM     15  C   UNL     1       7.125   6.101  18.374  0.00  0.00    +0.000 C 
ATOM     16  C   UNL     1       7.536   7.263  17.503  0.00  0.00    +0.000 C 
ENDBRANCH   1  15
TORSDOF 1
ENDMDL
MODEL 2
REMARK VINA RESULT:      -7.6      0.937      1.280
REMARK  Name = 
REMARK  4 active torsions:
REMARK  status: ('A' for Active; 'I' for Inactive)
REMARK    1  A    between atoms: C_2  and  C_3
REMARK    2  A    between atoms: C_2  and  C_4
REMARK    3  A    between atoms: C_9  and  C_10
REMARK    4  A    between atoms: C_15  and  C_16
REMARK                            x       y       z     vdW  Elec       q    Type
REMARK                         _______ _______ _______ _____ _____    ______ ____
ROOT
ATOM      1  C   UNL     1       6.189   5.122  17.950  0.00  0.00    +0.000 C 
ATOM      2  C   UNL     1       5.293   5.390  16.739  0.00  0.00    +0.000 C 
ATOM      3  C   UNL     1       4.139   4.410  16.927  0.00  0.00    +0.000 C 
ATOM      4  C   UNL     1       3.917   4.281  18.466  0.00  0.00    +0.000 C 
ATOM      5  C   UNL     1       5.148   5.025  19.074  0.00  0.00    +0.000 C 
ATOM      6  C   UNL     1       2.654   4.958  19.014  0.00  0.00    +0.000 C 
ATOM      7  C   UNL     1       2.086   6.174  18.330  0.00  0.00    +0.000 C 
ATOM      8  C   UNL     1       2.060   4.539  20.148  0.00  0.00    +0.000 C 
ATOM      9  C   UNL     1       2.563   3.386  20.928  0.00  0.00    +0.000 C 
ATOM     10  O   UNL     1       2.068   3.146  22.028  0.00  0.00    +0.000 OA
ATOM     11  C   UNL     1       3.703   2.565  20.374  0.00  0.00    +0.000 C 
ATOM     12  C   UNL     1       3.903   2.763  18.864  0.00  0.00    +0.000 C 
ATOM     13  C   UNL     1       2.840   1.942  18.101  0.00  0.00    +0.000 C 
ENDROOT
BRANCH   1  15
ATOM     14  C   UNL     1       7.546   7.220  17.507  0.00  0.00    +0.000 C 
ATOM     15  C   UNL     1       7.294   6.122  18.243  0.00  0.00    +0.000 C 
ATOM     16  C   UNL     1       8.164   5.804  19.435  0.00  0.00    +0.000 C 
ENDBRANCH   1  15
TORSDOF 1
ENDMDL
MODEL 3
REMARK VINA RESULT:      -7.2      1.938      3.180
REMARK  Name = 
REMARK  4 active torsions:
REMARK  status: ('A' for Active; 'I' for Inactive)
REMARK    1  A    between atoms: C_2  and  C_3
REMARK    2  A    between atoms: C_2  and  C_4
REMARK    3  A    between atoms: C_9  and  C_10
REMARK    4  A    between atoms: C_15  and  C_16
REMARK                            x       y       z     vdW  Elec       q    Type
REMARK                         _______ _______ _______ _____ _____    ______ ____
ROOT
ATOM      1  C   UNL     1       5.291   5.040  16.968  0.00  0.00    +0.000 C 
ATOM      2  C   UNL     1       5.975   5.138  18.333  0.00  0.00    +0.000 C 
ATOM      3  C   UNL     1       4.808   5.127  19.317  0.00  0.00    +0.000 C 
ATOM      4  C   UNL     1       3.710   4.215  18.687  0.00  0.00    +0.000 C 
ATOM      5  C   UNL     1       4.238   3.958  17.239  0.00  0.00    +0.000 C 
ATOM      6  C   UNL     1       3.517   2.849  19.356  0.00  0.00    +0.000 C 
ATOM      7  C   UNL     1       4.673   2.169  20.043  0.00  0.00    +0.000 C 
ATOM      8  C   UNL     1       2.346   2.186  19.291  0.00  0.00    +0.000 C 
ATOM      9  C   UNL     1       1.160   2.737  18.597  0.00  0.00    +0.000 C 
ATOM     10  O   UNL     1       0.171   2.023  18.446  0.00  0.00    +0.000 OA
ATOM     11  C   UNL     1       1.215   4.144  18.052  0.00  0.00    +0.000 C 
ATOM     12  C   UNL     1       2.341   4.983  18.676  0.00  0.00    +0.000 C 
ATOM     13  C   UNL     1       1.898   5.461  20.076  0.00  0.00    +0.000 C 
ENDROOT
BRANCH   1  15
ATOM     14  C   UNL     1       7.508   4.818  15.753  0.00  0.00    +0.000 C 
ATOM     15  C   UNL     1       6.165   4.736  15.763  0.00  0.00    +0.000 C 
ATOM     16  C   UNL     1       5.429   4.348  14.503  0.00  0.00    +0.000 C 
ENDBRANCH   1  15
TORSDOF 1
ENDMDL
MODEL 4
REMARK VINA RESULT:      -7.2      0.990      1.167
REMARK  Name = 
REMARK  4 active torsions:
REMARK  status: ('A' for Active; 'I' for Inactive)
REMARK    1  A    between atoms: C_2  and  C_3
REMARK    2  A    between atoms: C_2  and  C_4
REMARK    3  A    between atoms: C_9  and  C_10
REMARK    4  A    between atoms: C_15  and  C_16
REMARK                            x       y       z     vdW  Elec       q    Type
REMARK                         _______ _______ _______ _____ _____    ______ ____
ROOT
ATOM      1  C   UNL     1       5.240   4.563  17.906  0.00  0.00    +0.000 C 
ATOM      2  C   UNL     1       4.341   5.620  17.263  0.00  0.00    +0.000 C 
ATOM      3  C   UNL     1       2.931   5.117  17.558  0.00  0.00    +0.000 C 
ATOM      4  C   UNL     1       2.998   4.413  18.949  0.00  0.00    +0.000 C 
ATOM      5  C   UNL     1       4.529   4.346  19.249  0.00  0.00    +0.000 C 
ATOM      6  C   UNL     1       2.334   5.168  20.108  0.00  0.00    +0.000 C 
ATOM      7  C   UNL     1       2.267   6.673  20.094  0.00  0.00    +0.000 C 
ATOM      8  C   UNL     1       1.863   4.527  21.194  0.00  0.00    +0.000 C 
ATOM      9  C   UNL     1       1.925   3.055  21.336  0.00  0.00    +0.000 C 
ATOM     10  O   UNL     1       1.614   2.544  22.410  0.00  0.00    +0.000 OA
ATOM     11  C   UNL     1       2.414   2.224  20.173  0.00  0.00    +0.000 C 
ATOM     12  C   UNL     1       2.366   2.981  18.837  0.00  0.00    +0.000 C 
ATOM     13  C   UNL     1       0.913   2.994  18.315  0.00  0.00    +0.000 C 
ENDROOT
BRANCH   1  15
ATOM     14  C   UNL     1       7.669   4.537  17.174  0.00  0.00    +0.000 C 
ATOM     15  C   UNL     1       6.715   4.889  18.056  0.00  0.00    +0.000 C 
ATOM     16  C   UNL     1       7.096   5.636  19.311  0.00  0.00    +0.000 C 
ENDBRANCH   1  15
TORSDOF 1
ENDMDL
MODEL 5
REMARK VINA RESULT:      -7.0      2.562      3.459
REMARK  Name = 
REMARK  4 active torsions:
REMARK  status: ('A' for Active; 'I' for Inactive)
REMARK    1  A    between atoms: C_2  and  C_3
REMARK    2  A    between atoms: C_2  and  C_4
REMARK    3  A    between atoms: C_9  and  C_10
REMARK    4  A    between atoms: C_15  and  C_16
REMARK                            x       y       z     vdW  Elec       q    Type
REMARK                         _______ _______ _______ _____ _____    ______ ____
ROOT
ATOM      1  C   UNL     1       5.315   4.963  14.964  0.00  0.00    +0.000 C 
ATOM      2  C   UNL     1       5.491   6.306  15.677  0.00  0.00    +0.000 C 
ATOM      3  C   UNL     1       4.475   6.240  16.813  0.00  0.00    +0.000 C 
ATOM      4  C   UNL     1       4.408   4.746  17.258  0.00  0.00    +0.000 C 
ATOM      5  C   UNL     1       5.227   4.002  16.156  0.00  0.00    +0.000 C 
ATOM      6  C   UNL     1       5.057   4.426  18.610  0.00  0.00    +0.000 C 
ATOM      7  C   UNL     1       6.218   5.247  19.109  0.00  0.00    +0.000 C 
ATOM      8  C   UNL     1       4.668   3.372  19.352  0.00  0.00    +0.000 C 
ATOM      9  C   UNL     1       3.572   2.468  18.934  0.00  0.00    +0.000 C 
ATOM     10  O   UNL     1       3.363   1.443  19.579  0.00  0.00    +0.000 OA
ATOM     11  C   UNL     1       2.773   2.806  17.698  0.00  0.00    +0.000 C 
ATOM     12  C   UNL     1       2.910   4.278  17.281  0.00  0.00    +0.000 C 
ATOM     13  C   UNL     1       2.013   5.146  18.191  0.00  0.00    +0.000 C 
ENDROOT
BRANCH   1  15
ATOM     14  C   UNL     1       7.603   5.097  13.875  0.00  0.00    +0.000 C 
ATOM     15  C   UNL     1       6.370   4.562  13.948  0.00  0.00    +0.000 C 
ATOM     16  C   UNL     1       5.951   3.509  12.951  0.00  0.00    +0.000 C 
ENDBRANCH   1  15
TORSDOF 1
ENDMDL
MODEL 6
REMARK VINA RESULT:      -7.0      2.708      5.418
REMARK  Name = 
REMARK  4 active torsions:
REMARK  status: ('A' for Active; 'I' for Inactive)
REMARK    1  A    between atoms: C_2  and  C_3
REMARK    2  A    between atoms: C_2  and  C_4
REMARK    3  A    between atoms: C_9  and  C_10
REMARK    4  A    between atoms: C_15  and  C_16
REMARK                            x       y       z     vdW  Elec       q    Type
REMARK                         _______ _______ _______ _____ _____    ______ ____
ROOT
ATOM      1  C   UNL     1       3.321   3.641  19.162  0.00  0.00    +0.000 C 
ATOM      2  C   UNL     1       3.328   4.935  19.977  0.00  0.00    +0.000 C 
ATOM      3  C   UNL     1       4.629   5.614  19.558  0.00  0.00    +0.000 C 
ATOM      4  C   UNL     1       4.855   5.243  18.059  0.00  0.00    +0.000 C 
ATOM      5  C   UNL     1       3.770   4.153  17.787  0.00  0.00    +0.000 C 
ATOM      6  C   UNL     1       4.630   6.379  17.053  0.00  0.00    +0.000 C 
ATOM      7  C   UNL     1       3.643   7.477  17.355  0.00  0.00    +0.000 C 
ATOM      8  C   UNL     1       5.240   6.394  15.853  0.00  0.00    +0.000 C 
ATOM      9  C   UNL     1       6.189   5.339  15.431  0.00  0.00    +0.000 C 
ATOM     10  O   UNL     1       6.598   5.331  14.272  0.00  0.00    +0.000 OA
ATOM     11  C   UNL     1       6.591   4.273  16.423  0.00  0.00    +0.000 C 
ATOM     12  C   UNL     1       6.307   4.674  17.879  0.00  0.00    +0.000 C 
ATOM     13  C   UNL     1       7.407   5.644  18.360  0.00  0.00    +0.000 C 
ENDROOT
BRANCH   1  15
ATOM     14  C   UNL     1       1.767   1.866  18.229  0.00  0.00    +0.000 C 
ATOM     15  C   UNL     1       2.028   2.847  19.112  0.00  0.00    +0.000 C 
ATOM     16  C   UNL     1       0.979   3.241  20.124  0.00  0.00    +0.000 C 
ENDBRANCH   1  15
TORSDOF 1
ENDMDL
MODEL 7
REMARK VINA RESULT:      -6.7      1.296      1.367
REMARK  Name = 
REMARK  4 active torsions:
REMARK  status: ('A' for Active; 'I' for Inactive)
REMARK    1  A    between atoms: C_2  and  C_3
REMARK    2  A    between atoms: C_2  and  C_4
REMARK    3  A    between atoms: C_9  and  C_10
REMARK    4  A    between atoms: C_15  and  C_16
REMARK                            x       y       z     vdW  Elec       q    Type
REMARK                         _______ _______ _______ _____ _____    ______ ____
ROOT
ATOM      1  C   UNL     1       5.424   4.077  17.263  0.00  0.00    +0.000 C 
ATOM      2  C   UNL     1       4.367   4.756  16.389  0.00  0.00    +0.000 C 
ATOM      3  C   UNL     1       3.049   4.237  16.958  0.00  0.00    +0.000 C 
ATOM      4  C   UNL     1       3.272   4.054  18.491  0.00  0.00    +0.000 C 
ATOM      5  C   UNL     1       4.813   4.253  18.659  0.00  0.00    +0.000 C 
ATOM      6  C   UNL     1       2.575   5.082  19.392  0.00  0.00    +0.000 C 
ATOM      7  C   UNL     1       2.314   6.478  18.889  0.00  0.00    +0.000 C 
ATOM      8  C   UNL     1       2.243   4.799  20.665  0.00  0.00    +0.000 C 
ATOM      9  C   UNL     1       2.500   3.476  21.277  0.00  0.00    +0.000 C 
ATOM     10  O   UNL     1       2.309   3.327  22.483  0.00  0.00    +0.000 OA
ATOM     11  C   UNL     1       3.034   2.358  20.414  0.00  0.00    +0.000 C 
ATOM     12  C   UNL     1       2.825   2.610  18.913  0.00  0.00    +0.000 C 
ATOM     13  C   UNL     1       1.359   2.295  18.547  0.00  0.00    +0.000 C 
ENDROOT
BRANCH   1  15
ATOM     14  C   UNL     1       7.659   4.801  18.219  0.00  0.00    +0.000 C 
ATOM     15  C   UNL     1       6.851   4.587  17.165  0.00  0.00    +0.000 C 
ATOM     16  C   UNL     1       7.343   4.890  15.771  0.00  0.00    +0.000 C 
ENDBRANCH   1  15
TORSDOF 1
ENDMDL
MODEL 8
REMARK VINA RESULT:      -6.7      2.400      5.301
REMARK  Name = 
REMARK  4 active torsions:
REMARK  status: ('A' for Active; 'I' for Inactive)
REMARK    1  A    between atoms: C_2  and  C_3
REMARK    2  A    between atoms: C_2  and  C_4
REMARK    3  A    between atoms: C_9  and  C_10
REMARK    4  A    between atoms: C_15  and  C_16
REMARK                            x       y       z     vdW  Elec       q    Type
REMARK                         _______ _______ _______ _____ _____    ______ ____
ROOT
ATOM      1  C   UNL     1       3.203   5.840  18.914  0.00  0.00    +0.000 C 
ATOM      2  C   UNL     1       2.914   6.594  17.614  0.00  0.00    +0.000 C 
ATOM      3  C   UNL     1       4.296   7.045  17.150  0.00  0.00    +0.000 C 
ATOM      4  C   UNL     1       5.295   5.929  17.589  0.00  0.00    +0.000 C 
ATOM      5  C   UNL     1       4.430   5.011  18.511  0.00  0.00    +0.000 C 
ATOM      6  C   UNL     1       5.851   5.053  16.459  0.00  0.00    +0.000 C 
ATOM      7  C   UNL     1       5.033   4.804  15.218  0.00  0.00    +0.000 C 
ATOM      8  C   UNL     1       7.038   4.428  16.566  0.00  0.00    +0.000 C 
ATOM      9  C   UNL     1       7.901   4.561  17.762  0.00  0.00    +0.000 C 
ATOM     10  O   UNL     1       8.899   3.850  17.862  0.00  0.00    +0.000 OA
ATOM     11  C   UNL     1       7.504   5.530  18.850  0.00  0.00    +0.000 C 
ATOM     12  C   UNL     1       6.488   6.580  18.374  0.00  0.00    +0.000 C 
ATOM     13  C   UNL     1       7.227   7.669  17.567  0.00  0.00    +0.000 C 
ENDROOT
BRANCH   1  15
ATOM     14  C   UNL     1       1.632   5.114  20.769  0.00  0.00    +0.000 C 
ATOM     15  C   UNL     1       2.083   5.003  19.506  0.00  0.00    +0.000 C 
ATOM     16  C   UNL     1       1.485   3.967  18.586  0.00  0.00    +0.000 C 
ENDBRANCH   1  15
TORSDOF 1
ENDMDL
MODEL 9
REMARK VINA RESULT:      -6.5      2.952      5.176
REMARK  Name = 
REMARK  4 active torsions:
REMARK  status: ('A' for Active; 'I' for Inactive)
REMARK    1  A    between atoms: C_2  and  C_3
REMARK    2  A    between atoms: C_2  and  C_4
REMARK    3  A    between atoms: C_9  and  C_10
REMARK    4  A    between atoms: C_15  and  C_16
REMARK                            x       y       z     vdW  Elec       q    Type
REMARK                         _______ _______ _______ _____ _____    ______ ____
ROOT
ATOM      1  C   UNL     1       2.846   6.511  18.379  0.00  0.00    +0.000 C 
ATOM      2  C   UNL     1       3.178   5.594  19.557  0.00  0.00    +0.000 C 
ATOM      3  C   UNL     1       4.015   4.488  18.922  0.00  0.00    +0.000 C 
ATOM      4  C   UNL     1       4.829   5.157  17.772  0.00  0.00    +0.000 C 
ATOM      5  C   UNL     1       4.203   6.584  17.667  0.00  0.00    +0.000 C 
ATOM      6  C   UNL     1       6.331   5.331  18.034  0.00  0.00    +0.000 C 
ATOM      7  C   UNL     1       6.840   5.511  19.441  0.00  0.00    +0.000 C 
ATOM      8  C   UNL     1       7.223   5.401  17.028  0.00  0.00    +0.000 C 
ATOM      9  C   UNL     1       6.826   5.288  15.606  0.00  0.00    +0.000 C 
ATOM     10  O   UNL     1       7.663   5.507  14.733  0.00  0.00    +0.000 OA
ATOM     11  C   UNL     1       5.393   4.954  15.267  0.00  0.00    +0.000 C 
ATOM     12  C   UNL     1       4.628   4.338  16.448  0.00  0.00    +0.000 C 
ATOM     13  C   UNL     1       5.022   2.851  16.585  0.00  0.00    +0.000 C 
ENDROOT
BRANCH   1  15
ATOM     14  C   UNL     1       2.156   8.885  17.808  0.00  0.00    +0.000 C 
ATOM     15  C   UNL     1       2.260   7.877  18.693  0.00  0.00    +0.000 C 
ATOM     16  C   UNL     1       1.803   8.081  20.117  0.00  0.00    +0.000 C 
ENDBRANCH   1  15
TORSDOF 1
ENDMDL
