MODEL 1
REMARK VINA RESULT:      -7.7      0.000      0.000
REMARK  Name = 
REMARK  5 active torsions:
REMARK  status: ('A' for Active; 'I' for Inactive)
REMARK    1  A    between atoms: C_1  and  C_2
REMARK    2  A    between atoms: C_2  and  C_3
REMARK    3  A    between atoms: C_2  and  C_4
REMARK    4  A    between atoms: N_10  and  C_11
REMARK    5  A    between atoms: C_15  and  C_16
REMARK                            x       y       z     vdW  Elec       q    Type
REMARK                         _______ _______ _______ _____ _____    ______ ____
ROOT
ATOM      1  C   UNL     1       2.582   4.560  19.678  0.00  0.00    +0.000 A 
ATOM      2  S   UNL     1       3.850   3.748  18.877  0.00  0.00    +0.000 S 
ATOM      3  C   UNL     1       4.389   5.214  18.136  0.00  0.00    +0.000 A 
ATOM      4  N   UNL     1       5.372   5.231  17.189  0.00  0.00    +0.000 N 
ATOM      5  C   UNL     1       5.871   6.512  16.678  0.00  0.00    +0.000 C 
ATOM      6  C   UNL     1       6.287   6.361  15.192  0.00  0.00    +0.000 C 
ATOM      7  N   UNL     1       7.262   5.267  14.969  0.00  0.00    +0.000 NA
ATOM      8  C   UNL     1       7.561   5.123  13.545  0.00  0.00    +0.000 C 
ATOM      9  C   UNL     1       6.708   4.006  15.507  0.00  0.00    +0.000 C 
ATOM     10  C   UNL     1       6.316   4.118  16.997  0.00  0.00    +0.000 C 
ATOM     11  N   UNL     1       3.715   6.277  18.536  0.00  0.00    +0.000 NA
ATOM     12  C   UNL     1       2.703   5.926  19.449  0.00  0.00    +0.000 A 
ENDROOT
BRANCH  12  13
ATOM     13  C   UNL     1       1.849   6.943  20.091  0.00  0.00    +0.000 C 
ATOM     14  O   UNL     1       1.242   6.684  21.124  0.00  0.00    +0.000 OA
ATOM     15  N   UNL     1       1.794   8.144  19.412  0.00  0.00    +0.000 N 
ATOM     16  C   UNL     1       1.082   9.256  19.886  0.00  0.00    +0.000 A 
ATOM     17  C   UNL     1       0.896  10.349  19.046  0.00  0.00    +0.000 A 
ATOM     18  C   UNL     1       0.170  11.448  19.508  0.00  0.00    +0.000 A 
ATOM     19  C   UNL     1      -0.340  11.435  20.803  0.00  0.00    +0.000 A 
ATOM     20  C   UNL     1      -0.095  10.317  21.569  0.00  0.00    +0.000 A 
ATOM     21 CL   UNL     1      -0.669  10.199  23.181  0.00  0.00    +0.000 Cl
ATOM     22  N   UNL     1       0.595   9.246  21.141  0.00  0.00    +0.000 NA
ATOM     23  H   UNL     1       2.271   8.182  18.522  0.00  0.00    +0.000 HD
ENDBRANCH  12  13
BRANCH   1  25
ATOM     24  C   UNL     1       0.708   2.820  19.702  0.00  0.00    +0.000 C 
ATOM     25  C   UNL     1       1.553   3.811  20.508  0.00  0.00    +0.000 C 
ATOM     26  C   UNL     1       2.204   3.108  21.700  0.00  0.00    +0.000 C 
ENDBRANCH   1  25
TORSDOF 2
ENDMDL
MODEL 2
REMARK VINA RESULT:      -7.4      3.689      8.254
REMARK  Name = 
REMARK  5 active torsions:
REMARK  status: ('A' for Active; 'I' for Inactive)
REMARK    1  A    between atoms: C_1  and  C_2
REMARK    2  A    between atoms: C_2  and  C_3
REMARK    3  A    between atoms: C_2  and  C_4
REMARK    4  A    between atoms: N_10  and  C_11
REMARK    5  A    between atoms: C_15  and  C_16
REMARK                            x       y       z     vdW  Elec       q    Type
REMARK                         _______ _______ _______ _____ _____    ______ ____
ROOT
ATOM      1  C   UNL     1       4.287   5.436  18.544  0.00  0.00    +0.000 A 
ATOM      2  S   UNL     1       3.043   5.878  19.624  0.00  0.00    +0.000 S 
ATOM      3  C   UNL     1       2.721   7.329  18.740  0.00  0.00    +0.000 A 
ATOM      4  N   UNL     1       1.850   8.277  19.192  0.00  0.00    +0.000 N 
ATOM      5  C   UNL     1       1.526   9.432  18.348  0.00  0.00    +0.000 C 
ATOM      6  C   UNL     1       1.258  10.675  19.235  0.00  0.00    +0.000 C 
ATOM      7  N   UNL     1       0.218  10.442  20.264  0.00  0.00    +0.000 NA
ATOM      8  C   UNL     1       0.059  11.620  21.116  0.00  0.00    +0.000 C 
ATOM      9  C   UNL     1       0.594   9.267  21.078  0.00  0.00    +0.000 C 
ATOM     10  C   UNL     1       0.835   8.003  20.221  0.00  0.00    +0.000 C 
ATOM     11  N   UNL     1       3.442   7.437  17.638  0.00  0.00    +0.000 NA
ATOM     12  C   UNL     1       4.315   6.343  17.491  0.00  0.00    +0.000 A 
ENDROOT
BRANCH  12  13
ATOM     13  C   UNL     1       5.185   6.197  16.309  0.00  0.00    +0.000 C 
ATOM     14  O   UNL     1       6.031   7.046  16.050  0.00  0.00    +0.000 OA
ATOM     15  N   UNL     1       4.927   5.071  15.552  0.00  0.00    +0.000 N 
ATOM     16  C   UNL     1       5.680   4.723  14.420  0.00  0.00    +0.000 A 
ATOM     17  C   UNL     1       5.225   3.702  13.593  0.00  0.00    +0.000 A 
ATOM     18  C   UNL     1       5.962   3.368  12.455  0.00  0.00    +0.000 A 
ATOM     19  C   UNL     1       7.142   4.053  12.179  0.00  0.00    +0.000 A 
ATOM     20  C   UNL     1       7.523   5.039  13.062  0.00  0.00    +0.000 A 
ATOM     21 CL   UNL     1       8.964   5.939  12.823  0.00  0.00    +0.000 Cl
ATOM     22  N   UNL     1       6.825   5.381  14.158  0.00  0.00    +0.000 NA
ATOM     23  H   UNL     1       4.135   4.511  15.833  0.00  0.00    +0.000 HD
ENDBRANCH  12  13
BRANCH   1  25
ATOM     24  C   UNL     1       6.546   4.526  19.324  0.00  0.00    +0.000 C 
ATOM     25  C   UNL     1       5.150   4.208  18.781  0.00  0.00    +0.000 C 
ATOM     26  C   UNL     1       4.444   3.198  19.685  0.00  0.00    +0.000 C 
ENDBRANCH   1  25
TORSDOF 2
ENDMDL
MODEL 3
REMARK VINA RESULT:      -7.2      1.464      1.786
REMARK  Name = 
REMARK  5 active torsions:
REMARK  status: ('A' for Active; 'I' for Inactive)
REMARK    1  A    between atoms: C_1  and  C_2
REMARK    2  A    between atoms: C_2  and  C_3
REMARK    3  A    between atoms: C_2  and  C_4
REMARK    4  A    between atoms: N_10  and  C_11
REMARK    5  A    between atoms: C_15  and  C_16
REMARK                            x       y       z     vdW  Elec       q    Type
REMARK                         _______ _______ _______ _____ _____    ______ ____
ROOT
ATOM      1  C   UNL     1       2.633   5.293  19.502  0.00  0.00    +0.000 A 
ATOM      2  S   UNL     1       3.786   4.244  18.807  0.00  0.00    +0.000 S 
ATOM      3  C   UNL     1       4.229   5.430  17.629  0.00  0.00    +0.000 A 
ATOM      4  N   UNL     1       5.083   5.149  16.601  0.00  0.00    +0.000 N 
ATOM      5  C   UNL     1       5.516   6.222  15.699  0.00  0.00    +0.000 C 
ATOM      6  C   UNL     1       5.737   5.654  14.274  0.00  0.00    +0.000 C 
ATOM      7  N   UNL     1       6.672   4.505  14.244  0.00  0.00    +0.000 NA
ATOM      8  C   UNL     1       6.786   3.965  12.890  0.00  0.00    +0.000 C 
ATOM      9  C   UNL     1       6.189   3.461  15.173  0.00  0.00    +0.000 C 
ATOM     10  C   UNL     1       5.991   3.992  16.611  0.00  0.00    +0.000 C 
ATOM     11  N   UNL     1       3.615   6.587  17.799  0.00  0.00    +0.000 NA
ATOM     12  C   UNL     1       2.728   6.538  18.891  0.00  0.00    +0.000 A 
ENDROOT
BRANCH  12  13
ATOM     13  C   UNL     1       1.966   7.723  19.326  0.00  0.00    +0.000 C 
ATOM     14  O   UNL     1       1.713   8.625  18.535  0.00  0.00    +0.000 OA
ATOM     15  N   UNL     1       1.618   7.712  20.662  0.00  0.00    +0.000 N 
ATOM     16  C   UNL     1       0.844   8.721  21.258  0.00  0.00    +0.000 A 
ATOM     17  C   UNL     1       0.721   8.749  22.642  0.00  0.00    +0.000 A 
ATOM     18  C   UNL     1      -0.031   9.763  23.239  0.00  0.00    +0.000 A 
ATOM     19  C   UNL     1      -0.652  10.716  22.436  0.00  0.00    +0.000 A 
ATOM     20  C   UNL     1      -0.487  10.600  21.073  0.00  0.00    +0.000 A 
ATOM     21 CL   UNL     1      -1.217  11.713  19.991  0.00  0.00    +0.000 Cl
ATOM     22  N   UNL     1       0.237   9.636  20.480  0.00  0.00    +0.000 NA
ATOM     23  H   UNL     1       1.978   6.947  21.216  0.00  0.00    +0.000 HD
ENDBRANCH  12  13
BRANCH   1  25
ATOM     24  C   UNL     1       0.549   3.966  20.160  0.00  0.00    +0.000 C 
ATOM     25  C   UNL     1       1.718   4.839  20.626  0.00  0.00    +0.000 C 
ATOM     26  C   UNL     1       2.502   4.133  21.732  0.00  0.00    +0.000 C 
ENDBRANCH   1  25
TORSDOF 2
ENDMDL
MODEL 4
REMARK VINA RESULT:      -7.1      4.635      8.655
REMARK  Name = 
REMARK  5 active torsions:
REMARK  status: ('A' for Active; 'I' for Inactive)
REMARK    1  A    between atoms: C_1  and  C_2
REMARK    2  A    between atoms: C_2  and  C_3
REMARK    3  A    between atoms: C_2  and  C_4
REMARK    4  A    between atoms: N_10  and  C_11
REMARK    5  A    between atoms: C_15  and  C_16
REMARK                            x       y       z     vdW  Elec       q    Type
REMARK                         _______ _______ _______ _____ _____    ______ ____
ROOT
ATOM      1  C   UNL     1      -0.140  11.538  18.603  0.00  0.00    +0.000 A 
ATOM      2  S   UNL     1      -0.190  13.242  18.652  0.00  0.00    +0.000 S 
ATOM      3  C   UNL     1       1.531  13.340  18.789  0.00  0.00    +0.000 A 
ATOM      4  N   UNL     1       2.176  14.520  19.018  0.00  0.00    +0.000 N 
ATOM      5  C   UNL     1       3.642  14.565  19.009  0.00  0.00    +0.000 C 
ATOM      6  C   UNL     1       4.143  15.631  20.017  0.00  0.00    +0.000 C 
ATOM      7  N   UNL     1       3.555  16.971  19.787  0.00  0.00    +0.000 NA
ATOM      8  C   UNL     1       4.005  17.916  20.808  0.00  0.00    +0.000 C 
ATOM      9  C   UNL     1       2.081  16.864  19.802  0.00  0.00    +0.000 C 
ATOM     10  C   UNL     1       1.550  15.831  18.781  0.00  0.00    +0.000 C 
ATOM     11  N   UNL     1       2.126  12.163  18.709  0.00  0.00    +0.000 NA
ATOM     12  C   UNL     1       1.187  11.125  18.563  0.00  0.00    +0.000 A 
ENDROOT
BRANCH  12  13
ATOM     13  C   UNL     1       1.603   9.721  18.391  0.00  0.00    +0.000 C 
ATOM     14  O   UNL     1       1.980   9.312  17.298  0.00  0.00    +0.000 OA
ATOM     15  N   UNL     1       1.496   8.955  19.535  0.00  0.00    +0.000 N 
ATOM     16  C   UNL     1       1.893   7.610  19.593  0.00  0.00    +0.000 A 
ATOM     17  C   UNL     1       1.553   6.853  20.709  0.00  0.00    +0.000 A 
ATOM     18  C   UNL     1       1.930   5.510  20.761  0.00  0.00    +0.000 A 
ATOM     19  C   UNL     1       2.648   4.959  19.703  0.00  0.00    +0.000 A 
ATOM     20  C   UNL     1       2.953   5.789  18.646  0.00  0.00    +0.000 A 
ATOM     21 CL   UNL     1       3.843   5.217  17.296  0.00  0.00    +0.000 Cl
ATOM     22  N   UNL     1       2.594   7.082  18.574  0.00  0.00    +0.000 NA
ATOM     23  H   UNL     1       1.079   9.402  20.339  0.00  0.00    +0.000 HD
ENDBRANCH  12  13
BRANCH   1  25
ATOM     24  C   UNL     1      -2.670  11.480  18.969  0.00  0.00    +0.000 C 
ATOM     25  C   UNL     1      -1.409  10.702  18.582  0.00  0.00    +0.000 C 
ATOM     26  C   UNL     1      -1.600  10.016  17.229  0.00  0.00    +0.000 C 
ENDBRANCH   1  25
TORSDOF 2
ENDMDL
MODEL 5
REMARK VINA RESULT:      -7.0      4.393      8.770
REMARK  Name = 
REMARK  5 active torsions:
REMARK  status: ('A' for Active; 'I' for Inactive)
REMARK    1  A    between atoms: C_1  and  C_2
REMARK    2  A    between atoms: C_2  and  C_3
REMARK    3  A    between atoms: C_2  and  C_4
REMARK    4  A    between atoms: N_10  and  C_11
REMARK    5  A    between atoms: C_15  and  C_16
REMARK                            x       y       z     vdW  Elec       q    Type
REMARK                         _______ _______ _______ _____ _____    ______ ____
ROOT
ATOM      1  C   UNL     1      -0.495  11.529  18.782  0.00  0.00    +0.000 A 
ATOM      2  S   UNL     1      -0.519  13.206  18.469  0.00  0.00    +0.000 S 
ATOM      3  C   UNL     1       1.058  13.407  19.147  0.00  0.00    +0.000 A 
ATOM      4  N   UNL     1       1.616  14.638  19.335  0.00  0.00    +0.000 N 
ATOM      5  C   UNL     1       3.002  14.748  19.804  0.00  0.00    +0.000 C 
ATOM      6  C   UNL     1       3.162  16.013  20.686  0.00  0.00    +0.000 C 
ATOM      7  N   UNL     1       2.715  17.253  20.010  0.00  0.00    +0.000 NA
ATOM      8  C   UNL     1       2.819  18.401  20.911  0.00  0.00    +0.000 C 
ATOM      9  C   UNL     1       1.318  17.083  19.556  0.00  0.00    +0.000 C 
ATOM     10  C   UNL     1       1.136  15.847  18.647  0.00  0.00    +0.000 C 
ATOM     11  N   UNL     1       1.620  12.267  19.507  0.00  0.00    +0.000 NA
ATOM     12  C   UNL     1       0.760  11.178  19.268  0.00  0.00    +0.000 A 
ENDROOT
BRANCH  12  13
ATOM     13  C   UNL     1       1.177   9.788  19.529  0.00  0.00    +0.000 C 
ATOM     14  O   UNL     1       0.859   9.228  20.573  0.00  0.00    +0.000 OA
ATOM     15  N   UNL     1       1.951   9.232  18.529  0.00  0.00    +0.000 N 
ATOM     16  C   UNL     1       2.401   7.904  18.561  0.00  0.00    +0.000 A 
ATOM     17  C   UNL     1       3.348   7.489  17.632  0.00  0.00    +0.000 A 
ATOM     18  C   UNL     1       3.814   6.173  17.675  0.00  0.00    +0.000 A 
ATOM     19  C   UNL     1       3.311   5.301  18.636  0.00  0.00    +0.000 A 
ATOM     20  C   UNL     1       2.365   5.795  19.506  0.00  0.00    +0.000 A 
ATOM     21 CL   UNL     1       1.671   4.805  20.723  0.00  0.00    +0.000 Cl
ATOM     22  N   UNL     1       1.909   7.059  19.486  0.00  0.00    +0.000 NA
ATOM     23  H   UNL     1       2.214   9.845  17.770  0.00  0.00    +0.000 HD
ENDBRANCH  12  13
BRANCH   1  25
ATOM     24  C   UNL     1      -3.038  11.396  18.555  0.00  0.00    +0.000 C 
ATOM     25  C   UNL     1      -1.702  10.648  18.510  0.00  0.00    +0.000 C 
ATOM     26  C   UNL     1      -1.556   9.898  17.185  0.00  0.00    +0.000 C 
ENDBRANCH   1  25
TORSDOF 2
ENDMDL
MODEL 6
REMARK VINA RESULT:      -6.7      4.507      9.499
REMARK  Name = 
REMARK  5 active torsions:
REMARK  status: ('A' for Active; 'I' for Inactive)
REMARK    1  A    between atoms: C_1  and  C_2
REMARK    2  A    between atoms: C_2  and  C_3
REMARK    3  A    between atoms: C_2  and  C_4
REMARK    4  A    between atoms: N_10  and  C_11
REMARK    5  A    between atoms: C_15  and  C_16
REMARK                            x       y       z     vdW  Elec       q    Type
REMARK                         _______ _______ _______ _____ _____    ______ ____
ROOT
ATOM      1  C   UNL     1       0.523  11.810  19.322  0.00  0.00    +0.000 A 
ATOM      2  S   UNL     1      -0.902  12.626  19.785  0.00  0.00    +0.000 S 
ATOM      3  C   UNL     1      -1.893  11.448  18.999  0.00  0.00    +0.000 A 
ATOM      4  N   UNL     1      -3.243  11.600  18.874  0.00  0.00    +0.000 N 
ATOM      5  C   UNL     1      -4.051  10.517  18.303  0.00  0.00    +0.000 C 
ATOM      6  C   UNL     1      -5.255  11.110  17.527  0.00  0.00    +0.000 C 
ATOM      7  N   UNL     1      -6.078  12.031  18.346  0.00  0.00    +0.000 NA
ATOM      8  C   UNL     1      -7.153  12.616  17.546  0.00  0.00    +0.000 C 
ATOM      9  C   UNL     1      -5.213  13.095  18.899  0.00  0.00    +0.000 C 
ATOM     10  C   UNL     1      -4.022  12.532  19.706  0.00  0.00    +0.000 C 
ATOM     11  N   UNL     1      -1.202  10.441  18.492  0.00  0.00    +0.000 NA
ATOM     12  C   UNL     1       0.179  10.614  18.703  0.00  0.00    +0.000 A 
ENDROOT
BRANCH  12  13
ATOM     13  C   UNL     1       1.161   9.596  18.285  0.00  0.00    +0.000 C 
ATOM     14  O   UNL     1       1.700   9.666  17.187  0.00  0.00    +0.000 OA
ATOM     15  N   UNL     1       1.367   8.594  19.213  0.00  0.00    +0.000 N 
ATOM     16  C   UNL     1       2.301   7.563  19.029  0.00  0.00    +0.000 A 
ATOM     17  C   UNL     1       2.294   6.481  19.902  0.00  0.00    +0.000 A 
ATOM     18  C   UNL     1       3.209   5.444  19.708  0.00  0.00    +0.000 A 
ATOM     19  C   UNL     1       4.118   5.521  18.656  0.00  0.00    +0.000 A 
ATOM     20  C   UNL     1       4.061   6.638  17.852  0.00  0.00    +0.000 A 
ATOM     21 CL   UNL     1       5.140   6.840  16.533  0.00  0.00    +0.000 Cl
ATOM     22  N   UNL     1       3.184   7.643  18.017  0.00  0.00    +0.000 NA
ATOM     23  H   UNL     1       0.780   8.614  20.036  0.00  0.00    +0.000 HD
ENDBRANCH  12  13
BRANCH   1  25
ATOM     24  C   UNL     1       2.582  13.012  18.398  0.00  0.00    +0.000 C 
ATOM     25  C   UNL     1       1.900  12.380  19.616  0.00  0.00    +0.000 C 
ATOM     26  C   UNL     1       1.855  13.374  20.777  0.00  0.00    +0.000 C 
ENDBRANCH   1  25
TORSDOF 2
ENDMDL
MODEL 7
REMARK VINA RESULT:      -6.5      4.528     10.474
REMARK  Name = 
REMARK  5 active torsions:
REMARK  status: ('A' for Active; 'I' for Inactive)
REMARK    1  A    between atoms: C_1  and  C_2
REMARK    2  A    between atoms: C_2  and  C_3
REMARK    3  A    between atoms: C_2  and  C_4
REMARK    4  A    between atoms: N_10  and  C_11
REMARK    5  A    between atoms: C_15  and  C_16
REMARK                            x       y       z     vdW  Elec       q    Type
REMARK                         _______ _______ _______ _____ _____    ______ ____
ROOT
ATOM      1  C   UNL     1       0.773  12.916  21.128  0.00  0.00    +0.000 A 
ATOM      2  S   UNL     1      -0.155  14.190  21.780  0.00  0.00    +0.000 S 
ATOM      3  C   UNL     1      -1.333  13.085  22.397  0.00  0.00    +0.000 A 
ATOM      4  N   UNL     1      -2.501  13.508  22.961  0.00  0.00    +0.000 N 
ATOM      5  C   UNL     1      -3.411  12.533  23.573  0.00  0.00    +0.000 C 
ATOM      6  C   UNL     1      -4.879  13.000  23.396  0.00  0.00    +0.000 C 
ATOM      7  N   UNL     1      -5.121  14.369  23.909  0.00  0.00    +0.000 NA
ATOM      8  C   UNL     1      -6.499  14.784  23.650  0.00  0.00    +0.000 C 
ATOM      9  C   UNL     1      -4.175  15.303  23.263  0.00  0.00    +0.000 C 
ATOM     10  C   UNL     1      -2.700  14.881  23.452  0.00  0.00    +0.000 C 
ATOM     11  N   UNL     1      -1.007  11.818  22.208  0.00  0.00    +0.000 NA
ATOM     12  C   UNL     1       0.215  11.704  21.519  0.00  0.00    +0.000 A 
ENDROOT
BRANCH  12  13
ATOM     13  C   UNL     1       0.828  10.392  21.238  0.00  0.00    +0.000 C 
ATOM     14  O   UNL     1       1.129   9.636  22.155  0.00  0.00    +0.000 OA
ATOM     15  N   UNL     1       1.039  10.142  19.896  0.00  0.00    +0.000 N 
ATOM     16  C   UNL     1       1.560   8.929  19.419  0.00  0.00    +0.000 A 
ATOM     17  C   UNL     1       1.943   8.837  18.085  0.00  0.00    +0.000 A 
ATOM     18  C   UNL     1       2.481   7.639  17.612  0.00  0.00    +0.000 A 
ATOM     19  C   UNL     1       2.609   6.557  18.480  0.00  0.00    +0.000 A 
ATOM     20  C   UNL     1       2.190   6.736  19.780  0.00  0.00    +0.000 A 
ATOM     21 CL   UNL     1       2.293   5.467  20.930  0.00  0.00    +0.000 Cl
ATOM     22  N   UNL     1       1.676   7.882  20.256  0.00  0.00    +0.000 NA
ATOM     23  H   UNL     1       0.829  10.897  19.259  0.00  0.00    +0.000 HD
ENDBRANCH  12  13
BRANCH   1  25
ATOM     24  C   UNL     1       1.708  13.657  18.866  0.00  0.00    +0.000 C 
ATOM     25  C   UNL     1       2.012  13.179  20.289  0.00  0.00    +0.000 C 
ATOM     26  C   UNL     1       2.959  14.155  20.988  0.00  0.00    +0.000 C 
ENDBRANCH   1  25
TORSDOF 2
ENDMDL
MODEL 8
REMARK VINA RESULT:      -6.5      3.133      7.784
REMARK  Name = 
REMARK  5 active torsions:
REMARK  status: ('A' for Active; 'I' for Inactive)
REMARK    1  A    between atoms: C_1  and  C_2
REMARK    2  A    between atoms: C_2  and  C_3
REMARK    3  A    between atoms: C_2  and  C_4
REMARK    4  A    between atoms: N_10  and  C_11
REMARK    5  A    between atoms: C_15  and  C_16
REMARK                            x       y       z     vdW  Elec       q    Type
REMARK                         _______ _______ _______ _____ _____    ______ ____
ROOT
ATOM      1  C   UNL     1       1.542   6.285  20.469  0.00  0.00    +0.000 A 
ATOM      2  S   UNL     1       0.526   7.436  21.211  0.00  0.00    +0.000 S 
ATOM      3  C   UNL     1       1.137   8.701  20.203  0.00  0.00    +0.000 A 
ATOM      4  N   UNL     1       0.800  10.010  20.394  0.00  0.00    +0.000 N 
ATOM      5  C   UNL     1       1.253  11.027  19.439  0.00  0.00    +0.000 C 
ATOM      6  C   UNL     1       1.500  12.368  20.176  0.00  0.00    +0.000 C 
ATOM      7  N   UNL     1       0.325  12.832  20.950  0.00  0.00    +0.000 NA
ATOM      8  C   UNL     1       0.637  14.059  21.681  0.00  0.00    +0.000 C 
ATOM      9  C   UNL     1      -0.089  11.768  21.888  0.00  0.00    +0.000 C 
ATOM     10  C   UNL     1      -0.375  10.426  21.176  0.00  0.00    +0.000 C 
ATOM     11  N   UNL     1       1.992   8.272  19.291  0.00  0.00    +0.000 NA
ATOM     12  C   UNL     1       2.204   6.885  19.405  0.00  0.00    +0.000 A 
ENDROOT
BRANCH  12  13
ATOM     13  C   UNL     1       3.071   6.154  18.462  0.00  0.00    +0.000 C 
ATOM     14  O   UNL     1       2.592   5.591  17.484  0.00  0.00    +0.000 OA
ATOM     15  N   UNL     1       4.408   6.151  18.809  0.00  0.00    +0.000 N 
ATOM     16  C   UNL     1       5.402   5.558  18.015  0.00  0.00    +0.000 A 
ATOM     17  C   UNL     1       6.682   5.408  18.535  0.00  0.00    +0.000 A 
ATOM     18  C   UNL     1       7.667   4.799  17.755  0.00  0.00    +0.000 A 
ATOM     19  C   UNL     1       7.352   4.368  16.469  0.00  0.00    +0.000 A 
ATOM     20  C   UNL     1       6.062   4.571  16.032  0.00  0.00    +0.000 A 
ATOM     21 CL   UNL     1       5.568   4.089  14.462  0.00  0.00    +0.000 Cl
ATOM     22  N   UNL     1       5.098   5.149  16.770  0.00  0.00    +0.000 NA
ATOM     23  H   UNL     1       4.645   6.575  19.695  0.00  0.00    +0.000 HD
ENDBRANCH  12  13
BRANCH   1  25
ATOM     24  C   UNL     1       0.805   3.862  20.110  0.00  0.00    +0.000 C 
ATOM     25  C   UNL     1       1.612   4.849  20.960  0.00  0.00    +0.000 C 
ATOM     26  C   UNL     1       3.060   4.376  21.093  0.00  0.00    +0.000 C 
ENDBRANCH   1  25
TORSDOF 2
ENDMDL
MODEL 9
REMARK VINA RESULT:      -6.4      4.297      9.902
REMARK  Name = 
REMARK  5 active torsions:
REMARK  status: ('A' for Active; 'I' for Inactive)
REMARK    1  A    between atoms: C_1  and  C_2
REMARK    2  A    between atoms: C_2  and  C_3
REMARK    3  A    between atoms: C_2  and  C_4
REMARK    4  A    between atoms: N_10  and  C_11
REMARK    5  A    between atoms: C_15  and  C_16
REMARK                            x       y       z     vdW  Elec       q    Type
REMARK                         _______ _______ _______ _____ _____    ______ ____
ROOT
ATOM      1  C   UNL     1      -1.626  11.080  19.204  0.00  0.00    +0.000 A 
ATOM      2  S   UNL     1      -2.341  12.603  19.490  0.00  0.00    +0.000 S 
ATOM      3  C   UNL     1      -1.535  12.751  21.012  0.00  0.00    +0.000 A 
ATOM      4  N   UNL     1      -1.803  13.771  21.879  0.00  0.00    +0.000 N 
ATOM      5  C   UNL     1      -1.009  13.915  23.104  0.00  0.00    +0.000 C 
ATOM      6  C   UNL     1      -1.890  14.498  24.238  0.00  0.00    +0.000 C 
ATOM      7  N   UNL     1      -2.553  15.769  23.865  0.00  0.00    +0.000 NA
ATOM      8  C   UNL     1      -3.427  16.233  24.942  0.00  0.00    +0.000 C 
ATOM      9  C   UNL     1      -3.332  15.566  22.626  0.00  0.00    +0.000 C 
ATOM     10  C   UNL     1      -2.470  15.016  21.466  0.00  0.00    +0.000 C 
ATOM     11  N   UNL     1      -0.700  11.757  21.259  0.00  0.00    +0.000 NA
ATOM     12  C   UNL     1      -0.711  10.813  20.215  0.00  0.00    +0.000 A 
ENDROOT
BRANCH  12  13
ATOM     13  C   UNL     1       0.181   9.638  20.223  0.00  0.00    +0.000 C 
ATOM     14  O   UNL     1       0.226   8.897  21.199  0.00  0.00    +0.000 OA
ATOM     15  N   UNL     1       0.939   9.496  19.078  0.00  0.00    +0.000 N 
ATOM     16  C   UNL     1       1.808   8.414  18.866  0.00  0.00    +0.000 A 
ATOM     17  C   UNL     1       2.691   8.457  17.793  0.00  0.00    +0.000 A 
ATOM     18  C   UNL     1       3.571   7.391  17.592  0.00  0.00    +0.000 A 
ATOM     19  C   UNL     1       3.536   6.303  18.460  0.00  0.00    +0.000 A 
ATOM     20  C   UNL     1       2.618   6.341  19.486  0.00  0.00    +0.000 A 
ATOM     21 CL   UNL     1       2.483   5.050  20.607  0.00  0.00    +0.000 Cl
ATOM     22  N   UNL     1       1.768   7.360  19.701  0.00  0.00    +0.000 NA
ATOM     23  H   UNL     1       0.867  10.238  18.395  0.00  0.00    +0.000 HD
ENDBRANCH  12  13
BRANCH   1  25
ATOM     24  C   UNL     1      -3.306   9.477  18.131  0.00  0.00    +0.000 C 
ATOM     25  C   UNL     1      -1.988  10.245  17.987  0.00  0.00    +0.000 C 
ATOM     26  C   UNL     1      -2.002  11.092  16.715  0.00  0.00    +0.000 C 
ENDBRANCH   1  25
TORSDOF 2
ENDMDL
