MODEL 1
REMARK VINA RESULT:      -7.8      0.000      0.000
REMARK  Name = 
REMARK  8 active torsions:
REMARK  status: ('A' for Active; 'I' for Inactive)
REMARK    1  A    between atoms: C_1  and  C_2
REMARK    2  A    between atoms: C_2  and  C_3
REMARK    3  A    between atoms: C_8  and  N_9
REMARK    4  A    between atoms: C_12  and  C_13
REMARK    5  A    between atoms: N_15  and  C_16
REMARK    6  A    between atoms: C_19  and  O_20
REMARK    7  A    between atoms: O_20  and  C_21
REMARK    8  A    between atoms: C_24  and  C_25
REMARK                            x       y       z     vdW  Elec       q    Type
REMARK                         _______ _______ _______ _____ _____    ______ ____
ROOT
ATOM      1  N   UNL     1       4.503   5.051  17.980  0.00  0.00    +0.000 N 
ATOM      2  N   UNL     1       4.436   4.006  18.842  0.00  0.00    +0.000 NA
ATOM      3  C   UNL     1       3.551   4.373  19.766  0.00  0.00    +0.000 A 
ATOM      4  C   UNL     1       3.003   5.647  19.533  0.00  0.00    +0.000 A 
ATOM      5  C   UNL     1       3.609   6.053  18.344  0.00  0.00    +0.000 A 
ATOM      6  C   UNL     1       3.312   7.238  17.483  0.00  0.00    +0.000 C 
ENDROOT
BRANCH   1  12
ATOM      7  C   UNL     1       6.646   5.618  16.854  0.00  0.00    +0.000 A 
ATOM      8  C   UNL     1       7.473   5.439  15.723  0.00  0.00    +0.000 A 
ATOM      9  C   UNL     1       7.056   4.695  14.620  0.00  0.00    +0.000 A 
ATOM     10  C   UNL     1       5.780   4.146  14.598  0.00  0.00    +0.000 A 
ATOM     11  C   UNL     1       4.935   4.328  15.693  0.00  0.00    +0.000 A 
ATOM     12  C   UNL     1       5.364   5.024  16.842  0.00  0.00    +0.000 A 
BRANCH   7  14
ATOM     13  C   UNL     1       7.665   7.784  17.652  0.00  0.00    +0.000 C 
ATOM     14  C   UNL     1       7.233   6.373  18.025  0.00  0.00    +0.000 C 
ENDBRANCH   7  14
ENDBRANCH   1  12
BRANCH   4  15
ATOM     15  C   UNL     1       1.995   6.412  20.258  0.00  0.00    +0.000 C 
ATOM     16  O   UNL     1       1.127   5.827  20.898  0.00  0.00    +0.000 OA
ATOM     17  N   UNL     1       2.068   7.794  20.155  0.00  0.00    +0.000 N 
ATOM     18  H   UNL     1       2.623   8.193  19.412  0.00  0.00    +0.000 HD
BRANCH  17  19
ATOM     19  C   UNL     1       1.278   8.683  20.923  0.00  0.00    +0.000 A 
ATOM     20  C   UNL     1       1.340   8.727  22.320  0.00  0.00    +0.000 A 
ATOM     21  C   UNL     1       0.512   9.578  23.049  0.00  0.00    +0.000 A 
ATOM     22  C   UNL     1      -0.373  10.429  22.395  0.00  0.00    +0.000 A 
ATOM     23  C   UNL     1      -0.425  10.417  20.999  0.00  0.00    +0.000 A 
ATOM     24  C   UNL     1       0.408   9.559  20.267  0.00  0.00    +0.000 A 
BRANCH  22  25
ATOM     25  O   UNL     1      -1.157  11.182  23.217  0.00  0.00    +0.000 OA
ATOM     26  C   UNL     1      -1.164  12.576  22.940  0.00  0.00    +0.000 C 
ENDBRANCH  22  25
ENDBRANCH  17  19
ENDBRANCH   4  15
TORSDOF 5
ENDMDL
MODEL 2
REMARK VINA RESULT:      -7.5      0.393      1.117
REMARK  Name = 
REMARK  8 active torsions:
REMARK  status: ('A' for Active; 'I' for Inactive)
REMARK    1  A    between atoms: C_1  and  C_2
REMARK    2  A    between atoms: C_2  and  C_3
REMARK    3  A    between atoms: C_8  and  N_9
REMARK    4  A    between atoms: C_12  and  C_13
REMARK    5  A    between atoms: N_15  and  C_16
REMARK    6  A    between atoms: C_19  and  O_20
REMARK    7  A    between atoms: O_20  and  C_21
REMARK    8  A    between atoms: C_24  and  C_25
REMARK                            x       y       z     vdW  Elec       q    Type
REMARK                         _______ _______ _______ _____ _____    ______ ____
ROOT
ATOM      1  N   UNL     1       4.517   5.102  18.089  0.00  0.00    +0.000 N 
ATOM      2  N   UNL     1       4.525   4.122  19.028  0.00  0.00    +0.000 NA
ATOM      3  C   UNL     1       3.622   4.497  19.930  0.00  0.00    +0.000 A 
ATOM      4  C   UNL     1       2.987   5.710  19.607  0.00  0.00    +0.000 A 
ATOM      5  C   UNL     1       3.558   6.065  18.386  0.00  0.00    +0.000 A 
ATOM      6  C   UNL     1       3.177   7.159  17.442  0.00  0.00    +0.000 C 
ENDROOT
BRANCH   1  12
ATOM      7  C   UNL     1       6.615   5.720  16.907  0.00  0.00    +0.000 A 
ATOM      8  C   UNL     1       7.447   5.513  15.785  0.00  0.00    +0.000 A 
ATOM      9  C   UNL     1       7.073   4.668  14.741  0.00  0.00    +0.000 A 
ATOM     10  C   UNL     1       5.834   4.040  14.769  0.00  0.00    +0.000 A 
ATOM     11  C   UNL     1       4.984   4.246  15.856  0.00  0.00    +0.000 A 
ATOM     12  C   UNL     1       5.373   5.048  16.949  0.00  0.00    +0.000 A 
BRANCH   7  14
ATOM     13  C   UNL     1       7.835   5.785  19.116  0.00  0.00    +0.000 C 
ATOM     14  C   UNL     1       7.159   6.592  18.017  0.00  0.00    +0.000 C 
ENDBRANCH   7  14
ENDBRANCH   1  12
BRANCH   4  15
ATOM     15  C   UNL     1       1.932   6.457  20.283  0.00  0.00    +0.000 C 
ATOM     16  O   UNL     1       1.032   5.857  20.863  0.00  0.00    +0.000 OA
ATOM     17  N   UNL     1       1.998   7.841  20.202  0.00  0.00    +0.000 N 
ATOM     18  H   UNL     1       2.593   8.255  19.499  0.00  0.00    +0.000 HD
BRANCH  17  19
ATOM     19  C   UNL     1       1.158   8.714  20.934  0.00  0.00    +0.000 A 
ATOM     20  C   UNL     1       0.295   9.622  20.311  0.00  0.00    +0.000 A 
ATOM     21  C   UNL     1      -0.482  10.504  21.061  0.00  0.00    +0.000 A 
ATOM     22  C   UNL     1      -0.436  10.474  22.452  0.00  0.00    +0.000 A 
ATOM     23  C   UNL     1       0.399   9.552  23.087  0.00  0.00    +0.000 A 
ATOM     24  C   UNL     1       1.181   8.667  22.331  0.00  0.00    +0.000 A 
BRANCH  22  25
ATOM     25  O   UNL     1      -1.209  11.410  23.071  0.00  0.00    +0.000 OA
ATOM     26  C   UNL     1      -2.019  12.196  22.207  0.00  0.00    +0.000 C 
ENDBRANCH  22  25
ENDBRANCH  17  19
ENDBRANCH   4  15
TORSDOF 5
ENDMDL
MODEL 3
REMARK VINA RESULT:      -7.4      5.075      7.303
REMARK  Name = 
REMARK  8 active torsions:
REMARK  status: ('A' for Active; 'I' for Inactive)
REMARK    1  A    between atoms: C_1  and  C_2
REMARK    2  A    between atoms: C_2  and  C_3
REMARK    3  A    between atoms: C_8  and  N_9
REMARK    4  A    between atoms: C_12  and  C_13
REMARK    5  A    between atoms: N_15  and  C_16
REMARK    6  A    between atoms: C_19  and  O_20
REMARK    7  A    between atoms: O_20  and  C_21
REMARK    8  A    between atoms: C_24  and  C_25
REMARK                            x       y       z     vdW  Elec       q    Type
REMARK                         _______ _______ _______ _____ _____    ______ ____
ROOT
ATOM      1  N   UNL     1       5.980   5.227  18.353  0.00  0.00    +0.000 N 
ATOM      2  N   UNL     1       7.004   4.786  19.126  0.00  0.00    +0.000 NA
ATOM      3  C   UNL     1       7.901   5.769  19.108  0.00  0.00    +0.000 A 
ATOM      4  C   UNL     1       7.491   6.880  18.348  0.00  0.00    +0.000 A 
ATOM      5  C   UNL     1       6.222   6.519  17.898  0.00  0.00    +0.000 A 
ATOM      6  C   UNL     1       5.195   7.344  17.191  0.00  0.00    +0.000 C 
ENDROOT
BRANCH   1  12
ATOM      7  C   UNL     1       4.668   3.621  16.981  0.00  0.00    +0.000 A 
ATOM      8  C   UNL     1       3.539   2.776  16.903  0.00  0.00    +0.000 A 
ATOM      9  C   UNL     1       2.592   2.722  17.926  0.00  0.00    +0.000 A 
ATOM     10  C   UNL     1       2.724   3.547  19.035  0.00  0.00    +0.000 A 
ATOM     11  C   UNL     1       3.818   4.408  19.125  0.00  0.00    +0.000 A 
ATOM     12  C   UNL     1       4.818   4.429  18.130  0.00  0.00    +0.000 A 
BRANCH   7  14
ATOM     13  C   UNL     1       5.395   4.544  14.748  0.00  0.00    +0.000 C 
ATOM     14  C   UNL     1       5.671   3.535  15.853  0.00  0.00    +0.000 C 
ENDBRANCH   7  14
ENDBRANCH   1  12
BRANCH   4  15
ATOM     15  C   UNL     1       8.134   8.163  18.090  0.00  0.00    +0.000 C 
ATOM     16  O   UNL     1       8.115   8.641  16.959  0.00  0.00    +0.000 OA
ATOM     17  N   UNL     1       8.769   8.769  19.164  0.00  0.00    +0.000 N 
ATOM     18  H   UNL     1       8.978   8.211  19.979  0.00  0.00    +0.000 HD
BRANCH  17  19
ATOM     19  C   UNL     1       9.292  10.084  19.130  0.00  0.00    +0.000 A 
ATOM     20  C   UNL     1       9.499  10.778  17.932  0.00  0.00    +0.000 A 
ATOM     21  C   UNL     1      10.065  12.052  17.930  0.00  0.00    +0.000 A 
ATOM     22  C   UNL     1      10.406  12.673  19.128  0.00  0.00    +0.000 A 
ATOM     23  C   UNL     1      10.178  12.004  20.332  0.00  0.00    +0.000 A 
ATOM     24  C   UNL     1       9.610  10.721  20.333  0.00  0.00    +0.000 A 
BRANCH  22  25
ATOM     25  O   UNL     1      10.988  13.898  18.993  0.00  0.00    +0.000 OA
ATOM     26  C   UNL     1      10.452  14.714  17.960  0.00  0.00    +0.000 C 
ENDBRANCH  22  25
ENDBRANCH  17  19
ENDBRANCH   4  15
TORSDOF 5
ENDMDL
MODEL 4
REMARK VINA RESULT:      -7.3      4.288      7.352
REMARK  Name = 
REMARK  8 active torsions:
REMARK  status: ('A' for Active; 'I' for Inactive)
REMARK    1  A    between atoms: C_1  and  C_2
REMARK    2  A    between atoms: C_2  and  C_3
REMARK    3  A    between atoms: C_8  and  N_9
REMARK    4  A    between atoms: C_12  and  C_13
REMARK    5  A    between atoms: N_15  and  C_16
REMARK    6  A    between atoms: C_19  and  O_20
REMARK    7  A    between atoms: O_20  and  C_21
REMARK    8  A    between atoms: C_24  and  C_25
REMARK                            x       y       z     vdW  Elec       q    Type
REMARK                         _______ _______ _______ _____ _____    ______ ____
ROOT
ATOM      1  N   UNL     1       5.497   5.125  18.519  0.00  0.00    +0.000 N 
ATOM      2  N   UNL     1       6.429   4.793  19.446  0.00  0.00    +0.000 NA
ATOM      3  C   UNL     1       7.407   5.683  19.292  0.00  0.00    +0.000 A 
ATOM      4  C   UNL     1       7.142   6.627  18.283  0.00  0.00    +0.000 A 
ATOM      5  C   UNL     1       5.877   6.267  17.820  0.00  0.00    +0.000 A 
ATOM      6  C   UNL     1       4.971   6.989  16.876  0.00  0.00    +0.000 C 
ENDROOT
BRANCH   1  12
ATOM      7  C   UNL     1       3.070   4.807  18.955  0.00  0.00    +0.000 A 
ATOM      8  C   UNL     1       1.902   4.069  18.665  0.00  0.00    +0.000 A 
ATOM      9  C   UNL     1       1.928   2.953  17.828  0.00  0.00    +0.000 A 
ATOM     10  C   UNL     1       3.134   2.517  17.295  0.00  0.00    +0.000 A 
ATOM     11  C   UNL     1       4.306   3.214  17.586  0.00  0.00    +0.000 A 
ATOM     12  C   UNL     1       4.287   4.381  18.378  0.00  0.00    +0.000 A 
BRANCH   7  14
ATOM     13  C   UNL     1       1.671   5.990  20.690  0.00  0.00    +0.000 C 
ATOM     14  C   UNL     1       2.908   6.046  19.806  0.00  0.00    +0.000 C 
ENDBRANCH   7  14
ENDBRANCH   1  12
BRANCH   4  15
ATOM     15  C   UNL     1       7.907   7.776  17.811  0.00  0.00    +0.000 C 
ATOM     16  O   UNL     1       8.300   7.813  16.649  0.00  0.00    +0.000 OA
ATOM     17  N   UNL     1       8.172   8.772  18.740  0.00  0.00    +0.000 N 
ATOM     18  H   UNL     1       8.060   8.560  19.720  0.00  0.00    +0.000 HD
BRANCH  17  19
ATOM     19  C   UNL     1       8.751  10.021  18.410  0.00  0.00    +0.000 A 
ATOM     20  C   UNL     1      10.073  10.344  18.736  0.00  0.00    +0.000 A 
ATOM     21  C   UNL     1      10.598  11.602  18.444  0.00  0.00    +0.000 A 
ATOM     22  C   UNL     1       9.821  12.553  17.789  0.00  0.00    +0.000 A 
ATOM     23  C   UNL     1       8.509  12.234  17.432  0.00  0.00    +0.000 A 
ATOM     24  C   UNL     1       7.982  10.968  17.728  0.00  0.00    +0.000 A 
BRANCH  22  25
ATOM     25  O   UNL     1      10.431  13.757  17.596  0.00  0.00    +0.000 OA
ATOM     26  C   UNL     1      11.525  13.744  16.689  0.00  0.00    +0.000 C 
ENDBRANCH  22  25
ENDBRANCH  17  19
ENDBRANCH   4  15
TORSDOF 5
ENDMDL
MODEL 5
REMARK VINA RESULT:      -7.2      5.095      7.252
REMARK  Name = 
REMARK  8 active torsions:
REMARK  status: ('A' for Active; 'I' for Inactive)
REMARK    1  A    between atoms: C_1  and  C_2
REMARK    2  A    between atoms: C_2  and  C_3
REMARK    3  A    between atoms: C_8  and  N_9
REMARK    4  A    between atoms: C_12  and  C_13
REMARK    5  A    between atoms: N_15  and  C_16
REMARK    6  A    between atoms: C_19  and  O_20
REMARK    7  A    between atoms: O_20  and  C_21
REMARK    8  A    between atoms: C_24  and  C_25
REMARK                            x       y       z     vdW  Elec       q    Type
REMARK                         _______ _______ _______ _____ _____    ______ ____
ROOT
ATOM      1  N   UNL     1       6.138   5.201  18.318  0.00  0.00    +0.000 N 
ATOM      2  N   UNL     1       7.225   4.786  19.015  0.00  0.00    +0.000 NA
ATOM      3  C   UNL     1       8.060   5.821  19.007  0.00  0.00    +0.000 A 
ATOM      4  C   UNL     1       7.547   6.942  18.329  0.00  0.00    +0.000 A 
ATOM      5  C   UNL     1       6.280   6.528  17.922  0.00  0.00    +0.000 A 
ATOM      6  C   UNL     1       5.171   7.323  17.312  0.00  0.00    +0.000 C 
ENDROOT
BRANCH   1  12
ATOM      7  C   UNL     1       4.844   3.605  16.918  0.00  0.00    +0.000 A 
ATOM      8  C   UNL     1       3.765   2.696  16.849  0.00  0.00    +0.000 A 
ATOM      9  C   UNL     1       2.889   2.515  17.918  0.00  0.00    +0.000 A 
ATOM     10  C   UNL     1       3.039   3.274  19.072  0.00  0.00    +0.000 A 
ATOM     11  C   UNL     1       4.082   4.196  19.156  0.00  0.00    +0.000 A 
ATOM     12  C   UNL     1       5.015   4.345  18.109  0.00  0.00    +0.000 A 
BRANCH   7  14
ATOM     13  C   UNL     1       5.409   4.756  14.745  0.00  0.00    +0.000 C 
ATOM     14  C   UNL     1       5.778   3.658  15.731  0.00  0.00    +0.000 C 
ENDBRANCH   7  14
ENDBRANCH   1  12
BRANCH   4  15
ATOM     15  C   UNL     1       8.099   8.274  18.110  0.00  0.00    +0.000 C 
ATOM     16  O   UNL     1       7.902   8.851  17.045  0.00  0.00    +0.000 OA
ATOM     17  N   UNL     1       8.857   8.811  19.140  0.00  0.00    +0.000 N 
ATOM     18  H   UNL     1       9.201   8.192  19.860  0.00  0.00    +0.000 HD
BRANCH  17  19
ATOM     19  C   UNL     1       9.322  10.149  19.161  0.00  0.00    +0.000 A 
ATOM     20  C   UNL     1       9.345  10.917  20.330  0.00  0.00    +0.000 A 
ATOM     21  C   UNL     1       9.760  12.247  20.307  0.00  0.00    +0.000 A 
ATOM     22  C   UNL     1      10.194  12.828  19.119  0.00  0.00    +0.000 A 
ATOM     23  C   UNL     1      10.204  12.064  17.950  0.00  0.00    +0.000 A 
ATOM     24  C   UNL     1       9.784  10.726  17.975  0.00  0.00    +0.000 A 
BRANCH  22  25
ATOM     25  O   UNL     1      10.535  14.144  19.216  0.00  0.00    +0.000 OA
ATOM     26  C   UNL     1      11.526  14.584  18.297  0.00  0.00    +0.000 C 
ENDBRANCH  22  25
ENDBRANCH  17  19
ENDBRANCH   4  15
TORSDOF 5
ENDMDL
MODEL 6
REMARK VINA RESULT:      -7.1      4.299      7.332
REMARK  Name = 
REMARK  8 active torsions:
REMARK  status: ('A' for Active; 'I' for Inactive)
REMARK    1  A    between atoms: C_1  and  C_2
REMARK    2  A    between atoms: C_2  and  C_3
REMARK    3  A    between atoms: C_8  and  N_9
REMARK    4  A    between atoms: C_12  and  C_13
REMARK    5  A    between atoms: N_15  and  C_16
REMARK    6  A    between atoms: C_19  and  O_20
REMARK    7  A    between atoms: O_20  and  C_21
REMARK    8  A    between atoms: C_24  and  C_25
REMARK                            x       y       z     vdW  Elec       q    Type
REMARK                         _______ _______ _______ _____ _____    ______ ____
ROOT
ATOM      1  N   UNL     1       5.510   5.078  18.532  0.00  0.00    +0.000 N 
ATOM      2  N   UNL     1       6.469   4.705  19.415  0.00  0.00    +0.000 NA
ATOM      3  C   UNL     1       7.440   5.604  19.275  0.00  0.00    +0.000 A 
ATOM      4  C   UNL     1       7.144   6.594  18.320  0.00  0.00    +0.000 A 
ATOM      5  C   UNL     1       5.867   6.253  17.878  0.00  0.00    +0.000 A 
ATOM      6  C   UNL     1       4.933   7.016  16.996  0.00  0.00    +0.000 C 
ENDROOT
BRANCH   1  12
ATOM      7  C   UNL     1       3.132   4.656  19.125  0.00  0.00    +0.000 A 
ATOM      8  C   UNL     1       1.948   3.944  18.834  0.00  0.00    +0.000 A 
ATOM      9  C   UNL     1       1.909   2.957  17.850  0.00  0.00    +0.000 A 
ATOM     10  C   UNL     1       3.067   2.622  17.160  0.00  0.00    +0.000 A 
ATOM     11  C   UNL     1       4.255   3.294  17.445  0.00  0.00    +0.000 A 
ATOM     12  C   UNL     1       4.297   4.338  18.392  0.00  0.00    +0.000 A 
BRANCH   7  14
ATOM     13  C   UNL     1       2.361   7.010  19.607  0.00  0.00    +0.000 C 
ATOM     14  C   UNL     1       3.037   5.761  20.153  0.00  0.00    +0.000 C 
ENDBRANCH   7  14
ENDBRANCH   1  12
BRANCH   4  15
ATOM     15  C   UNL     1       7.893   7.766  17.881  0.00  0.00    +0.000 C 
ATOM     16  O   UNL     1       8.223   7.876  16.704  0.00  0.00    +0.000 OA
ATOM     17  N   UNL     1       8.219   8.699  18.855  0.00  0.00    +0.000 N 
ATOM     18  H   UNL     1       8.158   8.425  19.825  0.00  0.00    +0.000 HD
BRANCH  17  19
ATOM     19  C   UNL     1       8.791   9.963  18.575  0.00  0.00    +0.000 A 
ATOM     20  C   UNL     1       8.150  10.917  17.777  0.00  0.00    +0.000 A 
ATOM     21  C   UNL     1       8.763  12.132  17.477  0.00  0.00    +0.000 A 
ATOM     22  C   UNL     1      10.019  12.434  17.998  0.00  0.00    +0.000 A 
ATOM     23  C   UNL     1      10.658  11.503  18.819  0.00  0.00    +0.000 A 
ATOM     24  C   UNL     1      10.040  10.279  19.118  0.00  0.00    +0.000 A 
BRANCH  22  25
ATOM     25  O   UNL     1      10.531  13.633  17.600  0.00  0.00    +0.000 OA
ATOM     26  C   UNL     1      11.650  14.092  18.346  0.00  0.00    +0.000 C 
ENDBRANCH  22  25
ENDBRANCH  17  19
ENDBRANCH   4  15
TORSDOF 5
ENDMDL
MODEL 7
REMARK VINA RESULT:      -7.1      2.619      4.044
REMARK  Name = 
REMARK  8 active torsions:
REMARK  status: ('A' for Active; 'I' for Inactive)
REMARK    1  A    between atoms: C_1  and  C_2
REMARK    2  A    between atoms: C_2  and  C_3
REMARK    3  A    between atoms: C_8  and  N_9
REMARK    4  A    between atoms: C_12  and  C_13
REMARK    5  A    between atoms: N_15  and  C_16
REMARK    6  A    between atoms: C_19  and  O_20
REMARK    7  A    between atoms: O_20  and  C_21
REMARK    8  A    between atoms: C_24  and  C_25
REMARK                            x       y       z     vdW  Elec       q    Type
REMARK                         _______ _______ _______ _____ _____    ______ ____
ROOT
ATOM      1  N   UNL     1       2.871   7.101  18.581  0.00  0.00    +0.000 N 
ATOM      2  N   UNL     1       3.084   7.925  17.525  0.00  0.00    +0.000 NA
ATOM      3  C   UNL     1       2.277   8.964  17.725  0.00  0.00    +0.000 A 
ATOM      4  C   UNL     1       1.532   8.865  18.914  0.00  0.00    +0.000 A 
ATOM      5  C   UNL     1       1.963   7.663  19.473  0.00  0.00    +0.000 A 
ATOM      6  C   UNL     1       1.676   7.086  20.821  0.00  0.00    +0.000 C 
ENDROOT
BRANCH   1  12
ATOM      7  C   UNL     1       2.965   4.623  18.403  0.00  0.00    +0.000 A 
ATOM      8  C   UNL     1       3.767   3.462  18.450  0.00  0.00    +0.000 A 
ATOM      9  C   UNL     1       5.120   3.519  18.783  0.00  0.00    +0.000 A 
ATOM     10  C   UNL     1       5.698   4.735  19.123  0.00  0.00    +0.000 A 
ATOM     11  C   UNL     1       4.921   5.894  19.107  0.00  0.00    +0.000 A 
ATOM     12  C   UNL     1       3.568   5.862  18.712  0.00  0.00    +0.000 A 
BRANCH   7  14
ATOM     13  C   UNL     1       0.917   3.148  18.433  0.00  0.00    +0.000 C 
ATOM     14  C   UNL     1       1.532   4.452  17.949  0.00  0.00    +0.000 C 
ENDBRANCH   7  14
ENDBRANCH   1  12
BRANCH   4  15
ATOM     15  C   UNL     1       0.571   9.774  19.529  0.00  0.00    +0.000 C 
ATOM     16  O   UNL     1      -0.504   9.992  18.979  0.00  0.00    +0.000 OA
ATOM     17  N   UNL     1       0.955  10.373  20.720  0.00  0.00    +0.000 N 
ATOM     18  H   UNL     1       1.933  10.364  20.972  0.00  0.00    +0.000 HD
BRANCH  17  19
ATOM     19  C   UNL     1       0.086  11.143  21.530  0.00  0.00    +0.000 A 
ATOM     20  C   UNL     1      -0.728  10.571  22.514  0.00  0.00    +0.000 A 
ATOM     21  C   UNL     1      -1.610  11.351  23.259  0.00  0.00    +0.000 A 
ATOM     22  C   UNL     1      -1.674  12.727  23.059  0.00  0.00    +0.000 A 
ATOM     23  C   UNL     1      -0.847  13.316  22.100  0.00  0.00    +0.000 A 
ATOM     24  C   UNL     1       0.040  12.529  21.350  0.00  0.00    +0.000 A 
BRANCH  22  25
ATOM     25  O   UNL     1      -2.603  13.374  23.818  0.00  0.00    +0.000 OA
ATOM     26  C   UNL     1      -3.806  12.653  24.050  0.00  0.00    +0.000 C 
ENDBRANCH  22  25
ENDBRANCH  17  19
ENDBRANCH   4  15
TORSDOF 5
ENDMDL
MODEL 8
REMARK VINA RESULT:      -7.0      1.691      2.947
REMARK  Name = 
REMARK  8 active torsions:
REMARK  status: ('A' for Active; 'I' for Inactive)
REMARK    1  A    between atoms: C_1  and  C_2
REMARK    2  A    between atoms: C_2  and  C_3
REMARK    3  A    between atoms: C_8  and  N_9
REMARK    4  A    between atoms: C_12  and  C_13
REMARK    5  A    between atoms: N_15  and  C_16
REMARK    6  A    between atoms: C_19  and  O_20
REMARK    7  A    between atoms: O_20  and  C_21
REMARK    8  A    between atoms: C_24  and  C_25
REMARK                            x       y       z     vdW  Elec       q    Type
REMARK                         _______ _______ _______ _____ _____    ______ ____
ROOT
ATOM      1  N   UNL     1       3.535   5.904  18.949  0.00  0.00    +0.000 N 
ATOM      2  N   UNL     1       3.018   5.276  20.034  0.00  0.00    +0.000 NA
ATOM      3  C   UNL     1       2.188   6.158  20.585  0.00  0.00    +0.000 A 
ATOM      4  C   UNL     1       2.121   7.372  19.877  0.00  0.00    +0.000 A 
ATOM      5  C   UNL     1       2.977   7.170  18.796  0.00  0.00    +0.000 A 
ATOM      6  C   UNL     1       3.200   8.022  17.588  0.00  0.00    +0.000 C 
ENDROOT
BRANCH   1  12
ATOM      7  C   UNL     1       4.113   4.242  17.193  0.00  0.00    +0.000 A 
ATOM      8  C   UNL     1       5.096   3.748  16.308  0.00  0.00    +0.000 A 
ATOM      9  C   UNL     1       6.400   4.245  16.308  0.00  0.00    +0.000 A 
ATOM     10  C   UNL     1       6.768   5.220  17.226  0.00  0.00    +0.000 A 
ATOM     11  C   UNL     1       5.821   5.709  18.127  0.00  0.00    +0.000 A 
ATOM     12  C   UNL     1       4.483   5.262  18.098  0.00  0.00    +0.000 A 
BRANCH   7  14
ATOM     13  C   UNL     1       2.524   2.378  17.798  0.00  0.00    +0.000 C 
ATOM     14  C   UNL     1       2.714   3.688  17.047  0.00  0.00    +0.000 C 
ENDBRANCH   7  14
ENDBRANCH   1  12
BRANCH   4  15
ATOM     15  C   UNL     1       1.331   8.578  20.101  0.00  0.00    +0.000 C 
ATOM     16  O   UNL     1       0.795   9.143  19.152  0.00  0.00    +0.000 OA
ATOM     17  N   UNL     1       1.255   9.039  21.407  0.00  0.00    +0.000 N 
ATOM     18  H   UNL     1       1.924   8.695  22.080  0.00  0.00    +0.000 HD
BRANCH  17  19
ATOM     19  C   UNL     1       0.401  10.089  21.822  0.00  0.00    +0.000 A 
ATOM     20  C   UNL     1       0.455  11.369  21.257  0.00  0.00    +0.000 A 
ATOM     21  C   UNL     1      -0.364  12.395  21.725  0.00  0.00    +0.000 A 
ATOM     22  C   UNL     1      -1.279  12.155  22.745  0.00  0.00    +0.000 A 
ATOM     23  C   UNL     1      -1.365  10.876  23.298  0.00  0.00    +0.000 A 
ATOM     24  C   UNL     1      -0.538   9.844  22.828  0.00  0.00    +0.000 A 
BRANCH  22  25
ATOM     25  O   UNL     1      -1.993  13.246  23.142  0.00  0.00    +0.000 OA
ATOM     26  C   UNL     1      -1.221  14.320  23.662  0.00  0.00    +0.000 C 
ENDBRANCH  22  25
ENDBRANCH  17  19
ENDBRANCH   4  15
TORSDOF 5
ENDMDL
MODEL 9
REMARK VINA RESULT:      -6.9      2.130      3.783
REMARK  Name = 
REMARK  8 active torsions:
REMARK  status: ('A' for Active; 'I' for Inactive)
REMARK    1  A    between atoms: C_1  and  C_2
REMARK    2  A    between atoms: C_2  and  C_3
REMARK    3  A    between atoms: C_8  and  N_9
REMARK    4  A    between atoms: C_12  and  C_13
REMARK    5  A    between atoms: N_15  and  C_16
REMARK    6  A    between atoms: C_19  and  O_20
REMARK    7  A    between atoms: O_20  and  C_21
REMARK    8  A    between atoms: C_24  and  C_25
REMARK                            x       y       z     vdW  Elec       q    Type
REMARK                         _______ _______ _______ _____ _____    ______ ____
ROOT
ATOM      1  N   UNL     1       2.674   6.383  19.402  0.00  0.00    +0.000 N 
ATOM      2  N   UNL     1       2.137   5.945  20.568  0.00  0.00    +0.000 NA
ATOM      3  C   UNL     1       1.414   6.966  21.022  0.00  0.00    +0.000 A 
ATOM      4  C   UNL     1       1.439   8.085  20.170  0.00  0.00    +0.000 A 
ATOM      5  C   UNL     1       2.234   7.668  19.104  0.00  0.00    +0.000 A 
ATOM      6  C   UNL     1       2.495   8.341  17.795  0.00  0.00    +0.000 C 
ENDROOT
BRANCH   1  12
ATOM      7  C   UNL     1       3.022   4.535  17.775  0.00  0.00    +0.000 A 
ATOM      8  C   UNL     1       3.931   3.841  16.947  0.00  0.00    +0.000 A 
ATOM      9  C   UNL     1       5.293   4.143  16.940  0.00  0.00    +0.000 A 
ATOM     10  C   UNL     1       5.790   5.116  17.798  0.00  0.00    +0.000 A 
ATOM     11  C   UNL     1       4.916   5.799  18.643  0.00  0.00    +0.000 A 
ATOM     12  C   UNL     1       3.527   5.550  18.616  0.00  0.00    +0.000 A 
BRANCH   7  14
ATOM     13  C   UNL     1       1.150   3.023  18.537  0.00  0.00    +0.000 C 
ATOM     14  C   UNL     1       1.558   4.181  17.637  0.00  0.00    +0.000 C 
ENDBRANCH   7  14
ENDBRANCH   1  12
BRANCH   4  15
ATOM     15  C   UNL     1       0.775   9.381  20.259  0.00  0.00    +0.000 C 
ATOM     16  O   UNL     1       0.117   9.797  19.311  0.00  0.00    +0.000 OA
ATOM     17  N   UNL     1       0.957  10.094  21.435  0.00  0.00    +0.000 N 
ATOM     18  H   UNL     1       1.712   9.827  22.050  0.00  0.00    +0.000 HD
BRANCH  17  19
ATOM     19  C   UNL     1       0.255  11.282  21.751  0.00  0.00    +0.000 A 
ATOM     20  C   UNL     1       0.585  12.521  21.190  0.00  0.00    +0.000 A 
ATOM     21  C   UNL     1      -0.093  13.681  21.562  0.00  0.00    +0.000 A 
ATOM     22  C   UNL     1      -1.138  13.621  22.480  0.00  0.00    +0.000 A 
ATOM     23  C   UNL     1      -1.497  12.387  23.026  0.00  0.00    +0.000 A 
ATOM     24  C   UNL     1      -0.813  11.221  22.651  0.00  0.00    +0.000 A 
BRANCH  22  25
ATOM     25  O   UNL     1      -1.695  14.826  22.793  0.00  0.00    +0.000 OA
ATOM     26  C   UNL     1      -1.854  15.723  21.702  0.00  0.00    +0.000 C 
ENDBRANCH  22  25
ENDBRANCH  17  19
ENDBRANCH   4  15
TORSDOF 5
ENDMDL
