MODEL 1
REMARK VINA RESULT:      -7.8      0.000      0.000
REMARK  Name = 
REMARK  20 active torsions:
REMARK  status: ('A' for Active; 'I' for Inactive)
REMARK    1  A    between atoms: C_1  and  C_2
REMARK    2  A    between atoms: C_2  and  C_3
REMARK    3  A    between atoms: C_3  and  C_4
REMARK    4  A    between atoms: C_3  and  C_5
REMARK    5  A    between atoms: C_5  and  N_6
REMARK    6  A    between atoms: C_5  and  C_7
REMARK    7  A    between atoms: N_9  and  C_10
REMARK    8  A    between atoms: C_10  and  C_11
REMARK    9  A    between atoms: C_10  and  C_24
REMARK   10  A    between atoms: N_13  and  C_14
REMARK   11  A    between atoms: C_14  and  C_15
REMARK   12  A    between atoms: C_14  and  C_19
REMARK   13  A    between atoms: C_15  and  C_16
REMARK   14  A    between atoms: C_16  and  C_17
REMARK   15  A    between atoms: C_16  and  C_18
REMARK   16  A    between atoms: C_19  and  S_20
REMARK   17  A    between atoms: C_24  and  C_25
REMARK   18  A    between atoms: C_24  and  O_26
REMARK   19  A    between atoms: O_26  and  C_27
REMARK   20  A    between atoms: C_27  and  C_28
REMARK                            x       y       z     vdW  Elec       q    Type
REMARK                         _______ _______ _______ _____ _____    ______ ____
ROOT
ATOM      1  C   UNL     1       2.736   6.658  18.064  0.00  0.00    +0.000 C 
ENDROOT
BRANCH   1   4
ATOM      2  C   UNL     1       1.677   4.492  18.623  0.00  0.00    +0.000 C 
ATOM      3  O   UNL     1       1.399   4.305  17.443  0.00  0.00    +0.000 OA
ATOM      4  N   UNL     1       2.465   5.577  19.040  0.00  0.00    +0.000 N 
ATOM      5  H   UNL     1       2.365   5.834  20.018  0.00  0.00    +0.000 HD
BRANCH   2   6
ATOM      6  C   UNL     1       1.078   3.638  19.784  0.00  0.00    +0.000 C 
BRANCH   6   7
ATOM      7  N   UNL     1      -0.024   2.815  19.206  0.00  0.00    +0.000 NA
ATOM      8  H   UNL     1       0.256   2.526  18.265  0.00  0.00    +0.000 HD
ATOM      9  H   UNL     1      -0.866   3.368  19.073  0.00  0.00    +0.000 HD
ENDBRANCH   6   7
BRANCH   6  10
ATOM     10  C   UNL     1       2.062   2.654  20.490  0.00  0.00    +0.000 C 
ATOM     11  C   UNL     1       2.208   3.009  21.988  0.00  0.00    +0.000 C 
BRANCH  10  13
ATOM     12  C   UNL     1       3.563   1.502  18.675  0.00  0.00    +0.000 C 
ATOM     13  C   UNL     1       3.455   2.462  19.849  0.00  0.00    +0.000 C 
ENDBRANCH  10  13
ENDBRANCH   6  10
ENDBRANCH   2   6
ENDBRANCH   1   4
BRANCH   1  14
ATOM     14  C   UNL     1       4.053   6.538  17.231  0.00  0.00    +0.000 C 
ATOM     15  O   UNL     1       4.826   7.491  17.141  0.00  0.00    +0.000 OA
ATOM     16  N   UNL     1       4.370   5.277  16.772  0.00  0.00    +0.000 N 
ATOM     17  H   UNL     1       3.615   4.597  16.868  0.00  0.00    +0.000 HD
BRANCH  16  18
ATOM     18  C   UNL     1       5.587   4.826  16.034  0.00  0.00    +0.000 C 
BRANCH  18  19
ATOM     19  C   UNL     1       5.530   4.941  14.475  0.00  0.00    +0.000 C 
BRANCH  19  20
ATOM     20  C   UNL     1       6.602   4.152  13.668  0.00  0.00    +0.000 C 
ATOM     21  C   UNL     1       6.013   3.312  12.533  0.00  0.00    +0.000 C 
ATOM     22  C   UNL     1       7.666   5.088  13.075  0.00  0.00    +0.000 C 
ENDBRANCH  19  20
ENDBRANCH  18  19
BRANCH  18  23
ATOM     23  C   UNL     1       6.819   5.563  16.581  0.00  0.00    +0.000 C 
BRANCH  23  24
ATOM     24  S   UNL     1       7.399   4.854  18.100  0.00  0.00    +0.000 S 
ATOM     25  O   UNL     1       6.264   4.317  18.830  0.00  0.00    +0.000 OA
ATOM     26  O   UNL     1       8.567   4.046  17.821  0.00  0.00    +0.000 OA
ATOM     27  F   UNL     1       7.924   6.071  18.973  0.00  0.00    +0.000 F 
ENDBRANCH  23  24
ENDBRANCH  18  23
ENDBRANCH  16  18
ENDBRANCH   1  14
BRANCH   1  28
ATOM     28  C   UNL     1       2.587   8.101  18.648  0.00  0.00    +0.000 C 
ATOM     29  C   UNL     1       2.282   9.192  17.615  0.00  0.00    +0.000 C 
BRANCH  28  30
ATOM     30  O   UNL     1       1.529   8.219  19.608  0.00  0.00    +0.000 OA
BRANCH  30  31
ATOM     31  C   UNL     1       0.538   9.206  19.345  0.00  0.00    +0.000 C 
BRANCH  31  32
ATOM     32  C   UNL     1       0.021   9.659  20.679  0.00  0.00    +0.000 A 
ATOM     33  C   UNL     1      -0.395  10.988  20.856  0.00  0.00    +0.000 A 
ATOM     34  C   UNL     1      -0.798  11.436  22.118  0.00  0.00    +0.000 A 
ATOM     35  C   UNL     1      -0.788  10.564  23.200  0.00  0.00    +0.000 A 
ATOM     36  C   UNL     1      -0.368   9.245  23.032  0.00  0.00    +0.000 A 
ATOM     37  C   UNL     1       0.036   8.793  21.774  0.00  0.00    +0.000 A 
ENDBRANCH  31  32
ENDBRANCH  30  31
ENDBRANCH  28  30
ENDBRANCH   1  28
TORSDOF 15
ENDMDL
MODEL 2
REMARK VINA RESULT:      -7.6      2.965      8.204
REMARK  Name = 
REMARK  20 active torsions:
REMARK  status: ('A' for Active; 'I' for Inactive)
REMARK    1  A    between atoms: C_1  and  C_2
REMARK    2  A    between atoms: C_2  and  C_3
REMARK    3  A    between atoms: C_3  and  C_4
REMARK    4  A    between atoms: C_3  and  C_5
REMARK    5  A    between atoms: C_5  and  N_6
REMARK    6  A    between atoms: C_5  and  C_7
REMARK    7  A    between atoms: N_9  and  C_10
REMARK    8  A    between atoms: C_10  and  C_11
REMARK    9  A    between atoms: C_10  and  C_24
REMARK   10  A    between atoms: N_13  and  C_14
REMARK   11  A    between atoms: C_14  and  C_15
REMARK   12  A    between atoms: C_14  and  C_19
REMARK   13  A    between atoms: C_15  and  C_16
REMARK   14  A    between atoms: C_16  and  C_17
REMARK   15  A    between atoms: C_16  and  C_18
REMARK   16  A    between atoms: C_19  and  S_20
REMARK   17  A    between atoms: C_24  and  C_25
REMARK   18  A    between atoms: C_24  and  O_26
REMARK   19  A    between atoms: O_26  and  C_27
REMARK   20  A    between atoms: C_27  and  C_28
REMARK                            x       y       z     vdW  Elec       q    Type
REMARK                         _______ _______ _______ _____ _____    ______ ____
ROOT
ATOM      1  C   UNL     1       3.759   6.598  17.911  0.00  0.00    +0.000 C 
ENDROOT
BRANCH   1   4
ATOM      2  C   UNL     1       3.581   4.226  18.593  0.00  0.00    +0.000 C 
ATOM      3  O   UNL     1       4.527   4.359  19.363  0.00  0.00    +0.000 OA
ATOM      4  N   UNL     1       3.020   5.315  17.906  0.00  0.00    +0.000 N 
ATOM      5  H   UNL     1       2.490   5.075  17.074  0.00  0.00    +0.000 HD
BRANCH   2   6
ATOM      6  C   UNL     1       2.999   2.834  18.193  0.00  0.00    +0.000 C 
BRANCH   6   7
ATOM      7  N   UNL     1       4.150   1.895  18.052  0.00  0.00    +0.000 NA
ATOM      8  H   UNL     1       4.217   1.344  18.913  0.00  0.00    +0.000 HD
ATOM      9  H   UNL     1       5.031   2.399  17.992  0.00  0.00    +0.000 HD
ENDBRANCH   6   7
BRANCH   6  10
ATOM     10  C   UNL     1       2.004   2.188  19.208  0.00  0.00    +0.000 C 
ATOM     11  C   UNL     1       0.557   2.655  18.926  0.00  0.00    +0.000 C 
BRANCH  10  13
ATOM     12  C   UNL     1       1.530   3.355  21.507  0.00  0.00    +0.000 C 
ATOM     13  C   UNL     1       2.329   2.336  20.711  0.00  0.00    +0.000 C 
ENDBRANCH  10  13
ENDBRANCH   6  10
ENDBRANCH   2   6
ENDBRANCH   1   4
BRANCH   1  14
ATOM     14  C   UNL     1       2.900   7.904  17.952  0.00  0.00    +0.000 C 
ATOM     15  O   UNL     1       2.785   8.608  16.950  0.00  0.00    +0.000 OA
ATOM     16  N   UNL     1       2.155   8.107  19.094  0.00  0.00    +0.000 N 
ATOM     17  H   UNL     1       2.390   7.477  19.862  0.00  0.00    +0.000 HD
BRANCH  16  18
ATOM     18  C   UNL     1       1.179   9.196  19.396  0.00  0.00    +0.000 C 
BRANCH  18  19
ATOM     19  C   UNL     1       0.230   9.613  18.224  0.00  0.00    +0.000 C 
BRANCH  19  20
ATOM     20  C   UNL     1      -1.106  10.312  18.612  0.00  0.00    +0.000 C 
ATOM     21  C   UNL     1      -0.973  11.827  18.780  0.00  0.00    +0.000 C 
ATOM     22  C   UNL     1      -2.210  10.035  17.579  0.00  0.00    +0.000 C 
ENDBRANCH  19  20
ENDBRANCH  18  19
BRANCH  18  23
ATOM     23  C   UNL     1       0.361   8.821  20.641  0.00  0.00    +0.000 C 
BRANCH  23  24
ATOM     24  S   UNL     1       0.571   9.998  21.952  0.00  0.00    +0.000 S 
ATOM     25  O   UNL     1      -0.738  10.437  22.402  0.00  0.00    +0.000 OA
ATOM     26  O   UNL     1       1.557   9.487  22.881  0.00  0.00    +0.000 OA
ATOM     27  F   UNL     1       1.238  11.274  21.285  0.00  0.00    +0.000 F 
ENDBRANCH  23  24
ENDBRANCH  18  23
ENDBRANCH  16  18
ENDBRANCH   1  14
BRANCH   1  28
ATOM     28  C   UNL     1       4.866   6.705  16.812  0.00  0.00    +0.000 C 
ATOM     29  C   UNL     1       6.255   7.100  17.325  0.00  0.00    +0.000 C 
BRANCH  28  30
ATOM     30  O   UNL     1       5.087   5.476  16.108  0.00  0.00    +0.000 OA
BRANCH  30  31
ATOM     31  C   UNL     1       6.443   5.090  15.912  0.00  0.00    +0.000 C 
BRANCH  31  32
ATOM     32  C   UNL     1       6.582   4.740  14.459  0.00  0.00    +0.000 A 
ATOM     33  C   UNL     1       5.747   3.766  13.889  0.00  0.00    +0.000 A 
ATOM     34  C   UNL     1       5.929   3.376  12.559  0.00  0.00    +0.000 A 
ATOM     35  C   UNL     1       6.937   3.954  11.797  0.00  0.00    +0.000 A 
ATOM     36  C   UNL     1       7.775   4.917  12.360  0.00  0.00    +0.000 A 
ATOM     37  C   UNL     1       7.598   5.309  13.688  0.00  0.00    +0.000 A 
ENDBRANCH  31  32
ENDBRANCH  30  31
ENDBRANCH  28  30
ENDBRANCH   1  28
TORSDOF 15
ENDMDL
MODEL 3
REMARK VINA RESULT:      -7.4      2.948      8.052
REMARK  Name = 
REMARK  20 active torsions:
REMARK  status: ('A' for Active; 'I' for Inactive)
REMARK    1  A    between atoms: C_1  and  C_2
REMARK    2  A    between atoms: C_2  and  C_3
REMARK    3  A    between atoms: C_3  and  C_4
REMARK    4  A    between atoms: C_3  and  C_5
REMARK    5  A    between atoms: C_5  and  N_6
REMARK    6  A    between atoms: C_5  and  C_7
REMARK    7  A    between atoms: N_9  and  C_10
REMARK    8  A    between atoms: C_10  and  C_11
REMARK    9  A    between atoms: C_10  and  C_24
REMARK   10  A    between atoms: N_13  and  C_14
REMARK   11  A    between atoms: C_14  and  C_15
REMARK   12  A    between atoms: C_14  and  C_19
REMARK   13  A    between atoms: C_15  and  C_16
REMARK   14  A    between atoms: C_16  and  C_17
REMARK   15  A    between atoms: C_16  and  C_18
REMARK   16  A    between atoms: C_19  and  S_20
REMARK   17  A    between atoms: C_24  and  C_25
REMARK   18  A    between atoms: C_24  and  O_26
REMARK   19  A    between atoms: O_26  and  C_27
REMARK   20  A    between atoms: C_27  and  C_28
REMARK                            x       y       z     vdW  Elec       q    Type
REMARK                         _______ _______ _______ _____ _____    ______ ____
ROOT
ATOM      1  C   UNL     1       3.351   6.511  18.271  0.00  0.00    +0.000 C 
ENDROOT
BRANCH   1   4
ATOM      2  C   UNL     1       1.792   4.992  19.450  0.00  0.00    +0.000 C 
ATOM      3  O   UNL     1       1.804   5.720  20.438  0.00  0.00    +0.000 OA
ATOM      4  N   UNL     1       2.427   5.353  18.250  0.00  0.00    +0.000 N 
ATOM      5  H   UNL     1       2.646   4.582  17.627  0.00  0.00    +0.000 HD
BRANCH   2   6
ATOM      6  C   UNL     1       1.200   3.548  19.464  0.00  0.00    +0.000 C 
BRANCH   6   7
ATOM      7  N   UNL     1       1.207   3.052  18.057  0.00  0.00    +0.000 NA
ATOM      8  H   UNL     1       2.123   3.265  17.651  0.00  0.00    +0.000 HD
ATOM      9  H   UNL     1       0.540   3.559  17.484  0.00  0.00    +0.000 HD
ENDBRANCH   6   7
BRANCH   6  10
ATOM     10  C   UNL     1       1.970   2.498  20.324  0.00  0.00    +0.000 C 
ATOM     11  C   UNL     1       1.418   2.464  21.768  0.00  0.00    +0.000 C 
BRANCH  10  13
ATOM     12  C   UNL     1       4.261   2.134  19.104  0.00  0.00    +0.000 C 
ATOM     13  C   UNL     1       3.512   2.592  20.344  0.00  0.00    +0.000 C 
ENDBRANCH  10  13
ENDBRANCH   6  10
ENDBRANCH   2   6
ENDBRANCH   1   4
BRANCH   1  14
ATOM     14  C   UNL     1       2.703   7.929  18.149  0.00  0.00    +0.000 C 
ATOM     15  O   UNL     1       2.862   8.603  17.132  0.00  0.00    +0.000 OA
ATOM     16  N   UNL     1       1.819   8.282  19.146  0.00  0.00    +0.000 N 
ATOM     17  H   UNL     1       1.827   7.655  19.951  0.00  0.00    +0.000 HD
BRANCH  16  18
ATOM     18  C   UNL     1       0.983   9.513  19.264  0.00  0.00    +0.000 C 
BRANCH  18  19
ATOM     19  C   UNL     1       0.186   9.930  17.983  0.00  0.00    +0.000 C 
BRANCH  19  20
ATOM     20  C   UNL     1      -1.255  10.479  18.194  0.00  0.00    +0.000 C 
ATOM     21  C   UNL     1      -1.337  12.005  18.155  0.00  0.00    +0.000 C 
ATOM     22  C   UNL     1      -2.233   9.915  17.151  0.00  0.00    +0.000 C 
ENDBRANCH  19  20
ENDBRANCH  18  19
BRANCH  18  23
ATOM     23  C   UNL     1       0.033   9.374  20.463  0.00  0.00    +0.000 C 
BRANCH  23  24
ATOM     24  S   UNL     1       0.228  10.704  21.622  0.00  0.00    +0.000 S 
ATOM     25  O   UNL     1      -0.975  11.517  21.610  0.00  0.00    +0.000 OA
ATOM     26  O   UNL     1       0.767  10.170  22.856  0.00  0.00    +0.000 OA
ATOM     27  F   UNL     1       1.370  11.632  21.027  0.00  0.00    +0.000 F 
ENDBRANCH  23  24
ENDBRANCH  18  23
ENDBRANCH  16  18
ENDBRANCH   1  14
BRANCH   1  28
ATOM     28  C   UNL     1       4.567   6.378  17.297  0.00  0.00    +0.000 C 
ATOM     29  C   UNL     1       5.918   6.125  17.976  0.00  0.00    +0.000 C 
BRANCH  28  30
ATOM     30  O   UNL     1       4.432   5.298  16.365  0.00  0.00    +0.000 OA
BRANCH  30  31
ATOM     31  C   UNL     1       5.505   4.363  16.317  0.00  0.00    +0.000 C 
BRANCH  31  32
ATOM     32  C   UNL     1       6.014   4.369  14.905  0.00  0.00    +0.000 A 
ATOM     33  C   UNL     1       5.393   3.571  13.931  0.00  0.00    +0.000 A 
ATOM     34  C   UNL     1       5.916   3.509  12.635  0.00  0.00    +0.000 A 
ATOM     35  C   UNL     1       7.051   4.241  12.310  0.00  0.00    +0.000 A 
ATOM     36  C   UNL     1       7.678   5.029  13.275  0.00  0.00    +0.000 A 
ATOM     37  C   UNL     1       7.160   5.093  14.570  0.00  0.00    +0.000 A 
ENDBRANCH  31  32
ENDBRANCH  30  31
ENDBRANCH  28  30
ENDBRANCH   1  28
TORSDOF 15
ENDMDL
MODEL 4
REMARK VINA RESULT:      -7.4      2.913      7.920
REMARK  Name = 
REMARK  20 active torsions:
REMARK  status: ('A' for Active; 'I' for Inactive)
REMARK    1  A    between atoms: C_1  and  C_2
REMARK    2  A    between atoms: C_2  and  C_3
REMARK    3  A    between atoms: C_3  and  C_4
REMARK    4  A    between atoms: C_3  and  C_5
REMARK    5  A    between atoms: C_5  and  N_6
REMARK    6  A    between atoms: C_5  and  C_7
REMARK    7  A    between atoms: N_9  and  C_10
REMARK    8  A    between atoms: C_10  and  C_11
REMARK    9  A    between atoms: C_10  and  C_24
REMARK   10  A    between atoms: N_13  and  C_14
REMARK   11  A    between atoms: C_14  and  C_15
REMARK   12  A    between atoms: C_14  and  C_19
REMARK   13  A    between atoms: C_15  and  C_16
REMARK   14  A    between atoms: C_16  and  C_17
REMARK   15  A    between atoms: C_16  and  C_18
REMARK   16  A    between atoms: C_19  and  S_20
REMARK   17  A    between atoms: C_24  and  C_25
REMARK   18  A    between atoms: C_24  and  O_26
REMARK   19  A    between atoms: O_26  and  C_27
REMARK   20  A    between atoms: C_27  and  C_28
REMARK                            x       y       z     vdW  Elec       q    Type
REMARK                         _______ _______ _______ _____ _____    ______ ____
ROOT
ATOM      1  C   UNL     1       3.094   6.712  18.551  0.00  0.00    +0.000 C 
ENDROOT
BRANCH   1   4
ATOM      2  C   UNL     1       1.624   5.071  19.678  0.00  0.00    +0.000 C 
ATOM      3  O   UNL     1       1.700   5.699  20.729  0.00  0.00    +0.000 OA
ATOM      4  N   UNL     1       2.175   5.552  18.480  0.00  0.00    +0.000 N 
ATOM      5  H   UNL     1       2.354   4.847  17.772  0.00  0.00    +0.000 HD
BRANCH   2   6
ATOM      6  C   UNL     1       1.038   3.626  19.592  0.00  0.00    +0.000 C 
BRANCH   6   7
ATOM      7  N   UNL     1       0.864   3.304  18.145  0.00  0.00    +0.000 NA
ATOM      8  H   UNL     1       0.683   4.180  17.645  0.00  0.00    +0.000 HD
ATOM      9  H   UNL     1       0.036   2.736  17.992  0.00  0.00    +0.000 HD
ENDBRANCH   6   7
BRANCH   6  10
ATOM     10  C   UNL     1       1.914   2.492  20.211  0.00  0.00    +0.000 C 
ATOM     11  C   UNL     1       1.795   2.490  21.753  0.00  0.00    +0.000 C 
BRANCH  10  13
ATOM     12  C   UNL     1       3.760   1.557  18.602  0.00  0.00    +0.000 C 
ATOM     13  C   UNL     1       3.399   2.434  19.790  0.00  0.00    +0.000 C 
ENDBRANCH  10  13
ENDBRANCH   6  10
ENDBRANCH   2   6
ENDBRANCH   1   4
BRANCH   1  14
ATOM     14  C   UNL     1       2.482   8.114  18.231  0.00  0.00    +0.000 C 
ATOM     15  O   UNL     1       2.620   8.617  17.117  0.00  0.00    +0.000 OA
ATOM     16  N   UNL     1       1.647   8.648  19.190  0.00  0.00    +0.000 N 
ATOM     17  H   UNL     1       1.669   8.154  20.083  0.00  0.00    +0.000 HD
BRANCH  16  18
ATOM     18  C   UNL     1       0.851   9.910  19.142  0.00  0.00    +0.000 C 
BRANCH  18  19
ATOM     19  C   UNL     1      -0.651   9.760  18.727  0.00  0.00    +0.000 C 
BRANCH  19  20
ATOM     20  C   UNL     1      -1.361  11.030  18.174  0.00  0.00    +0.000 C 
ATOM     21  C   UNL     1      -2.272  10.746  16.979  0.00  0.00    +0.000 C 
ATOM     22  C   UNL     1      -2.192  11.732  19.260  0.00  0.00    +0.000 C 
ENDBRANCH  19  20
ENDBRANCH  18  19
BRANCH  18  23
ATOM     23  C   UNL     1       0.964  10.638  20.490  0.00  0.00    +0.000 C 
BRANCH  23  24
ATOM     24  S   UNL     1       0.631   9.559  21.859  0.00  0.00    +0.000 S 
ATOM     25  O   UNL     1       1.728   8.616  21.990  0.00  0.00    +0.000 OA
ATOM     26  O   UNL     1       0.181  10.356  22.981  0.00  0.00    +0.000 OA
ATOM     27  F   UNL     1      -0.624   8.688  21.427  0.00  0.00    +0.000 F 
ENDBRANCH  23  24
ENDBRANCH  18  23
ENDBRANCH  16  18
ENDBRANCH   1  14
BRANCH   1  28
ATOM     28  C   UNL     1       4.439   6.512  17.780  0.00  0.00    +0.000 C 
ATOM     29  C   UNL     1       5.570   5.880  18.599  0.00  0.00    +0.000 C 
BRANCH  28  30
ATOM     30  O   UNL     1       4.316   5.661  16.634  0.00  0.00    +0.000 OA
BRANCH  30  31
ATOM     31  C   UNL     1       5.170   4.523  16.591  0.00  0.00    +0.000 C 
BRANCH  31  32
ATOM     32  C   UNL     1       5.770   4.490  15.215  0.00  0.00    +0.000 A 
ATOM     33  C   UNL     1       5.127   3.785  14.186  0.00  0.00    +0.000 A 
ATOM     34  C   UNL     1       5.723   3.681  12.926  0.00  0.00    +0.000 A 
ATOM     35  C   UNL     1       6.955   4.279  12.689  0.00  0.00    +0.000 A 
ATOM     36  C   UNL     1       7.603   4.974  13.710  0.00  0.00    +0.000 A 
ATOM     37  C   UNL     1       7.012   5.080  14.970  0.00  0.00    +0.000 A 
ENDBRANCH  31  32
ENDBRANCH  30  31
ENDBRANCH  28  30
ENDBRANCH   1  28
TORSDOF 15
ENDMDL
MODEL 5
REMARK VINA RESULT:      -7.4      2.059      2.957
REMARK  Name = 
REMARK  20 active torsions:
REMARK  status: ('A' for Active; 'I' for Inactive)
REMARK    1  A    between atoms: C_1  and  C_2
REMARK    2  A    between atoms: C_2  and  C_3
REMARK    3  A    between atoms: C_3  and  C_4
REMARK    4  A    between atoms: C_3  and  C_5
REMARK    5  A    between atoms: C_5  and  N_6
REMARK    6  A    between atoms: C_5  and  C_7
REMARK    7  A    between atoms: N_9  and  C_10
REMARK    8  A    between atoms: C_10  and  C_11
REMARK    9  A    between atoms: C_10  and  C_24
REMARK   10  A    between atoms: N_13  and  C_14
REMARK   11  A    between atoms: C_14  and  C_15
REMARK   12  A    between atoms: C_14  and  C_19
REMARK   13  A    between atoms: C_15  and  C_16
REMARK   14  A    between atoms: C_16  and  C_17
REMARK   15  A    between atoms: C_16  and  C_18
REMARK   16  A    between atoms: C_19  and  S_20
REMARK   17  A    between atoms: C_24  and  C_25
REMARK   18  A    between atoms: C_24  and  O_26
REMARK   19  A    between atoms: O_26  and  C_27
REMARK   20  A    between atoms: C_27  and  C_28
REMARK                            x       y       z     vdW  Elec       q    Type
REMARK                         _______ _______ _______ _____ _____    ______ ____
ROOT
ATOM      1  C   UNL     1       2.576   6.547  18.194  0.00  0.00    +0.000 C 
ENDROOT
BRANCH   1   4
ATOM      2  C   UNL     1       1.699   4.245  18.440  0.00  0.00    +0.000 C 
ATOM      3  O   UNL     1       1.720   4.090  17.223  0.00  0.00    +0.000 OA
ATOM      4  N   UNL     1       2.229   5.391  19.055  0.00  0.00    +0.000 N 
ATOM      5  H   UNL     1       1.880   5.583  19.989  0.00  0.00    +0.000 HD
BRANCH   2   6
ATOM      6  C   UNL     1       0.966   3.267  19.410  0.00  0.00    +0.000 C 
BRANCH   6   7
ATOM      7  N   UNL     1       0.183   2.314  18.571  0.00  0.00    +0.000 NA
ATOM      8  H   UNL     1       0.722   2.123  17.721  0.00  0.00    +0.000 HD
ATOM      9  H   UNL     1      -0.682   2.735  18.246  0.00  0.00    +0.000 HD
ENDBRANCH   6   7
BRANCH   6  10
ATOM     10  C   UNL     1       1.880   2.411  20.342  0.00  0.00    +0.000 C 
ATOM     11  C   UNL     1       1.795   2.914  21.802  0.00  0.00    +0.000 C 
BRANCH  10  13
ATOM     12  C   UNL     1       3.641   1.424  18.669  0.00  0.00    +0.000 C 
ATOM     13  C   UNL     1       3.356   2.237  19.922  0.00  0.00    +0.000 C 
ENDBRANCH  10  13
ENDBRANCH   6  10
ENDBRANCH   2   6
ENDBRANCH   1   4
BRANCH   1  14
ATOM     14  C   UNL     1       4.016   6.563  17.586  0.00  0.00    +0.000 C 
ATOM     15  O   UNL     1       4.583   7.628  17.351  0.00  0.00    +0.000 OA
ATOM     16  N   UNL     1       4.656   5.345  17.506  0.00  0.00    +0.000 N 
ATOM     17  H   UNL     1       4.050   4.543  17.680  0.00  0.00    +0.000 HD
BRANCH  16  18
ATOM     18  C   UNL     1       6.050   5.046  17.062  0.00  0.00    +0.000 C 
BRANCH  18  19
ATOM     19  C   UNL     1       7.035   4.552  18.173  0.00  0.00    +0.000 C 
BRANCH  19  20
ATOM     20  C   UNL     1       8.073   5.583  18.707  0.00  0.00    +0.000 C 
ATOM     21  C   UNL     1       7.830   7.007  18.204  0.00  0.00    +0.000 C 
ATOM     22  C   UNL     1       8.104   5.611  20.243  0.00  0.00    +0.000 C 
ENDBRANCH  19  20
ENDBRANCH  18  19
BRANCH  18  23
ATOM     23  C   UNL     1       6.014   4.047  15.896  0.00  0.00    +0.000 C 
BRANCH  23  24
ATOM     24  S   UNL     1       5.933   4.864  14.323  0.00  0.00    +0.000 S 
ATOM     25  O   UNL     1       5.386   6.196  14.514  0.00  0.00    +0.000 OA
ATOM     26  O   UNL     1       7.184   4.655  13.626  0.00  0.00    +0.000 OA
ATOM     27  F   UNL     1       4.842   4.076  13.482  0.00  0.00    +0.000 F 
ENDBRANCH  23  24
ENDBRANCH  18  23
ENDBRANCH  16  18
ENDBRANCH   1  14
BRANCH   1  28
ATOM     28  C   UNL     1       2.229   7.937  18.819  0.00  0.00    +0.000 C 
ATOM     29  C   UNL     1       1.686   8.976  17.832  0.00  0.00    +0.000 C 
BRANCH  28  30
ATOM     30  O   UNL     1       1.228   7.866  19.842  0.00  0.00    +0.000 OA
BRANCH  30  31
ATOM     31  C   UNL     1       1.645   8.188  21.164  0.00  0.00    +0.000 C 
BRANCH  31  32
ATOM     32  C   UNL     1       0.777   9.324  21.622  0.00  0.00    +0.000 A 
ATOM     33  C   UNL     1       0.012   9.196  22.792  0.00  0.00    +0.000 A 
ATOM     34  C   UNL     1      -0.861  10.218  23.176  0.00  0.00    +0.000 A 
ATOM     35  C   UNL     1      -0.971  11.366  22.400  0.00  0.00    +0.000 A 
ATOM     36  C   UNL     1      -0.220  11.496  21.232  0.00  0.00    +0.000 A 
ATOM     37  C   UNL     1       0.653  10.478  20.844  0.00  0.00    +0.000 A 
ENDBRANCH  31  32
ENDBRANCH  30  31
ENDBRANCH  28  30
ENDBRANCH   1  28
TORSDOF 15
ENDMDL
MODEL 6
REMARK VINA RESULT:      -7.2      3.363      7.783
REMARK  Name = 
REMARK  20 active torsions:
REMARK  status: ('A' for Active; 'I' for Inactive)
REMARK    1  A    between atoms: C_1  and  C_2
REMARK    2  A    between atoms: C_2  and  C_3
REMARK    3  A    between atoms: C_3  and  C_4
REMARK    4  A    between atoms: C_3  and  C_5
REMARK    5  A    between atoms: C_5  and  N_6
REMARK    6  A    between atoms: C_5  and  C_7
REMARK    7  A    between atoms: N_9  and  C_10
REMARK    8  A    between atoms: C_10  and  C_11
REMARK    9  A    between atoms: C_10  and  C_24
REMARK   10  A    between atoms: N_13  and  C_14
REMARK   11  A    between atoms: C_14  and  C_15
REMARK   12  A    between atoms: C_14  and  C_19
REMARK   13  A    between atoms: C_15  and  C_16
REMARK   14  A    between atoms: C_16  and  C_17
REMARK   15  A    between atoms: C_16  and  C_18
REMARK   16  A    between atoms: C_19  and  S_20
REMARK   17  A    between atoms: C_24  and  C_25
REMARK   18  A    between atoms: C_24  and  O_26
REMARK   19  A    between atoms: O_26  and  C_27
REMARK   20  A    between atoms: C_27  and  C_28
REMARK                            x       y       z     vdW  Elec       q    Type
REMARK                         _______ _______ _______ _____ _____    ______ ____
ROOT
ATOM      1  C   UNL     1       2.647   6.487  19.165  0.00  0.00    +0.000 C 
ENDROOT
BRANCH   1   4
ATOM      2  C   UNL     1       4.543   5.476  17.936  0.00  0.00    +0.000 C 
ATOM      3  O   UNL     1       3.859   5.389  16.920  0.00  0.00    +0.000 OA
ATOM      4  N   UNL     1       4.083   6.132  19.090  0.00  0.00    +0.000 N 
ATOM      5  H   UNL     1       4.554   5.874  19.951  0.00  0.00    +0.000 HD
BRANCH   2   6
ATOM      6  C   UNL     1       5.919   4.758  18.099  0.00  0.00    +0.000 C 
BRANCH   6   7
ATOM      7  N   UNL     1       6.037   3.768  16.990  0.00  0.00    +0.000 NA
ATOM      8  H   UNL     1       5.636   2.883  17.311  0.00  0.00    +0.000 HD
ATOM      9  H   UNL     1       7.010   3.559  16.786  0.00  0.00    +0.000 HD
ENDBRANCH   6   7
BRANCH   6  10
ATOM     10  C   UNL     1       7.182   5.672  18.035  0.00  0.00    +0.000 C 
ATOM     11  C   UNL     1       7.826   5.814  19.434  0.00  0.00    +0.000 C 
BRANCH  10  13
ATOM     12  C   UNL     1       7.980   8.159  17.806  0.00  0.00    +0.000 C 
ATOM     13  C   UNL     1       7.019   7.061  17.379  0.00  0.00    +0.000 C 
ENDBRANCH  10  13
ENDBRANCH   6  10
ENDBRANCH   2   6
ENDBRANCH   1   4
BRANCH   1  14
ATOM     14  C   UNL     1       2.260   7.942  18.743  0.00  0.00    +0.000 C 
ATOM     15  O   UNL     1       2.442   8.328  17.590  0.00  0.00    +0.000 OA
ATOM     16  N   UNL     1       1.554   8.677  19.671  0.00  0.00    +0.000 N 
ATOM     17  H   UNL     1       1.523   8.256  20.600  0.00  0.00    +0.000 HD
BRANCH  16  18
ATOM     18  C   UNL     1       0.970  10.045  19.536  0.00  0.00    +0.000 C 
BRANCH  18  19
ATOM     19  C   UNL     1      -0.376  10.144  18.745  0.00  0.00    +0.000 C 
BRANCH  19  20
ATOM     20  C   UNL     1      -1.234  11.425  18.967  0.00  0.00    +0.000 C 
ATOM     21  C   UNL     1      -0.660  12.667  18.284  0.00  0.00    +0.000 C 
ATOM     22  C   UNL     1      -2.678  11.228  18.482  0.00  0.00    +0.000 C 
ENDBRANCH  19  20
ENDBRANCH  18  19
BRANCH  18  23
ATOM     23  C   UNL     1       0.821  10.678  20.928  0.00  0.00    +0.000 C 
BRANCH  23  24
ATOM     24  S   UNL     1       0.379   9.479  22.159  0.00  0.00    +0.000 S 
ATOM     25  O   UNL     1       0.013  10.174  23.381  0.00  0.00    +0.000 OA
ATOM     26  O   UNL     1      -0.499   8.497  21.558  0.00  0.00    +0.000 OA
ATOM     27  F   UNL     1       1.717   8.698  22.503  0.00  0.00    +0.000 F 
ENDBRANCH  23  24
ENDBRANCH  18  23
ENDBRANCH  16  18
ENDBRANCH   1  14
BRANCH   1  28
ATOM     28  C   UNL     1       1.963   6.108  20.518  0.00  0.00    +0.000 C 
ATOM     29  C   UNL     1       0.512   5.630  20.402  0.00  0.00    +0.000 C 
BRANCH  28  30
ATOM     30  O   UNL     1       2.629   5.046  21.213  0.00  0.00    +0.000 OA
BRANCH  30  31
ATOM     31  C   UNL     1       1.946   3.799  21.276  0.00  0.00    +0.000 C 
BRANCH  31  32
ATOM     32  C   UNL     1       2.515   2.944  20.182  0.00  0.00    +0.000 A 
ATOM     33  C   UNL     1       3.790   2.374  20.328  0.00  0.00    +0.000 A 
ATOM     34  C   UNL     1       4.359   1.647  19.278  0.00  0.00    +0.000 A 
ATOM     35  C   UNL     1       3.661   1.485  18.087  0.00  0.00    +0.000 A 
ATOM     36  C   UNL     1       2.398   2.056  17.933  0.00  0.00    +0.000 A 
ATOM     37  C   UNL     1       1.826   2.783  18.978  0.00  0.00    +0.000 A 
ENDBRANCH  31  32
ENDBRANCH  30  31
ENDBRANCH  28  30
ENDBRANCH   1  28
TORSDOF 15
ENDMDL
MODEL 7
REMARK VINA RESULT:      -7.2      3.078      8.479
REMARK  Name = 
REMARK  20 active torsions:
REMARK  status: ('A' for Active; 'I' for Inactive)
REMARK    1  A    between atoms: C_1  and  C_2
REMARK    2  A    between atoms: C_2  and  C_3
REMARK    3  A    between atoms: C_3  and  C_4
REMARK    4  A    between atoms: C_3  and  C_5
REMARK    5  A    between atoms: C_5  and  N_6
REMARK    6  A    between atoms: C_5  and  C_7
REMARK    7  A    between atoms: N_9  and  C_10
REMARK    8  A    between atoms: C_10  and  C_11
REMARK    9  A    between atoms: C_10  and  C_24
REMARK   10  A    between atoms: N_13  and  C_14
REMARK   11  A    between atoms: C_14  and  C_15
REMARK   12  A    between atoms: C_14  and  C_19
REMARK   13  A    between atoms: C_15  and  C_16
REMARK   14  A    between atoms: C_16  and  C_17
REMARK   15  A    between atoms: C_16  and  C_18
REMARK   16  A    between atoms: C_19  and  S_20
REMARK   17  A    between atoms: C_24  and  C_25
REMARK   18  A    between atoms: C_24  and  O_26
REMARK   19  A    between atoms: O_26  and  C_27
REMARK   20  A    between atoms: C_27  and  C_28
REMARK                            x       y       z     vdW  Elec       q    Type
REMARK                         _______ _______ _______ _____ _____    ______ ____
ROOT
ATOM      1  C   UNL     1       3.708   6.655  18.012  0.00  0.00    +0.000 C 
ENDROOT
BRANCH   1   4
ATOM      2  C   UNL     1       3.619   4.254  18.606  0.00  0.00    +0.000 C 
ATOM      3  O   UNL     1       4.583   4.386  19.353  0.00  0.00    +0.000 OA
ATOM      4  N   UNL     1       3.006   5.351  17.978  0.00  0.00    +0.000 N 
ATOM      5  H   UNL     1       2.459   5.127  17.152  0.00  0.00    +0.000 HD
BRANCH   2   6
ATOM      6  C   UNL     1       3.066   2.861  18.169  0.00  0.00    +0.000 C 
BRANCH   6   7
ATOM      7  N   UNL     1       4.234   1.944  18.029  0.00  0.00    +0.000 NA
ATOM      8  H   UNL     1       4.793   2.010  18.884  0.00  0.00    +0.000 HD
ATOM      9  H   UNL     1       4.854   2.248  17.284  0.00  0.00    +0.000 HD
ENDBRANCH   6   7
BRANCH   6  10
ATOM     10  C   UNL     1       2.065   2.180  19.154  0.00  0.00    +0.000 C 
ATOM     11  C   UNL     1       0.607   2.545  18.790  0.00  0.00    +0.000 C 
BRANCH  10  13
ATOM     12  C   UNL     1       1.313   3.255  21.424  0.00  0.00    +0.000 C 
ATOM     13  C   UNL     1       2.306   2.388  20.666  0.00  0.00    +0.000 C 
ENDBRANCH  10  13
ENDBRANCH   6  10
ENDBRANCH   2   6
ENDBRANCH   1   4
BRANCH   1  14
ATOM     14  C   UNL     1       2.811   7.933  18.081  0.00  0.00    +0.000 C 
ATOM     15  O   UNL     1       2.750   8.706  17.126  0.00  0.00    +0.000 OA
ATOM     16  N   UNL     1       1.980   8.036  19.176  0.00  0.00    +0.000 N 
ATOM     17  H   UNL     1       2.177   7.357  19.913  0.00  0.00    +0.000 HD
BRANCH  16  18
ATOM     18  C   UNL     1       0.954   9.077  19.480  0.00  0.00    +0.000 C 
BRANCH  18  19
ATOM     19  C   UNL     1       1.273  10.026  20.683  0.00  0.00    +0.000 C 
BRANCH  19  20
ATOM     20  C   UNL     1       0.444   9.818  21.985  0.00  0.00    +0.000 C 
ATOM     21  C   UNL     1      -0.521  10.967  22.281  0.00  0.00    +0.000 C 
ATOM     22  C   UNL     1      -0.359   8.509  21.942  0.00  0.00    +0.000 C 
ENDBRANCH  19  20
ENDBRANCH  18  19
BRANCH  18  23
ATOM     23  C   UNL     1       0.665   9.897  18.214  0.00  0.00    +0.000 C 
BRANCH  23  24
ATOM     24  S   UNL     1      -1.006  10.493  18.176  0.00  0.00    +0.000 S 
ATOM     25  O   UNL     1      -1.014  11.894  18.560  0.00  0.00    +0.000 OA
ATOM     26  O   UNL     1      -1.632  10.042  16.951  0.00  0.00    +0.000 OA
ATOM     27  F   UNL     1      -1.763   9.731  19.344  0.00  0.00    +0.000 F 
ENDBRANCH  23  24
ENDBRANCH  18  23
ENDBRANCH  16  18
ENDBRANCH   1  14
BRANCH   1  28
ATOM     28  C   UNL     1       4.811   6.817  16.916  0.00  0.00    +0.000 C 
ATOM     29  C   UNL     1       6.244   6.933  17.448  0.00  0.00    +0.000 C 
BRANCH  28  30
ATOM     30  O   UNL     1       4.865   5.719  15.996  0.00  0.00    +0.000 OA
BRANCH  30  31
ATOM     31  C   UNL     1       6.075   4.971  15.969  0.00  0.00    +0.000 C 
BRANCH  31  32
ATOM     32  C   UNL     1       6.381   4.706  14.523  0.00  0.00    +0.000 A 
ATOM     33  C   UNL     1       5.624   3.767  13.806  0.00  0.00    +0.000 A 
ATOM     34  C   UNL     1       5.959   3.456  12.484  0.00  0.00    +0.000 A 
ATOM     35  C   UNL     1       7.042   4.079  11.878  0.00  0.00    +0.000 A 
ATOM     36  C   UNL     1       7.804   5.007  12.588  0.00  0.00    +0.000 A 
ATOM     37  C   UNL     1       7.474   5.321  13.907  0.00  0.00    +0.000 A 
ENDBRANCH  31  32
ENDBRANCH  30  31
ENDBRANCH  28  30
ENDBRANCH   1  28
TORSDOF 15
ENDMDL
MODEL 8
REMARK VINA RESULT:      -7.2      2.688      6.519
REMARK  Name = 
REMARK  20 active torsions:
REMARK  status: ('A' for Active; 'I' for Inactive)
REMARK    1  A    between atoms: C_1  and  C_2
REMARK    2  A    between atoms: C_2  and  C_3
REMARK    3  A    between atoms: C_3  and  C_4
REMARK    4  A    between atoms: C_3  and  C_5
REMARK    5  A    between atoms: C_5  and  N_6
REMARK    6  A    between atoms: C_5  and  C_7
REMARK    7  A    between atoms: N_9  and  C_10
REMARK    8  A    between atoms: C_10  and  C_11
REMARK    9  A    between atoms: C_10  and  C_24
REMARK   10  A    between atoms: N_13  and  C_14
REMARK   11  A    between atoms: C_14  and  C_15
REMARK   12  A    between atoms: C_14  and  C_19
REMARK   13  A    between atoms: C_15  and  C_16
REMARK   14  A    between atoms: C_16  and  C_17
REMARK   15  A    between atoms: C_16  and  C_18
REMARK   16  A    between atoms: C_19  and  S_20
REMARK   17  A    between atoms: C_24  and  C_25
REMARK   18  A    between atoms: C_24  and  O_26
REMARK   19  A    between atoms: O_26  and  C_27
REMARK   20  A    between atoms: C_27  and  C_28
REMARK                            x       y       z     vdW  Elec       q    Type
REMARK                         _______ _______ _______ _____ _____    ______ ____
ROOT
ATOM      1  C   UNL     1       2.276   8.283  18.972  0.00  0.00    +0.000 C 
ENDROOT
BRANCH   1   4
ATOM      2  C   UNL     1       1.042  10.337  18.351  0.00  0.00    +0.000 C 
ATOM      3  O   UNL     1       2.077  10.994  18.404  0.00  0.00    +0.000 OA
ATOM      4  N   UNL     1       1.039   8.940  18.489  0.00  0.00    +0.000 N 
ATOM      5  H   UNL     1       0.149   8.534  18.760  0.00  0.00    +0.000 HD
BRANCH   2   6
ATOM      6  C   UNL     1      -0.374  10.987  18.268  0.00  0.00    +0.000 C 
BRANCH   6   7
ATOM      7  N   UNL     1      -1.176  10.180  17.303  0.00  0.00    +0.000 NA
ATOM      8  H   UNL     1      -2.136  10.127  17.656  0.00  0.00    +0.000 HD
ATOM      9  H   UNL     1      -0.854   9.218  17.270  0.00  0.00    +0.000 HD
ENDBRANCH   6   7
BRANCH   6  10
ATOM     10  C   UNL     1      -1.183  11.043  19.601  0.00  0.00    +0.000 C 
ATOM     11  C   UNL     1      -2.401  11.987  19.462  0.00  0.00    +0.000 C 
BRANCH  10  13
ATOM     12  C   UNL     1       0.296  12.718  20.972  0.00  0.00    +0.000 C 
ATOM     13  C   UNL     1      -0.400  11.369  20.892  0.00  0.00    +0.000 C 
ENDBRANCH  10  13
ENDBRANCH   6  10
ENDBRANCH   2   6
ENDBRANCH   1   4
BRANCH   1  14
ATOM     14  C   UNL     1       3.205   7.649  17.887  0.00  0.00    +0.000 C 
ATOM     15  O   UNL     1       3.262   8.129  16.755  0.00  0.00    +0.000 OA
ATOM     16  N   UNL     1       4.066   6.664  18.322  0.00  0.00    +0.000 N 
ATOM     17  H   UNL     1       3.870   6.328  19.265  0.00  0.00    +0.000 HD
BRANCH  16  18
ATOM     18  C   UNL     1       5.123   5.939  17.557  0.00  0.00    +0.000 C 
BRANCH  18  19
ATOM     19  C   UNL     1       6.160   5.135  18.410  0.00  0.00    +0.000 C 
BRANCH  19  20
ATOM     20  C   UNL     1       7.617   5.683  18.453  0.00  0.00    +0.000 C 
ATOM     21  C   UNL     1       7.750   7.100  17.895  0.00  0.00    +0.000 C 
ATOM     22  C   UNL     1       8.185   5.669  19.881  0.00  0.00    +0.000 C 
ENDBRANCH  19  20
ENDBRANCH  18  19
BRANCH  18  23
ATOM     23  C   UNL     1       4.465   5.024  16.513  0.00  0.00    +0.000 C 
BRANCH  23  24
ATOM     24  S   UNL     1       5.591   4.581  15.215  0.00  0.00    +0.000 S 
ATOM     25  O   UNL     1       6.417   5.733  14.896  0.00  0.00    +0.000 OA
ATOM     26  O   UNL     1       6.177   3.295  15.526  0.00  0.00    +0.000 OA
ATOM     27  F   UNL     1       4.693   4.338  13.929  0.00  0.00    +0.000 F 
ENDBRANCH  23  24
ENDBRANCH  18  23
ENDBRANCH  16  18
ENDBRANCH   1  14
BRANCH   1  28
ATOM     28  C   UNL     1       2.051   7.284  20.153  0.00  0.00    +0.000 C 
ATOM     29  C   UNL     1       1.028   7.735  21.201  0.00  0.00    +0.000 C 
BRANCH  28  30
ATOM     30  O   UNL     1       1.578   6.000  19.728  0.00  0.00    +0.000 OA
BRANCH  30  31
ATOM     31  C   UNL     1       1.804   4.912  20.618  0.00  0.00    +0.000 C 
BRANCH  31  32
ATOM     32  C   UNL     1       2.335   3.781  19.785  0.00  0.00    +0.000 A 
ATOM     33  C   UNL     1       3.512   3.121  20.168  0.00  0.00    +0.000 A 
ATOM     34  C   UNL     1       4.056   2.124  19.351  0.00  0.00    +0.000 A 
ATOM     35  C   UNL     1       3.428   1.785  18.159  0.00  0.00    +0.000 A 
ATOM     36  C   UNL     1       2.262   2.443  17.769  0.00  0.00    +0.000 A 
ATOM     37  C   UNL     1       1.716   3.439  18.581  0.00  0.00    +0.000 A 
ENDBRANCH  31  32
ENDBRANCH  30  31
ENDBRANCH  28  30
ENDBRANCH   1  28
TORSDOF 15
ENDMDL
MODEL 9
REMARK VINA RESULT:      -7.1      3.054      7.971
REMARK  Name = 
REMARK  20 active torsions:
REMARK  status: ('A' for Active; 'I' for Inactive)
REMARK    1  A    between atoms: C_1  and  C_2
REMARK    2  A    between atoms: C_2  and  C_3
REMARK    3  A    between atoms: C_3  and  C_4
REMARK    4  A    between atoms: C_3  and  C_5
REMARK    5  A    between atoms: C_5  and  N_6
REMARK    6  A    between atoms: C_5  and  C_7
REMARK    7  A    between atoms: N_9  and  C_10
REMARK    8  A    between atoms: C_10  and  C_11
REMARK    9  A    between atoms: C_10  and  C_24
REMARK   10  A    between atoms: N_13  and  C_14
REMARK   11  A    between atoms: C_14  and  C_15
REMARK   12  A    between atoms: C_14  and  C_19
REMARK   13  A    between atoms: C_15  and  C_16
REMARK   14  A    between atoms: C_16  and  C_17
REMARK   15  A    between atoms: C_16  and  C_18
REMARK   16  A    between atoms: C_19  and  S_20
REMARK   17  A    between atoms: C_24  and  C_25
REMARK   18  A    between atoms: C_24  and  O_26
REMARK   19  A    between atoms: O_26  and  C_27
REMARK   20  A    between atoms: C_27  and  C_28
REMARK                            x       y       z     vdW  Elec       q    Type
REMARK                         _______ _______ _______ _____ _____    ______ ____
ROOT
ATOM      1  C   UNL     1       3.474   6.771  18.514  0.00  0.00    +0.000 C 
ENDROOT
BRANCH   1   4
ATOM      2  C   UNL     1       2.270   5.136  19.930  0.00  0.00    +0.000 C 
ATOM      3  O   UNL     1       2.294   5.914  20.878  0.00  0.00    +0.000 OA
ATOM      4  N   UNL     1       2.715   5.505  18.650  0.00  0.00    +0.000 N 
ATOM      5  H   UNL     1       2.965   4.734  18.039  0.00  0.00    +0.000 HD
BRANCH   2   6
ATOM      6  C   UNL     1       1.879   3.632  20.074  0.00  0.00    +0.000 C 
BRANCH   6   7
ATOM      7  N   UNL     1       0.444   3.583  20.478  0.00  0.00    +0.000 NA
ATOM      8  H   UNL     1       0.357   2.927  21.260  0.00  0.00    +0.000 HD
ATOM      9  H   UNL     1      -0.133   3.191  19.739  0.00  0.00    +0.000 HD
ENDBRANCH   6   7
BRANCH   6  10
ATOM     10  C   UNL     1       2.023   2.758  18.788  0.00  0.00    +0.000 C 
ATOM     11  C   UNL     1       0.735   1.942  18.536  0.00  0.00    +0.000 C 
BRANCH  10  13
ATOM     12  C   UNL     1       4.386   2.067  19.689  0.00  0.00    +0.000 C 
ATOM     13  C   UNL     1       3.264   1.843  18.688  0.00  0.00    +0.000 C 
ENDBRANCH  10  13
ENDBRANCH   6  10
ENDBRANCH   2   6
ENDBRANCH   1   4
BRANCH   1  14
ATOM     14  C   UNL     1       2.641   8.061  18.222  0.00  0.00    +0.000 C 
ATOM     15  O   UNL     1       2.645   8.567  17.100  0.00  0.00    +0.000 OA
ATOM     16  N   UNL     1       1.785   8.473  19.221  0.00  0.00    +0.000 N 
ATOM     17  H   UNL     1       1.927   7.997  20.113  0.00  0.00    +0.000 HD
BRANCH  16  18
ATOM     18  C   UNL     1       0.805   9.599  19.211  0.00  0.00    +0.000 C 
BRANCH  18  19
ATOM     19  C   UNL     1      -0.058   9.749  17.914  0.00  0.00    +0.000 C 
BRANCH  19  20
ATOM     20  C   UNL     1      -1.476  10.371  18.077  0.00  0.00    +0.000 C 
ATOM     21  C   UNL     1      -1.472  11.900  18.090  0.00  0.00    +0.000 C 
ATOM     22  C   UNL     1      -2.430   9.899  16.969  0.00  0.00    +0.000 C 
ENDBRANCH  19  20
ENDBRANCH  18  19
BRANCH  18  23
ATOM     23  C   UNL     1      -0.100   9.501  20.448  0.00  0.00    +0.000 C 
BRANCH  23  24
ATOM     24  S   UNL     1       0.623  10.288  21.865  0.00  0.00    +0.000 S 
ATOM     25  O   UNL     1       1.668   9.430  22.395  0.00  0.00    +0.000 OA
ATOM     26  O   UNL     1       0.877  11.677  21.546  0.00  0.00    +0.000 OA
ATOM     27  F   UNL     1      -0.511  10.307  22.975  0.00  0.00    +0.000 F 
ENDBRANCH  23  24
ENDBRANCH  18  23
ENDBRANCH  16  18
ENDBRANCH   1  14
BRANCH   1  28
ATOM     28  C   UNL     1       4.702   6.681  17.551  0.00  0.00    +0.000 C 
ATOM     29  C   UNL     1       5.992   6.157  18.190  0.00  0.00    +0.000 C 
BRANCH  28  30
ATOM     30  O   UNL     1       4.484   5.811  16.432  0.00  0.00    +0.000 OA
BRANCH  30  31
ATOM     31  C   UNL     1       5.182   4.571  16.446  0.00  0.00    +0.000 C 
BRANCH  31  32
ATOM     32  C   UNL     1       5.829   4.429  15.099  0.00  0.00    +0.000 A 
ATOM     33  C   UNL     1       7.051   5.068  14.837  0.00  0.00    +0.000 A 
ATOM     34  C   UNL     1       7.615   5.009  13.559  0.00  0.00    +0.000 A 
ATOM     35  C   UNL     1       6.967   4.314  12.545  0.00  0.00    +0.000 A 
ATOM     36  C   UNL     1       5.748   3.684  12.797  0.00  0.00    +0.000 A 
ATOM     37  C   UNL     1       5.181   3.741  14.072  0.00  0.00    +0.000 A 
ENDBRANCH  31  32
ENDBRANCH  30  31
ENDBRANCH  28  30
ENDBRANCH   1  28
TORSDOF 15
ENDMDL
