MODEL 1
REMARK VINA RESULT:      -7.2      0.000      0.000
REMARK  Name = 
REMARK  7 active torsions:
REMARK  status: ('A' for Active; 'I' for Inactive)
REMARK    1  A    between atoms: C_1  and  O_2
REMARK    2  A    between atoms: O_2  and  C_3
REMARK    3  A    between atoms: C_6  and  C_7
REMARK    4  A    between atoms: C_19  and  O_20
REMARK    5  A    between atoms: O_20  and  C_21
REMARK    6  A    between atoms: C_22  and  O_23
REMARK    7  A    between atoms: O_23  and  C_24
REMARK                            x       y       z     vdW  Elec       q    Type
REMARK                         _______ _______ _______ _____ _____    ______ ____
ROOT
ATOM      1  C   UNL     1       1.177   9.378  19.419  0.00  0.00    +0.000 A 
ATOM      2  C   UNL     1       1.837   9.465  18.204  0.00  0.00    +0.000 A 
ATOM      3  C   UNL     1       2.596   8.399  17.738  0.00  0.00    +0.000 A 
ATOM      4  C   UNL     1       2.718   7.168  18.425  0.00  0.00    +0.000 A 
ATOM      5  C   UNL     1       2.159   7.126  19.734  0.00  0.00    +0.000 A 
ATOM      6  C   UNL     1       1.397   8.253  20.242  0.00  0.00    +0.000 A 
ENDROOT
BRANCH   4   7
ATOM      7  C   UNL     1       3.388   5.969  17.686  0.00  0.00    +0.000 A 
ATOM      8  C   UNL     1       3.914   4.992  18.547  0.00  0.00    +0.000 A 
ATOM      9  S   UNL     1       5.605   5.559  18.958  0.00  0.00    +0.000 S 
ATOM     10  C   UNL     1       5.598   6.591  17.497  0.00  0.00    +0.000 A 
ATOM     11  C   UNL     1       4.520   6.064  16.789  0.00  0.00    +0.000 A 
ATOM     12  N   UNL     1       5.224   5.250  15.813  0.00  0.00    +0.000 N 
ATOM     13  C   UNL     1       5.110   4.026  15.213  0.00  0.00    +0.000 A 
ATOM     14  C   UNL     1       6.374   3.690  14.711  0.00  0.00    +0.000 A 
ATOM     15  C   UNL     1       7.289   4.742  15.014  0.00  0.00    +0.000 A 
ATOM     16  C   UNL     1       6.558   5.630  15.773  0.00  0.00    +0.000 A 
ATOM     17  C   UNL     1       6.839   6.658  16.734  0.00  0.00    +0.000 C 
ATOM     18  O   UNL     1       7.858   7.307  16.940  0.00  0.00    +0.000 OA
ENDBRANCH   4   7
BRANCH   1  20
ATOM     19  C   UNL     1       0.355  11.556  18.964  0.00  0.00    +0.000 C 
ATOM     20  O   UNL     1       0.373  10.412  19.823  0.00  0.00    +0.000 OA
ENDBRANCH   1  20
BRANCH   5  21
ATOM     21  O   UNL     1       2.423   5.962  20.431  0.00  0.00    +0.000 OA
ATOM     22  C   UNL     1       1.363   5.035  20.659  0.00  0.00    +0.000 C 
ENDBRANCH   5  21
BRANCH   6  23
ATOM     23  O   UNL     1       0.907   8.152  21.522  0.00  0.00    +0.000 OA
ATOM     24  C   UNL     1       1.198   9.121  22.522  0.00  0.00    +0.000 C 
ENDBRANCH   6  23
TORSDOF 4
ENDMDL
MODEL 2
REMARK VINA RESULT:      -7.1      1.726      2.875
REMARK  Name = 
REMARK  7 active torsions:
REMARK  status: ('A' for Active; 'I' for Inactive)
REMARK    1  A    between atoms: C_1  and  O_2
REMARK    2  A    between atoms: O_2  and  C_3
REMARK    3  A    between atoms: C_6  and  C_7
REMARK    4  A    between atoms: C_19  and  O_20
REMARK    5  A    between atoms: O_20  and  C_21
REMARK    6  A    between atoms: C_22  and  O_23
REMARK    7  A    between atoms: O_23  and  C_24
REMARK                            x       y       z     vdW  Elec       q    Type
REMARK                         _______ _______ _______ _____ _____    ______ ____
ROOT
ATOM      1  C   UNL     1       1.164   8.933  21.349  0.00  0.00    +0.000 A 
ATOM      2  C   UNL     1       1.380   7.567  21.429  0.00  0.00    +0.000 A 
ATOM      3  C   UNL     1       1.817   6.858  20.317  0.00  0.00    +0.000 A 
ATOM      4  C   UNL     1       2.104   7.460  19.070  0.00  0.00    +0.000 A 
ATOM      5  C   UNL     1       1.751   8.834  18.944  0.00  0.00    +0.000 A 
ATOM      6  C   UNL     1       1.257   9.572  20.094  0.00  0.00    +0.000 A 
ENDROOT
BRANCH   4   7
ATOM      7  C   UNL     1       2.821   6.605  17.980  0.00  0.00    +0.000 A 
ATOM      8  C   UNL     1       2.453   5.250  17.987  0.00  0.00    +0.000 A 
ATOM      9  S   UNL     1       3.555   4.446  19.206  0.00  0.00    +0.000 S 
ATOM     10  C   UNL     1       4.703   5.808  19.042  0.00  0.00    +0.000 A 
ATOM     11  C   UNL     1       4.252   6.414  17.871  0.00  0.00    +0.000 A 
ATOM     12  N   UNL     1       5.227   5.904  16.924  0.00  0.00    +0.000 N 
ATOM     13  C   UNL     1       5.271   5.429  15.641  0.00  0.00    +0.000 A 
ATOM     14  C   UNL     1       6.455   4.692  15.512  0.00  0.00    +0.000 A 
ATOM     15  C   UNL     1       7.157   4.717  16.754  0.00  0.00    +0.000 A 
ATOM     16  C   UNL     1       6.317   5.392  17.613  0.00  0.00    +0.000 A 
ATOM     17  C   UNL     1       6.123   5.473  19.033  0.00  0.00    +0.000 C 
ATOM     18  O   UNL     1       6.878   5.212  19.962  0.00  0.00    +0.000 OA
ENDBRANCH   4   7
BRANCH   1  20
ATOM     19  C   UNL     1      -0.533   9.417  22.934  0.00  0.00    +0.000 C 
ATOM     20  O   UNL     1       0.807   9.625  22.477  0.00  0.00    +0.000 OA
ENDBRANCH   1  20
BRANCH   5  21
ATOM     21  O   UNL     1       1.909   9.351  17.672  0.00  0.00    +0.000 OA
ATOM     22  C   UNL     1       2.542  10.619  17.513  0.00  0.00    +0.000 C 
ENDBRANCH   5  21
BRANCH   6  23
ATOM     23  O   UNL     1       0.913  10.887  19.893  0.00  0.00    +0.000 OA
ATOM     24  C   UNL     1      -0.430  11.290  19.658  0.00  0.00    +0.000 C 
ENDBRANCH   6  23
TORSDOF 4
ENDMDL
MODEL 3
REMARK VINA RESULT:      -6.9      3.325      7.520
REMARK  Name = 
REMARK  7 active torsions:
REMARK  status: ('A' for Active; 'I' for Inactive)
REMARK    1  A    between atoms: C_1  and  O_2
REMARK    2  A    between atoms: O_2  and  C_3
REMARK    3  A    between atoms: C_6  and  C_7
REMARK    4  A    between atoms: C_19  and  O_20
REMARK    5  A    between atoms: O_20  and  C_21
REMARK    6  A    between atoms: C_22  and  O_23
REMARK    7  A    between atoms: O_23  and  C_24
REMARK                            x       y       z     vdW  Elec       q    Type
REMARK                         _______ _______ _______ _____ _____    ______ ____
ROOT
ATOM      1  C   UNL     1       6.381   4.179  13.645  0.00  0.00    +0.000 A 
ATOM      2  C   UNL     1       5.277   3.567  14.215  0.00  0.00    +0.000 A 
ATOM      3  C   UNL     1       4.897   3.871  15.516  0.00  0.00    +0.000 A 
ATOM      4  C   UNL     1       5.561   4.827  16.320  0.00  0.00    +0.000 A 
ATOM      5  C   UNL     1       6.773   5.353  15.791  0.00  0.00    +0.000 A 
ATOM      6  C   UNL     1       7.197   5.008  14.445  0.00  0.00    +0.000 A 
ENDROOT
BRANCH   4   7
ATOM      7  C   UNL     1       4.894   5.260  17.663  0.00  0.00    +0.000 A 
ATOM      8  C   UNL     1       5.523   4.736  18.804  0.00  0.00    +0.000 A 
ATOM      9  S   UNL     1       4.768   3.091  19.071  0.00  0.00    +0.000 S 
ATOM     10  C   UNL     1       3.360   3.595  18.088  0.00  0.00    +0.000 A 
ATOM     11  C   UNL     1       3.528   4.977  18.049  0.00  0.00    +0.000 A 
ATOM     12  N   UNL     1       2.561   5.384  19.053  0.00  0.00    +0.000 N 
ATOM     13  C   UNL     1       2.447   6.289  20.072  0.00  0.00    +0.000 A 
ATOM     14  C   UNL     1       1.426   5.837  20.919  0.00  0.00    +0.000 A 
ATOM     15  C   UNL     1       0.899   4.616  20.400  0.00  0.00    +0.000 A 
ATOM     16  C   UNL     1       1.692   4.332  19.309  0.00  0.00    +0.000 A 
ATOM     17  C   UNL     1       2.047   3.165  18.554  0.00  0.00    +0.000 C 
ATOM     18  O   UNL     1       1.484   2.082  18.439  0.00  0.00    +0.000 OA
ENDBRANCH   4   7
BRANCH   1  20
ATOM     19  C   UNL     1       6.136   2.721  11.791  0.00  0.00    +0.000 C 
ATOM     20  O   UNL     1       6.692   3.921  12.336  0.00  0.00    +0.000 OA
ENDBRANCH   1  20
BRANCH   5  21
ATOM     21  O   UNL     1       7.470   6.170  16.661  0.00  0.00    +0.000 OA
ATOM     22  C   UNL     1       6.999   7.497  16.893  0.00  0.00    +0.000 C 
ENDBRANCH   5  21
BRANCH   6  23
ATOM     23  O   UNL     1       8.390   5.534  14.010  0.00  0.00    +0.000 OA
ATOM     24  C   UNL     1       8.566   6.011  12.682  0.00  0.00    +0.000 C 
ENDBRANCH   6  23
TORSDOF 4
ENDMDL
MODEL 4
REMARK VINA RESULT:      -6.8      2.951      6.811
REMARK  Name = 
REMARK  7 active torsions:
REMARK  status: ('A' for Active; 'I' for Inactive)
REMARK    1  A    between atoms: C_1  and  O_2
REMARK    2  A    between atoms: O_2  and  C_3
REMARK    3  A    between atoms: C_6  and  C_7
REMARK    4  A    between atoms: C_19  and  O_20
REMARK    5  A    between atoms: O_20  and  C_21
REMARK    6  A    between atoms: C_22  and  O_23
REMARK    7  A    between atoms: O_23  and  C_24
REMARK                            x       y       z     vdW  Elec       q    Type
REMARK                         _______ _______ _______ _____ _____    ______ ____
ROOT
ATOM      1  C   UNL     1       7.040   5.167  14.971  0.00  0.00    +0.000 A 
ATOM      2  C   UNL     1       6.359   3.993  14.697  0.00  0.00    +0.000 A 
ATOM      3  C   UNL     1       5.646   3.343  15.696  0.00  0.00    +0.000 A 
ATOM      4  C   UNL     1       5.531   3.833  17.018  0.00  0.00    +0.000 A 
ATOM      5  C   UNL     1       6.341   4.959  17.339  0.00  0.00    +0.000 A 
ATOM      6  C   UNL     1       7.119   5.621  16.305  0.00  0.00    +0.000 A 
ENDROOT
BRANCH   4   7
ATOM      7  C   UNL     1       4.506   3.151  17.977  0.00  0.00    +0.000 A 
ATOM      8  C   UNL     1       3.309   2.770  17.350  0.00  0.00    +0.000 A 
ATOM      9  S   UNL     1       2.231   4.248  17.406  0.00  0.00    +0.000 S 
ATOM     10  C   UNL     1       3.217   4.896  18.751  0.00  0.00    +0.000 A 
ATOM     11  C   UNL     1       3.921   3.763  19.151  0.00  0.00    +0.000 A 
ATOM     12  N   UNL     1       3.156   3.384  20.326  0.00  0.00    +0.000 N 
ATOM     13  C   UNL     1       2.685   2.251  20.931  0.00  0.00    +0.000 A 
ATOM     14  C   UNL     1       1.645   2.639  21.786  0.00  0.00    +0.000 A 
ATOM     15  C   UNL     1       1.476   4.053  21.701  0.00  0.00    +0.000 A 
ATOM     16  C   UNL     1       2.361   4.450  20.722  0.00  0.00    +0.000 A 
ATOM     17  C   UNL     1       2.497   5.565  19.829  0.00  0.00    +0.000 C 
ATOM     18  O   UNL     1       2.037   6.699  19.886  0.00  0.00    +0.000 OA
ENDBRANCH   4   7
BRANCH   1  20
ATOM     19  C   UNL     1       7.784   5.115  12.720  0.00  0.00    +0.000 C 
ATOM     20  O   UNL     1       7.673   5.832  13.953  0.00  0.00    +0.000 OA
ENDBRANCH   1  20
BRANCH   5  21
ATOM     21  O   UNL     1       6.315   5.321  18.672  0.00  0.00    +0.000 OA
ATOM     22  C   UNL     1       7.524   5.270  19.428  0.00  0.00    +0.000 C 
ENDBRANCH   5  21
BRANCH   6  23
ATOM     23  O   UNL     1       7.896   6.686  16.692  0.00  0.00    +0.000 OA
ATOM     24  C   UNL     1       7.331   7.892  17.192  0.00  0.00    +0.000 C 
ENDBRANCH   6  23
TORSDOF 4
ENDMDL
MODEL 5
REMARK VINA RESULT:      -6.5      1.287      2.484
REMARK  Name = 
REMARK  7 active torsions:
REMARK  status: ('A' for Active; 'I' for Inactive)
REMARK    1  A    between atoms: C_1  and  O_2
REMARK    2  A    between atoms: O_2  and  C_3
REMARK    3  A    between atoms: C_6  and  C_7
REMARK    4  A    between atoms: C_19  and  O_20
REMARK    5  A    between atoms: O_20  and  C_21
REMARK    6  A    between atoms: C_22  and  O_23
REMARK    7  A    between atoms: O_23  and  C_24
REMARK                            x       y       z     vdW  Elec       q    Type
REMARK                         _______ _______ _______ _____ _____    ______ ____
ROOT
ATOM      1  C   UNL     1       1.326   8.012  21.054  0.00  0.00    +0.000 A 
ATOM      2  C   UNL     1       1.497   6.640  21.134  0.00  0.00    +0.000 A 
ATOM      3  C   UNL     1       1.971   5.926  20.041  0.00  0.00    +0.000 A 
ATOM      4  C   UNL     1       2.341   6.527  18.816  0.00  0.00    +0.000 A 
ATOM      5  C   UNL     1       2.036   7.911  18.683  0.00  0.00    +0.000 A 
ATOM      6  C   UNL     1       1.504   8.657  19.811  0.00  0.00    +0.000 A 
ENDROOT
BRANCH   4   7
ATOM      7  C   UNL     1       3.089   5.658  17.758  0.00  0.00    +0.000 A 
ATOM      8  C   UNL     1       3.332   4.339  18.174  0.00  0.00    +0.000 A 
ATOM      9  S   UNL     1       4.909   4.398  19.099  0.00  0.00    +0.000 S 
ATOM     10  C   UNL     1       5.315   5.934  18.278  0.00  0.00    +0.000 A 
ATOM     11  C   UNL     1       4.405   5.936  17.223  0.00  0.00    +0.000 A 
ATOM     12  N   UNL     1       5.267   5.505  16.137  0.00  0.00    +0.000 N 
ATOM     13  C   UNL     1       5.220   4.682  15.045  0.00  0.00    +0.000 A 
ATOM     14  C   UNL     1       6.543   4.388  14.689  0.00  0.00    +0.000 A 
ATOM     15  C   UNL     1       7.426   5.052  15.593  0.00  0.00    +0.000 A 
ATOM     16  C   UNL     1       6.594   5.644  16.518  0.00  0.00    +0.000 A 
ATOM     17  C   UNL     1       6.704   6.113  17.869  0.00  0.00    +0.000 C 
ATOM     18  O   UNL     1       7.684   6.441  18.528  0.00  0.00    +0.000 OA
ENDBRANCH   4   7
BRANCH   1  20
ATOM     19  C   UNL     1      -0.481   8.779  22.385  0.00  0.00    +0.000 C 
ATOM     20  O   UNL     1       0.931   8.707  22.167  0.00  0.00    +0.000 OA
ENDBRANCH   1  20
BRANCH   5  21
ATOM     21  O   UNL     1       2.276   8.432  17.425  0.00  0.00    +0.000 OA
ATOM     22  C   UNL     1       2.866   9.726  17.311  0.00  0.00    +0.000 C 
ENDBRANCH   5  21
BRANCH   6  23
ATOM     23  O   UNL     1       1.211   9.983  19.603  0.00  0.00    +0.000 OA
ATOM     24  C   UNL     1      -0.083  10.417  19.204  0.00  0.00    +0.000 C 
ENDBRANCH   6  23
TORSDOF 4
ENDMDL
MODEL 6
REMARK VINA RESULT:      -6.3      7.930     11.055
REMARK  Name = 
REMARK  7 active torsions:
REMARK  status: ('A' for Active; 'I' for Inactive)
REMARK    1  A    between atoms: C_1  and  O_2
REMARK    2  A    between atoms: O_2  and  C_3
REMARK    3  A    between atoms: C_6  and  C_7
REMARK    4  A    between atoms: C_19  and  O_20
REMARK    5  A    between atoms: O_20  and  C_21
REMARK    6  A    between atoms: C_22  and  O_23
REMARK    7  A    between atoms: O_23  and  C_24
REMARK                            x       y       z     vdW  Elec       q    Type
REMARK                         _______ _______ _______ _____ _____    ______ ____
ROOT
ATOM      1  C   UNL     1      -2.902  10.493  17.809  0.00  0.00    +0.000 A 
ATOM      2  C   UNL     1      -1.580  10.659  18.189  0.00  0.00    +0.000 A 
ATOM      3  C   UNL     1      -1.238  11.598  19.153  0.00  0.00    +0.000 A 
ATOM      4  C   UNL     1      -2.184  12.404  19.829  0.00  0.00    +0.000 A 
ATOM      5  C   UNL     1      -3.521  12.336  19.344  0.00  0.00    +0.000 A 
ATOM      6  C   UNL     1      -3.878  11.382  18.307  0.00  0.00    +0.000 A 
ENDROOT
BRANCH   4   7
ATOM      7  C   UNL     1      -1.707  13.237  21.059  0.00  0.00    +0.000 A 
ATOM      8  C   UNL     1      -0.644  12.651  21.764  0.00  0.00    +0.000 A 
ATOM      9  S   UNL     1      -1.419  11.505  22.962  0.00  0.00    +0.000 S 
ATOM     10  C   UNL     1      -2.954  12.411  22.811  0.00  0.00    +0.000 A 
ATOM     11  C   UNL     1      -2.524  13.588  22.201  0.00  0.00    +0.000 A 
ATOM     12  N   UNL     1      -2.490  14.477  23.348  0.00  0.00    +0.000 N 
ATOM     13  C   UNL     1      -1.703  15.471  23.863  0.00  0.00    +0.000 A 
ATOM     14  C   UNL     1      -2.014  15.585  25.224  0.00  0.00    +0.000 A 
ATOM     15  C   UNL     1      -3.025  14.632  25.552  0.00  0.00    +0.000 A 
ATOM     16  C   UNL     1      -3.213  13.913  24.391  0.00  0.00    +0.000 A 
ATOM     17  C   UNL     1      -3.718  12.618  24.036  0.00  0.00    +0.000 C 
ATOM     18  O   UNL     1      -4.462  11.855  24.640  0.00  0.00    +0.000 OA
ENDBRANCH   4   7
BRANCH   1  20
ATOM     19  C   UNL     1      -3.006   9.827  15.535  0.00  0.00    +0.000 C 
ATOM     20  O   UNL     1      -3.225   9.508  16.912  0.00  0.00    +0.000 OA
ENDBRANCH   1  20
BRANCH   5  21
ATOM     21  O   UNL     1      -4.388  13.241  19.927  0.00  0.00    +0.000 OA
ATOM     22  C   UNL     1      -5.560  12.756  20.580  0.00  0.00    +0.000 C 
ENDBRANCH   5  21
BRANCH   6  23
ATOM     23  O   UNL     1      -5.181  11.389  17.871  0.00  0.00    +0.000 OA
ATOM     24  C   UNL     1      -5.647  12.315  16.898  0.00  0.00    +0.000 C 
ENDBRANCH   6  23
TORSDOF 4
ENDMDL
MODEL 7
REMARK VINA RESULT:      -6.2      6.833     11.840
REMARK  Name = 
REMARK  7 active torsions:
REMARK  status: ('A' for Active; 'I' for Inactive)
REMARK    1  A    between atoms: C_1  and  O_2
REMARK    2  A    between atoms: O_2  and  C_3
REMARK    3  A    between atoms: C_6  and  C_7
REMARK    4  A    between atoms: C_19  and  O_20
REMARK    5  A    between atoms: O_20  and  C_21
REMARK    6  A    between atoms: C_22  and  O_23
REMARK    7  A    between atoms: O_23  and  C_24
REMARK                            x       y       z     vdW  Elec       q    Type
REMARK                         _______ _______ _______ _____ _____    ______ ____
ROOT
ATOM      1  C   UNL     1      -0.452  10.112  21.360  0.00  0.00    +0.000 A 
ATOM      2  C   UNL     1      -0.696  10.408  22.691  0.00  0.00    +0.000 A 
ATOM      3  C   UNL     1      -1.314  11.601  23.044  0.00  0.00    +0.000 A 
ATOM      4  C   UNL     1      -1.762  12.557  22.103  0.00  0.00    +0.000 A 
ATOM      5  C   UNL     1      -1.389  12.323  20.750  0.00  0.00    +0.000 A 
ATOM      6  C   UNL     1      -0.708  11.094  20.379  0.00  0.00    +0.000 A 
ENDROOT
BRANCH   4   7
ATOM      7  C   UNL     1      -2.657  13.732  22.607  0.00  0.00    +0.000 A 
ATOM      8  C   UNL     1      -2.803  13.778  24.003  0.00  0.00    +0.000 A 
ATOM      9  S   UNL     1      -4.206  12.669  24.389  0.00  0.00    +0.000 S 
ATOM     10  C   UNL     1      -4.772  12.823  22.699  0.00  0.00    +0.000 A 
ATOM     11  C   UNL     1      -4.049  13.931  22.263  0.00  0.00    +0.000 A 
ATOM     12  N   UNL     1      -5.070  14.960  22.355  0.00  0.00    +0.000 N 
ATOM     13  C   UNL     1      -5.189  16.266  22.743  0.00  0.00    +0.000 A 
ATOM     14  C   UNL     1      -6.547  16.503  22.996  0.00  0.00    +0.000 A 
ATOM     15  C   UNL     1      -7.281  15.303  22.756  0.00  0.00    +0.000 A 
ATOM     16  C   UNL     1      -6.319  14.362  22.459  0.00  0.00    +0.000 A 
ATOM     17  C   UNL     1      -6.213  12.932  22.497  0.00  0.00    +0.000 C 
ATOM     18  O   UNL     1      -7.077  12.062  22.494  0.00  0.00    +0.000 OA
ENDBRANCH   4   7
BRANCH   1  20
ATOM     19  C   UNL     1       1.345   8.590  21.639  0.00  0.00    +0.000 C 
ATOM     20  O   UNL     1       0.088   8.897  21.029  0.00  0.00    +0.000 OA
ENDBRANCH   1  20
BRANCH   5  21
ATOM     21  O   UNL     1      -1.715  13.347  19.881  0.00  0.00    +0.000 OA
ATOM     22  C   UNL     1      -0.737  14.342  19.583  0.00  0.00    +0.000 C 
ENDBRANCH   5  21
BRANCH   6  23
ATOM     23  O   UNL     1      -0.357  10.947  19.058  0.00  0.00    +0.000 OA
ATOM     24  C   UNL     1      -1.225  10.341  18.109  0.00  0.00    +0.000 C 
ENDBRANCH   6  23
TORSDOF 4
ENDMDL
MODEL 8
REMARK VINA RESULT:      -6.2      1.761      2.807
REMARK  Name = 
REMARK  7 active torsions:
REMARK  status: ('A' for Active; 'I' for Inactive)
REMARK    1  A    between atoms: C_1  and  O_2
REMARK    2  A    between atoms: O_2  and  C_3
REMARK    3  A    between atoms: C_6  and  C_7
REMARK    4  A    between atoms: C_19  and  O_20
REMARK    5  A    between atoms: O_20  and  C_21
REMARK    6  A    between atoms: C_22  and  O_23
REMARK    7  A    between atoms: O_23  and  C_24
REMARK                            x       y       z     vdW  Elec       q    Type
REMARK                         _______ _______ _______ _____ _____    ______ ____
ROOT
ATOM      1  C   UNL     1       1.739   6.272  20.214  0.00  0.00    +0.000 A 
ATOM      2  C   UNL     1       2.581   6.962  19.357  0.00  0.00    +0.000 A 
ATOM      3  C   UNL     1       3.344   6.277  18.419  0.00  0.00    +0.000 A 
ATOM      4  C   UNL     1       3.294   4.874  18.246  0.00  0.00    +0.000 A 
ATOM      5  C   UNL     1       2.540   4.152  19.213  0.00  0.00    +0.000 A 
ATOM      6  C   UNL     1       1.769   4.861  20.221  0.00  0.00    +0.000 A 
ENDROOT
BRANCH   4   7
ATOM      7  C   UNL     1       4.004   4.254  17.002  0.00  0.00    +0.000 A 
ATOM      8  C   UNL     1       4.865   3.189  17.312  0.00  0.00    +0.000 A 
ATOM      9  S   UNL     1       6.472   3.959  17.726  0.00  0.00    +0.000 S 
ATOM     10  C   UNL     1       5.977   5.432  16.840  0.00  0.00    +0.000 A 
ATOM     11  C   UNL     1       4.891   4.963  16.104  0.00  0.00    +0.000 A 
ATOM     12  N   UNL     1       5.516   4.785  14.805  0.00  0.00    +0.000 N 
ATOM     13  C   UNL     1       5.505   3.895  13.767  0.00  0.00    +0.000 A 
ATOM     14  C   UNL     1       6.679   4.102  13.030  0.00  0.00    +0.000 A 
ATOM     15  C   UNL     1       7.430   5.152  13.638  0.00  0.00    +0.000 A 
ATOM     16  C   UNL     1       6.722   5.472  14.776  0.00  0.00    +0.000 A 
ATOM     17  C   UNL     1       7.002   6.092  16.039  0.00  0.00    +0.000 C 
ATOM     18  O   UNL     1       7.907   6.845  16.379  0.00  0.00    +0.000 OA
ENDBRANCH   4   7
BRANCH   1  20
ATOM     19  C   UNL     1       1.258   8.358  21.235  0.00  0.00    +0.000 C 
ATOM     20  O   UNL     1       0.939   6.972  21.078  0.00  0.00    +0.000 OA
ENDBRANCH   1  20
BRANCH   5  21
ATOM     21  O   UNL     1       2.631   2.778  19.100  0.00  0.00    +0.000 OA
ATOM     22  C   UNL     1       1.557   2.059  18.497  0.00  0.00    +0.000 C 
ENDBRANCH   5  21
BRANCH   6  23
ATOM     23  O   UNL     1       1.085   4.099  21.137  0.00  0.00    +0.000 OA
ATOM     24  C   UNL     1       1.724   3.087  21.905  0.00  0.00    +0.000 C 
ENDBRANCH   6  23
TORSDOF 4
ENDMDL
MODEL 9
REMARK VINA RESULT:      -6.2      6.939     11.878
REMARK  Name = 
REMARK  7 active torsions:
REMARK  status: ('A' for Active; 'I' for Inactive)
REMARK    1  A    between atoms: C_1  and  O_2
REMARK    2  A    between atoms: O_2  and  C_3
REMARK    3  A    between atoms: C_6  and  C_7
REMARK    4  A    between atoms: C_19  and  O_20
REMARK    5  A    between atoms: O_20  and  C_21
REMARK    6  A    between atoms: C_22  and  O_23
REMARK    7  A    between atoms: O_23  and  C_24
REMARK                            x       y       z     vdW  Elec       q    Type
REMARK                         _______ _______ _______ _____ _____    ______ ____
ROOT
ATOM      1  C   UNL     1      -1.158  10.788  19.091  0.00  0.00    +0.000 A 
ATOM      2  C   UNL     1      -0.915  11.749  20.060  0.00  0.00    +0.000 A 
ATOM      3  C   UNL     1      -1.904  12.657  20.412  0.00  0.00    +0.000 A 
ATOM      4  C   UNL     1      -3.205  12.650  19.857  0.00  0.00    +0.000 A 
ATOM      5  C   UNL     1      -3.413  11.759  18.767  0.00  0.00    +0.000 A 
ATOM      6  C   UNL     1      -2.369  10.832  18.368  0.00  0.00    +0.000 A 
ENDROOT
BRANCH   4   7
ATOM      7  C   UNL     1      -4.296  13.555  20.510  0.00  0.00    +0.000 A 
ATOM      8  C   UNL     1      -3.790  14.738  21.074  0.00  0.00    +0.000 A 
ATOM      9  S   UNL     1      -3.280  14.293  22.774  0.00  0.00    +0.000 S 
ATOM     10  C   UNL     1      -4.356  12.865  22.707  0.00  0.00    +0.000 A 
ATOM     11  C   UNL     1      -5.157  13.171  21.609  0.00  0.00    +0.000 A 
ATOM     12  N   UNL     1      -6.355  13.636  22.284  0.00  0.00    +0.000 N 
ATOM     13  C   UNL     1      -7.296  14.621  22.158  0.00  0.00    +0.000 A 
ATOM     14  C   UNL     1      -7.916  14.766  23.406  0.00  0.00    +0.000 A 
ATOM     15  C   UNL     1      -7.336  13.839  24.323  0.00  0.00    +0.000 A 
ATOM     16  C   UNL     1      -6.320  13.238  23.613  0.00  0.00    +0.000 A 
ATOM     17  C   UNL     1      -5.101  12.546  23.919  0.00  0.00    +0.000 C 
ATOM     18  O   UNL     1      -4.739  11.973  24.940  0.00  0.00    +0.000 OA
ENDBRANCH   4   7
BRANCH   1  20
ATOM     19  C   UNL     1       0.871   9.760  19.765  0.00  0.00    +0.000 C 
ATOM     20  O   UNL     1      -0.195   9.854  18.814  0.00  0.00    +0.000 OA
ENDBRANCH   1  20
BRANCH   5  21
ATOM     21  O   UNL     1      -4.647  11.882  18.156  0.00  0.00    +0.000 OA
ATOM     22  C   UNL     1      -5.684  10.963  18.497  0.00  0.00    +0.000 C 
ENDBRANCH   5  21
BRANCH   6  23
ATOM     23  O   UNL     1      -2.631  10.018  17.292  0.00  0.00    +0.000 OA
ATOM     24  C   UNL     1      -2.612  10.504  15.955  0.00  0.00    +0.000 C 
ENDBRANCH   6  23
TORSDOF 4
ENDMDL
