MODEL 1
REMARK VINA RESULT:      -6.1      0.000      0.000
REMARK  Name = 
REMARK  7 active torsions:
REMARK  status: ('A' for Active; 'I' for Inactive)
REMARK    1  A    between atoms: C_1  and  C_2
REMARK    2  A    between atoms: C_2  and  C_3
REMARK    3  A    between atoms: C_2  and  N_8
REMARK    4  A    between atoms: N_8  and  C_9
REMARK    5  A    between atoms: C_9  and  C_10
REMARK    6  A    between atoms: C_15  and  S_16
REMARK    7  A    between atoms: N_17  and  C_18
REMARK                            x       y       z     vdW  Elec       q    Type
REMARK                         _______ _______ _______ _____ _____    ______ ____
ROOT
ATOM      1  N   UNL     1       4.224   4.130  17.780  0.00  0.00    +0.000 N 
ATOM      2  C   UNL     1       3.911   5.430  18.191  0.00  0.00    +0.000 C 
ATOM      3  N   UNL     1       2.704   5.912  18.121  0.00  0.00    +0.000 NA
ENDROOT
BRANCH   3   4
ATOM      4  C   UNL     1       2.336   7.242  18.445  0.00  0.00    +0.000 A 
ATOM      5  C   UNL     1       2.380   8.263  17.481  0.00  0.00    +0.000 A 
ATOM      6  C   UNL     1       2.039   9.585  17.787  0.00  0.00    +0.000 A 
ATOM      7  C   UNL     1       1.547   9.901  19.048  0.00  0.00    +0.000 A 
ATOM      8  C   UNL     1       1.401   8.891  19.997  0.00  0.00    +0.000 A 
ATOM      9  C   UNL     1       1.800   7.578  19.703  0.00  0.00    +0.000 A 
ATOM     10 CL   UNL     1       1.578   6.398  20.946  0.00  0.00    +0.000 Cl
ENDBRANCH   3   4
BRANCH   1  12
ATOM     11  C   UNL     1       3.999   1.693  17.593  0.00  0.00    +0.000 C 
ATOM     12  C   UNL     1       3.283   3.000  17.955  0.00  0.00    +0.000 C 
BRANCH  12  13
ATOM     13  C   UNL     1       2.508   2.912  19.253  0.00  0.00    +0.000 A 
ATOM     14  C   UNL     1       1.150   3.031  19.481  0.00  0.00    +0.000 A 
ATOM     15  C   UNL     1       0.803   2.890  20.854  0.00  0.00    +0.000 A 
ATOM     16  C   UNL     1       1.913   2.698  21.644  0.00  0.00    +0.000 A 
ATOM     17  S   UNL     1       3.356   2.675  20.731  0.00  0.00    +0.000 S 
ENDBRANCH  12  13
ENDBRANCH   1  12
BRANCH   2  18
ATOM     18  S   UNL     1       5.268   6.372  18.845  0.00  0.00    +0.000 S 
ATOM     19  H   UNL     1       5.748   6.729  17.644  0.00  0.00    +0.000 HD
ENDBRANCH   2  18
BRANCH   1  20
ATOM     20  C   UNL     1       5.581   3.729  17.372  0.00  0.00    +0.000 C 
BRANCH  20  21
ATOM     21  C   UNL     1       5.960   4.117  15.979  0.00  0.00    +0.000 A 
ATOM     22  C   UNL     1       5.309   4.053  14.763  0.00  0.00    +0.000 A 
ATOM     23  C   UNL     1       6.211   4.572  13.802  0.00  0.00    +0.000 A 
ATOM     24  C   UNL     1       7.348   4.920  14.490  0.00  0.00    +0.000 A 
ATOM     25  O   UNL     1       7.204   4.650  15.812  0.00  0.00    +0.000 OA
ENDBRANCH  20  21
ENDBRANCH   1  20
TORSDOF 6
ENDMDL
MODEL 2
REMARK VINA RESULT:      -5.9      2.536      5.090
REMARK  Name = 
REMARK  7 active torsions:
REMARK  status: ('A' for Active; 'I' for Inactive)
REMARK    1  A    between atoms: C_1  and  C_2
REMARK    2  A    between atoms: C_2  and  C_3
REMARK    3  A    between atoms: C_2  and  N_8
REMARK    4  A    between atoms: N_8  and  C_9
REMARK    5  A    between atoms: C_9  and  C_10
REMARK    6  A    between atoms: C_15  and  S_16
REMARK    7  A    between atoms: N_17  and  C_18
REMARK                            x       y       z     vdW  Elec       q    Type
REMARK                         _______ _______ _______ _____ _____    ______ ____
ROOT
ATOM      1  N   UNL     1       5.765   4.768  16.993  0.00  0.00    +0.000 N 
ATOM      2  C   UNL     1       4.727   4.139  17.689  0.00  0.00    +0.000 C 
ATOM      3  N   UNL     1       4.105   4.710  18.679  0.00  0.00    +0.000 NA
ENDROOT
BRANCH   3   4
ATOM      4  C   UNL     1       3.103   4.099  19.475  0.00  0.00    +0.000 A 
ATOM      5  C   UNL     1       3.388   3.628  20.766  0.00  0.00    +0.000 A 
ATOM      6  C   UNL     1       2.417   3.006  21.558  0.00  0.00    +0.000 A 
ATOM      7  C   UNL     1       1.103   2.929  21.113  0.00  0.00    +0.000 A 
ATOM      8  C   UNL     1       0.768   3.474  19.876  0.00  0.00    +0.000 A 
ATOM      9  C   UNL     1       1.758   4.045  19.060  0.00  0.00    +0.000 A 
ATOM     10 CL   UNL     1       1.242   4.693  17.544  0.00  0.00    +0.000 Cl
ENDBRANCH   3   4
BRANCH   1  12
ATOM     11  C   UNL     1       4.349   6.771  16.906  0.00  0.00    +0.000 C 
ATOM     12  C   UNL     1       5.773   6.227  16.741  0.00  0.00    +0.000 C 
BRANCH  12  13
ATOM     13  C   UNL     1       6.815   7.067  17.450  0.00  0.00    +0.000 A 
ATOM     14  C   UNL     1       7.207   8.371  17.216  0.00  0.00    +0.000 A 
ATOM     15  C   UNL     1       8.231   8.810  18.101  0.00  0.00    +0.000 A 
ATOM     16  C   UNL     1       8.616   7.815  18.970  0.00  0.00    +0.000 A 
ATOM     17  S   UNL     1       7.738   6.371  18.724  0.00  0.00    +0.000 S 
ENDBRANCH  12  13
ENDBRANCH   1  12
BRANCH   2  18
ATOM     18  S   UNL     1       4.294   2.516  17.111  0.00  0.00    +0.000 S 
ATOM     19  H   UNL     1       4.693   2.734  15.849  0.00  0.00    +0.000 HD
ENDBRANCH   2  18
BRANCH   1  20
ATOM     20  C   UNL     1       6.794   4.020  16.250  0.00  0.00    +0.000 C 
BRANCH  20  21
ATOM     21  C   UNL     1       6.827   4.283  14.780  0.00  0.00    +0.000 A 
ATOM     22  C   UNL     1       6.072   3.834  13.714  0.00  0.00    +0.000 A 
ATOM     23  C   UNL     1       6.611   4.449  12.558  0.00  0.00    +0.000 A 
ATOM     24  C   UNL     1       7.653   5.234  12.990  0.00  0.00    +0.000 A 
ATOM     25  O   UNL     1       7.791   5.142  14.337  0.00  0.00    +0.000 OA
ENDBRANCH  20  21
ENDBRANCH   1  20
TORSDOF 6
ENDMDL
MODEL 3
REMARK VINA RESULT:      -5.7      2.142      4.715
REMARK  Name = 
REMARK  7 active torsions:
REMARK  status: ('A' for Active; 'I' for Inactive)
REMARK    1  A    between atoms: C_1  and  C_2
REMARK    2  A    between atoms: C_2  and  C_3
REMARK    3  A    between atoms: C_2  and  N_8
REMARK    4  A    between atoms: N_8  and  C_9
REMARK    5  A    between atoms: C_9  and  C_10
REMARK    6  A    between atoms: C_15  and  S_16
REMARK    7  A    between atoms: N_17  and  C_18
REMARK                            x       y       z     vdW  Elec       q    Type
REMARK                         _______ _______ _______ _____ _____    ______ ____
ROOT
ATOM      1  N   UNL     1       4.089   4.218  17.708  0.00  0.00    +0.000 N 
ATOM      2  C   UNL     1       3.207   5.281  17.926  0.00  0.00    +0.000 C 
ATOM      3  N   UNL     1       3.619   6.496  18.146  0.00  0.00    +0.000 NA
ENDROOT
BRANCH   3   4
ATOM      4  C   UNL     1       2.782   7.599  18.451  0.00  0.00    +0.000 A 
ATOM      5  C   UNL     1       2.538   8.608  17.506  0.00  0.00    +0.000 A 
ATOM      6  C   UNL     1       1.730   9.713  17.796  0.00  0.00    +0.000 A 
ATOM      7  C   UNL     1       1.062   9.786  19.013  0.00  0.00    +0.000 A 
ATOM      8  C   UNL     1       1.209   8.752  19.934  0.00  0.00    +0.000 A 
ATOM      9  C   UNL     1       2.067   7.674  19.662  0.00  0.00    +0.000 A 
ATOM     10 CL   UNL     1       2.180   6.442  20.869  0.00  0.00    +0.000 Cl
ENDBRANCH   3   4
BRANCH   1  12
ATOM     11  C   UNL     1       5.083   4.467  15.478  0.00  0.00    +0.000 C 
ATOM     12  C   UNL     1       5.368   4.392  16.983  0.00  0.00    +0.000 C 
BRANCH  12  13
ATOM     13  C   UNL     1       6.319   5.469  17.461  0.00  0.00    +0.000 A 
ATOM     14  C   UNL     1       6.707   6.642  16.842  0.00  0.00    +0.000 A 
ATOM     15  C   UNL     1       7.631   7.398  17.617  0.00  0.00    +0.000 A 
ATOM     16  C   UNL     1       7.948   6.765  18.796  0.00  0.00    +0.000 A 
ATOM     17  S   UNL     1       7.126   5.278  18.968  0.00  0.00    +0.000 S 
ENDBRANCH  12  13
ENDBRANCH   1  12
BRANCH   2  18
ATOM     18  S   UNL     1       1.481   4.868  17.853  0.00  0.00    +0.000 S 
ATOM     19  H   UNL     1       1.176   5.444  19.026  0.00  0.00    +0.000 HD
ENDBRANCH   2  18
BRANCH   1  20
ATOM     20  C   UNL     1       3.721   2.814  17.959  0.00  0.00    +0.000 C 
BRANCH  20  21
ATOM     21  C   UNL     1       2.999   2.572  19.244  0.00  0.00    +0.000 A 
ATOM     22  C   UNL     1       1.752   2.065  19.555  0.00  0.00    +0.000 A 
ATOM     23  C   UNL     1       1.650   2.099  20.966  0.00  0.00    +0.000 A 
ATOM     24  C   UNL     1       2.835   2.619  21.426  0.00  0.00    +0.000 A 
ATOM     25  O   UNL     1       3.662   2.906  20.388  0.00  0.00    +0.000 OA
ENDBRANCH  20  21
ENDBRANCH   1  20
TORSDOF 6
ENDMDL
MODEL 4
REMARK VINA RESULT:      -5.7      2.152      4.995
REMARK  Name = 
REMARK  7 active torsions:
REMARK  status: ('A' for Active; 'I' for Inactive)
REMARK    1  A    between atoms: C_1  and  C_2
REMARK    2  A    between atoms: C_2  and  C_3
REMARK    3  A    between atoms: C_2  and  N_8
REMARK    4  A    between atoms: N_8  and  C_9
REMARK    5  A    between atoms: C_9  and  C_10
REMARK    6  A    between atoms: C_15  and  S_16
REMARK    7  A    between atoms: N_17  and  C_18
REMARK                            x       y       z     vdW  Elec       q    Type
REMARK                         _______ _______ _______ _____ _____    ______ ____
ROOT
ATOM      1  N   UNL     1       3.915   5.307  18.491  0.00  0.00    +0.000 N 
ATOM      2  C   UNL     1       2.846   6.209  18.477  0.00  0.00    +0.000 C 
ATOM      3  N   UNL     1       2.980   7.455  18.830  0.00  0.00    +0.000 NA
ENDROOT
BRANCH   3   4
ATOM      4  C   UNL     1       1.924   8.397  18.914  0.00  0.00    +0.000 A 
ATOM      5  C   UNL     1       1.460   9.070  17.772  0.00  0.00    +0.000 A 
ATOM      6  C   UNL     1       0.432  10.017  17.838  0.00  0.00    +0.000 A 
ATOM      7  C   UNL     1      -0.229  10.242  19.040  0.00  0.00    +0.000 A 
ATOM      8  C   UNL     1       0.145   9.519  20.170  0.00  0.00    +0.000 A 
ATOM      9  C   UNL     1       1.216   8.613  20.111  0.00  0.00    +0.000 A 
ATOM     10 CL   UNL     1       1.602   7.765  21.567  0.00  0.00    +0.000 Cl
ENDBRANCH   3   4
BRANCH   1  12
ATOM     11  C   UNL     1       6.239   5.260  19.276  0.00  0.00    +0.000 C 
ATOM     12  C   UNL     1       5.297   5.718  18.156  0.00  0.00    +0.000 C 
BRANCH  12  13
ATOM     13  C   UNL     1       5.822   5.398  16.772  0.00  0.00    +0.000 A 
ATOM     14  C   UNL     1       5.256   5.640  15.536  0.00  0.00    +0.000 A 
ATOM     15  C   UNL     1       6.063   5.182  14.457  0.00  0.00    +0.000 A 
ATOM     16  C   UNL     1       7.212   4.571  14.902  0.00  0.00    +0.000 A 
ATOM     17  S   UNL     1       7.318   4.566  16.606  0.00  0.00    +0.000 S 
ENDBRANCH  12  13
ENDBRANCH   1  12
BRANCH   2  18
ATOM     18  S   UNL     1       1.296   5.548  17.915  0.00  0.00    +0.000 S 
ATOM     19  H   UNL     1       1.272   4.542  18.803  0.00  0.00    +0.000 HD
ENDBRANCH   2  18
BRANCH   1  20
ATOM     20  C   UNL     1       3.726   3.850  18.597  0.00  0.00    +0.000 C 
BRANCH  20  21
ATOM     21  C   UNL     1       2.876   3.407  19.743  0.00  0.00    +0.000 A 
ATOM     22  C   UNL     1       1.928   2.414  19.898  0.00  0.00    +0.000 A 
ATOM     23  C   UNL     1       1.468   2.509  21.234  0.00  0.00    +0.000 A 
ATOM     24  C   UNL     1       2.164   3.545  21.808  0.00  0.00    +0.000 A 
ATOM     25  O   UNL     1       3.022   4.095  20.912  0.00  0.00    +0.000 OA
ENDBRANCH  20  21
ENDBRANCH   1  20
TORSDOF 6
ENDMDL
MODEL 5
REMARK VINA RESULT:      -5.7      2.571      5.542
REMARK  Name = 
REMARK  7 active torsions:
REMARK  status: ('A' for Active; 'I' for Inactive)
REMARK    1  A    between atoms: C_1  and  C_2
REMARK    2  A    between atoms: C_2  and  C_3
REMARK    3  A    between atoms: C_2  and  N_8
REMARK    4  A    between atoms: N_8  and  C_9
REMARK    5  A    between atoms: C_9  and  C_10
REMARK    6  A    between atoms: C_15  and  S_16
REMARK    7  A    between atoms: N_17  and  C_18
REMARK                            x       y       z     vdW  Elec       q    Type
REMARK                         _______ _______ _______ _____ _____    ______ ____
ROOT
ATOM      1  N   UNL     1       5.427   4.807  16.470  0.00  0.00    +0.000 N 
ATOM      2  C   UNL     1       4.512   4.264  17.378  0.00  0.00    +0.000 C 
ATOM      3  N   UNL     1       3.272   4.656  17.437  0.00  0.00    +0.000 NA
ENDROOT
BRANCH   3   4
ATOM      4  C   UNL     1       2.318   4.204  18.384  0.00  0.00    +0.000 A 
ATOM      5  C   UNL     1       1.695   2.953  18.246  0.00  0.00    +0.000 A 
ATOM      6  C   UNL     1       0.738   2.499  19.159  0.00  0.00    +0.000 A 
ATOM      7  C   UNL     1       0.451   3.247  20.295  0.00  0.00    +0.000 A 
ATOM      8  C   UNL     1       1.123   4.448  20.509  0.00  0.00    +0.000 A 
ATOM      9  C   UNL     1       2.040   4.927  19.560  0.00  0.00    +0.000 A 
ATOM     10 CL   UNL     1       2.822   6.427  19.917  0.00  0.00    +0.000 Cl
ENDBRANCH   3   4
BRANCH   1  12
ATOM     11  C   UNL     1       5.102   6.760  15.021  0.00  0.00    +0.000 C 
ATOM     12  C   UNL     1       5.029   5.231  15.109  0.00  0.00    +0.000 C 
BRANCH  12  13
ATOM     13  C   UNL     1       5.675   4.538  13.928  0.00  0.00    +0.000 A 
ATOM     14  C   UNL     1       5.201   3.504  13.143  0.00  0.00    +0.000 A 
ATOM     15  C   UNL     1       6.114   3.120  12.120  0.00  0.00    +0.000 A 
ATOM     16  C   UNL     1       7.278   3.853  12.173  0.00  0.00    +0.000 A 
ATOM     17  S   UNL     1       7.258   5.001  13.437  0.00  0.00    +0.000 S 
ENDBRANCH  12  13
ENDBRANCH   1  12
BRANCH   2  18
ATOM     18  S   UNL     1       5.147   2.979  18.427  0.00  0.00    +0.000 S 
ATOM     19  H   UNL     1       4.776   1.976  17.616  0.00  0.00    +0.000 HD
ENDBRANCH   2  18
BRANCH   1  20
ATOM     20  C   UNL     1       6.883   4.778  16.694  0.00  0.00    +0.000 C 
BRANCH  20  21
ATOM     21  C   UNL     1       7.429   5.951  17.441  0.00  0.00    +0.000 A 
ATOM     22  C   UNL     1       7.818   6.148  18.752  0.00  0.00    +0.000 A 
ATOM     23  C   UNL     1       8.242   7.496  18.842  0.00  0.00    +0.000 A 
ATOM     24  C   UNL     1       8.088   8.033  17.587  0.00  0.00    +0.000 A 
ATOM     25  O   UNL     1       7.599   7.102  16.728  0.00  0.00    +0.000 OA
ENDBRANCH  20  21
ENDBRANCH   1  20
TORSDOF 6
ENDMDL
MODEL 6
REMARK VINA RESULT:      -5.6      2.587      4.986
REMARK  Name = 
REMARK  7 active torsions:
REMARK  status: ('A' for Active; 'I' for Inactive)
REMARK    1  A    between atoms: C_1  and  C_2
REMARK    2  A    between atoms: C_2  and  C_3
REMARK    3  A    between atoms: C_2  and  N_8
REMARK    4  A    between atoms: N_8  and  C_9
REMARK    5  A    between atoms: C_9  and  C_10
REMARK    6  A    between atoms: C_15  and  S_16
REMARK    7  A    between atoms: N_17  and  C_18
REMARK                            x       y       z     vdW  Elec       q    Type
REMARK                         _______ _______ _______ _____ _____    ______ ____
ROOT
ATOM      1  N   UNL     1       5.612   4.489  16.806  0.00  0.00    +0.000 N 
ATOM      2  C   UNL     1       4.566   3.992  17.590  0.00  0.00    +0.000 C 
ATOM      3  N   UNL     1       4.118   4.623  18.636  0.00  0.00    +0.000 NA
ENDROOT
BRANCH   3   4
ATOM      4  C   UNL     1       3.117   4.137  19.515  0.00  0.00    +0.000 A 
ATOM      5  C   UNL     1       1.811   4.654  19.485  0.00  0.00    +0.000 A 
ATOM      6  C   UNL     1       0.815   4.200  20.356  0.00  0.00    +0.000 A 
ATOM      7  C   UNL     1       1.077   3.142  21.219  0.00  0.00    +0.000 A 
ATOM      8  C   UNL     1       2.335   2.545  21.205  0.00  0.00    +0.000 A 
ATOM      9  C   UNL     1       3.347   3.042  20.369  0.00  0.00    +0.000 A 
ATOM     10 CL   UNL     1       4.874   2.232  20.425  0.00  0.00    +0.000 Cl
ENDBRANCH   3   4
BRANCH   1  12
ATOM     11  C   UNL     1       4.424   6.621  16.555  0.00  0.00    +0.000 C 
ATOM     12  C   UNL     1       5.797   5.938  16.564  0.00  0.00    +0.000 C 
BRANCH  12  13
ATOM     13  C   UNL     1       6.821   6.676  17.400  0.00  0.00    +0.000 A 
ATOM     14  C   UNL     1       7.340   7.946  17.242  0.00  0.00    +0.000 A 
ATOM     15  C   UNL     1       8.296   8.284  18.241  0.00  0.00    +0.000 A 
ATOM     16  C   UNL     1       8.505   7.246  19.119  0.00  0.00    +0.000 A 
ATOM     17  S   UNL     1       7.544   5.884  18.746  0.00  0.00    +0.000 S 
ENDBRANCH  12  13
ENDBRANCH   1  12
BRANCH   2  18
ATOM     18  S   UNL     1       3.866   2.453  17.043  0.00  0.00    +0.000 S 
ATOM     19  H   UNL     1       3.790   2.815  15.753  0.00  0.00    +0.000 HD
ENDBRANCH   2  18
BRANCH   1  20
ATOM     20  C   UNL     1       6.460   3.623  15.968  0.00  0.00    +0.000 C 
BRANCH  20  21
ATOM     21  C   UNL     1       6.683   4.116  14.576  0.00  0.00    +0.000 A 
ATOM     22  C   UNL     1       6.086   3.839  13.361  0.00  0.00    +0.000 A 
ATOM     23  C   UNL     1       6.760   4.630  12.399  0.00  0.00    +0.000 A 
ATOM     24  C   UNL     1       7.717   5.338  13.083  0.00  0.00    +0.000 A 
ATOM     25  O   UNL     1       7.676   5.035  14.406  0.00  0.00    +0.000 OA
ENDBRANCH  20  21
ENDBRANCH   1  20
TORSDOF 6
ENDMDL
MODEL 7
REMARK VINA RESULT:      -5.6      2.790      6.292
REMARK  Name = 
REMARK  7 active torsions:
REMARK  status: ('A' for Active; 'I' for Inactive)
REMARK    1  A    between atoms: C_1  and  C_2
REMARK    2  A    between atoms: C_2  and  C_3
REMARK    3  A    between atoms: C_2  and  N_8
REMARK    4  A    between atoms: N_8  and  C_9
REMARK    5  A    between atoms: C_9  and  C_10
REMARK    6  A    between atoms: C_15  and  S_16
REMARK    7  A    between atoms: N_17  and  C_18
REMARK                            x       y       z     vdW  Elec       q    Type
REMARK                         _______ _______ _______ _____ _____    ______ ____
ROOT
ATOM      1  N   UNL     1       2.636   6.640  19.405  0.00  0.00    +0.000 N 
ATOM      2  C   UNL     1       3.690   6.025  18.722  0.00  0.00    +0.000 C 
ATOM      3  N   UNL     1       3.972   6.301  17.481  0.00  0.00    +0.000 NA
ENDROOT
BRANCH   3   4
ATOM      4  C   UNL     1       4.974   5.658  16.710  0.00  0.00    +0.000 A 
ATOM      5  C   UNL     1       4.671   4.543  15.911  0.00  0.00    +0.000 A 
ATOM      6  C   UNL     1       5.649   3.885  15.158  0.00  0.00    +0.000 A 
ATOM      7  C   UNL     1       6.943   4.390  15.108  0.00  0.00    +0.000 A 
ATOM      8  C   UNL     1       7.251   5.550  15.814  0.00  0.00    +0.000 A 
ATOM      9  C   UNL     1       6.281   6.173  16.614  0.00  0.00    +0.000 A 
ATOM     10 CL   UNL     1       6.761   7.607  17.451  0.00  0.00    +0.000 Cl
ENDBRANCH   3   4
BRANCH   1  12
ATOM     11  C   UNL     1       1.731   8.191  17.733  0.00  0.00    +0.000 C 
ATOM     12  C   UNL     1       2.259   8.051  19.166  0.00  0.00    +0.000 C 
BRANCH  12  13
ATOM     13  C   UNL     1       1.382   8.739  20.191  0.00  0.00    +0.000 A 
ATOM     14  C   UNL     1       1.316   8.560  21.559  0.00  0.00    +0.000 A 
ATOM     15  C   UNL     1       0.351   9.400  22.183  0.00  0.00    +0.000 A 
ATOM     16  C   UNL     1      -0.319  10.177  21.266  0.00  0.00    +0.000 A 
ATOM     17  S   UNL     1       0.226   9.903  19.671  0.00  0.00    +0.000 S 
ENDBRANCH  12  13
ENDBRANCH   1  12
BRANCH   2  18
ATOM     18  S   UNL     1       4.640   4.863  19.671  0.00  0.00    +0.000 S 
ATOM     19  H   UNL     1       3.939   3.790  19.274  0.00  0.00    +0.000 HD
ENDBRANCH   2  18
BRANCH   1  20
ATOM     20  C   UNL     1       1.980   6.028  20.573  0.00  0.00    +0.000 C 
BRANCH  20  21
ATOM     21  C   UNL     1       1.610   4.590  20.406  0.00  0.00    +0.000 A 
ATOM     22  C   UNL     1       1.053   3.864  19.371  0.00  0.00    +0.000 A 
ATOM     23  C   UNL     1       0.940   2.531  19.836  0.00  0.00    +0.000 A 
ATOM     24  C   UNL     1       1.435   2.527  21.118  0.00  0.00    +0.000 A 
ATOM     25  O   UNL     1       1.847   3.772  21.472  0.00  0.00    +0.000 OA
ENDBRANCH  20  21
ENDBRANCH   1  20
TORSDOF 6
ENDMDL
MODEL 8
REMARK VINA RESULT:      -5.5      2.436      4.928
REMARK  Name = 
REMARK  7 active torsions:
REMARK  status: ('A' for Active; 'I' for Inactive)
REMARK    1  A    between atoms: C_1  and  C_2
REMARK    2  A    between atoms: C_2  and  C_3
REMARK    3  A    between atoms: C_2  and  N_8
REMARK    4  A    between atoms: N_8  and  C_9
REMARK    5  A    between atoms: C_9  and  C_10
REMARK    6  A    between atoms: C_15  and  S_16
REMARK    7  A    between atoms: N_17  and  C_18
REMARK                            x       y       z     vdW  Elec       q    Type
REMARK                         _______ _______ _______ _____ _____    ______ ____
ROOT
ATOM      1  N   UNL     1       3.353   6.163  19.075  0.00  0.00    +0.000 N 
ATOM      2  C   UNL     1       2.364   6.807  19.825  0.00  0.00    +0.000 C 
ATOM      3  N   UNL     1       2.131   8.084  19.722  0.00  0.00    +0.000 NA
ENDROOT
BRANCH   3   4
ATOM      4  C   UNL     1       1.200   8.810  20.507  0.00  0.00    +0.000 A 
ATOM      5  C   UNL     1       1.262   8.789  21.910  0.00  0.00    +0.000 A 
ATOM      6  C   UNL     1       0.341   9.484  22.701  0.00  0.00    +0.000 A 
ATOM      7  C   UNL     1      -0.610  10.303  22.104  0.00  0.00    +0.000 A 
ATOM      8  C   UNL     1      -0.635  10.419  20.716  0.00  0.00    +0.000 A 
ATOM      9  C   UNL     1       0.254   9.674  19.925  0.00  0.00    +0.000 A 
ATOM     10 CL   UNL     1       0.143   9.889  18.213  0.00  0.00    +0.000 Cl
ENDBRANCH   3   4
BRANCH   1  12
ATOM     11  C   UNL     1       3.258   8.024  17.478  0.00  0.00    +0.000 C 
ATOM     12  C   UNL     1       3.676   6.563  17.687  0.00  0.00    +0.000 C 
BRANCH  12  13
ATOM     13  C   UNL     1       5.065   6.263  17.162  0.00  0.00    +0.000 A 
ATOM     14  C   UNL     1       6.278   6.833  17.498  0.00  0.00    +0.000 A 
ATOM     15  C   UNL     1       7.370   6.278  16.774  0.00  0.00    +0.000 A 
ATOM     16  C   UNL     1       6.956   5.318  15.880  0.00  0.00    +0.000 A 
ATOM     17  S   UNL     1       5.265   5.082  15.927  0.00  0.00    +0.000 S 
ENDBRANCH  12  13
ENDBRANCH   1  12
BRANCH   2  18
ATOM     18  S   UNL     1       1.422   5.760  20.907  0.00  0.00    +0.000 S 
ATOM     19  H   UNL     1       1.760   6.419  22.026  0.00  0.00    +0.000 HD
ENDBRANCH   2  18
BRANCH   1  20
ATOM     20  C   UNL     1       3.978   4.899  19.501  0.00  0.00    +0.000 C 
BRANCH  20  21
ATOM     21  C   UNL     1       3.433   3.673  18.843  0.00  0.00    +0.000 A 
ATOM     22  C   UNL     1       2.365   3.441  17.997  0.00  0.00    +0.000 A 
ATOM     23  C   UNL     1       2.368   2.051  17.727  0.00  0.00    +0.000 A 
ATOM     24  C   UNL     1       3.432   1.526  18.419  0.00  0.00    +0.000 A 
ATOM     25  O   UNL     1       4.086   2.503  19.097  0.00  0.00    +0.000 OA
ENDBRANCH  20  21
ENDBRANCH   1  20
TORSDOF 6
ENDMDL
MODEL 9
REMARK VINA RESULT:      -5.5      2.744      6.274
REMARK  Name = 
REMARK  7 active torsions:
REMARK  status: ('A' for Active; 'I' for Inactive)
REMARK    1  A    between atoms: C_1  and  C_2
REMARK    2  A    between atoms: C_2  and  C_3
REMARK    3  A    between atoms: C_2  and  N_8
REMARK    4  A    between atoms: N_8  and  C_9
REMARK    5  A    between atoms: C_9  and  C_10
REMARK    6  A    between atoms: C_15  and  S_16
REMARK    7  A    between atoms: N_17  and  C_18
REMARK                            x       y       z     vdW  Elec       q    Type
REMARK                         _______ _______ _______ _____ _____    ______ ____
ROOT
ATOM      1  N   UNL     1       2.562   6.697  19.506  0.00  0.00    +0.000 N 
ATOM      2  C   UNL     1       3.604   6.086  18.799  0.00  0.00    +0.000 C 
ATOM      3  N   UNL     1       3.831   6.331  17.541  0.00  0.00    +0.000 NA
ENDROOT
BRANCH   3   4
ATOM      4  C   UNL     1       4.817   5.688  16.750  0.00  0.00    +0.000 A 
ATOM      5  C   UNL     1       6.036   6.319  16.456  0.00  0.00    +0.000 A 
ATOM      6  C   UNL     1       7.012   5.708  15.662  0.00  0.00    +0.000 A 
ATOM      7  C   UNL     1       6.833   4.402  15.222  0.00  0.00    +0.000 A 
ATOM      8  C   UNL     1       5.675   3.715  15.579  0.00  0.00    +0.000 A 
ATOM      9  C   UNL     1       4.673   4.353  16.327  0.00  0.00    +0.000 A 
ATOM     10 CL   UNL     1       3.275   3.415  16.718  0.00  0.00    +0.000 Cl
ENDBRANCH   3   4
BRANCH   1  12
ATOM     11  C   UNL     1       1.530   8.171  17.837  0.00  0.00    +0.000 C 
ATOM     12  C   UNL     1       2.143   8.092  19.241  0.00  0.00    +0.000 C 
BRANCH  12  13
ATOM     13  C   UNL     1       1.312   8.799  20.291  0.00  0.00    +0.000 A 
ATOM     14  C   UNL     1       1.321   8.658  21.666  0.00  0.00    +0.000 A 
ATOM     15  C   UNL     1       0.379   9.505  22.316  0.00  0.00    +0.000 A 
ATOM     16  C   UNL     1      -0.347  10.248  21.414  0.00  0.00    +0.000 A 
ATOM     17  S   UNL     1       0.116   9.934  19.801  0.00  0.00    +0.000 S 
ENDBRANCH  12  13
ENDBRANCH   1  12
BRANCH   2  18
ATOM     18  S   UNL     1       4.618   4.975  19.744  0.00  0.00    +0.000 S 
ATOM     19  H   UNL     1       3.603   4.489  20.476  0.00  0.00    +0.000 HD
ENDBRANCH   2  18
BRANCH   1  20
ATOM     20  C   UNL     1       1.967   6.105  20.716  0.00  0.00    +0.000 C 
BRANCH  20  21
ATOM     21  C   UNL     1       1.618   4.657  20.603  0.00  0.00    +0.000 A 
ATOM     22  C   UNL     1       0.991   3.901  19.631  0.00  0.00    +0.000 A 
ATOM     23  C   UNL     1       0.951   2.575  20.124  0.00  0.00    +0.000 A 
ATOM     24  C   UNL     1       1.555   2.603  21.357  0.00  0.00    +0.000 A 
ATOM     25  O   UNL     1       1.966   3.862  21.656  0.00  0.00    +0.000 OA
ENDBRANCH  20  21
ENDBRANCH   1  20
TORSDOF 6
ENDMDL
