MODEL 1
REMARK VINA RESULT:      -6.8      0.000      0.000
REMARK  Name = 
REMARK  5 active torsions:
REMARK  status: ('A' for Active; 'I' for Inactive)
REMARK    1  A    between atoms: C_1  and  N_2
REMARK    2  A    between atoms: N_2  and  C_3
REMARK    3  A    between atoms: C_3  and  C_4
REMARK    4  A    between atoms: C_10  and  O_11
REMARK    5  A    between atoms: O_11  and  C_12
REMARK                            x       y       z     vdW  Elec       q    Type
REMARK                         _______ _______ _______ _____ _____    ______ ____
ROOT
ATOM      1  C   UNL     1       4.302   4.579  18.411  0.00  0.00    +0.000 A 
ATOM      2  C   UNL     1       4.217   3.270  17.876  0.00  0.00    +0.000 A 
ATOM      3  C   UNL     1       3.030   2.534  17.917  0.00  0.00    +0.000 A 
ATOM      4  C   UNL     1       1.896   3.096  18.483  0.00  0.00    +0.000 A 
ATOM      5 CL   UNL     1       0.452   2.172  18.611  0.00  0.00    +0.000 Cl
ATOM      6  C   UNL     1       1.949   4.389  18.999  0.00  0.00    +0.000 A 
ATOM      7  C   UNL     1       3.136   5.142  18.954  0.00  0.00    +0.000 A 
ENDROOT
BRANCH   1   8
ATOM      8  C   UNL     1       5.672   5.225  18.396  0.00  0.00    +0.000 C 
BRANCH   8  10
ATOM      9  C   UNL     1       7.483   4.581  16.962  0.00  0.00    +0.000 C 
ATOM     10  N   UNL     1       6.742   4.260  18.176  0.00  0.00    +0.000 NA
ATOM     11  H   UNL     1       7.379   4.289  18.973  0.00  0.00    +0.000 HD
ENDBRANCH   8  10
ENDBRANCH   1   8
BRANCH   7  12
ATOM     12  O   UNL     1       3.050   6.290  19.712  0.00  0.00    +0.000 OA
BRANCH  12  13
ATOM     13  C   UNL     1       2.361   7.409  19.334  0.00  0.00    +0.000 A 
ATOM     14  C   UNL     1       2.326   7.995  18.072  0.00  0.00    +0.000 A 
ATOM     15  C   UNL     1       1.688   9.231  17.897  0.00  0.00    +0.000 A 
ATOM     16  C   UNL     1       1.015   9.831  18.962  0.00  0.00    +0.000 A 
ATOM     17 CL   UNL     1       0.277  11.370  18.757  0.00  0.00    +0.000 Cl
ATOM     18  C   UNL     1       0.946   9.192  20.195  0.00  0.00    +0.000 A 
ATOM     19  C   UNL     1       1.622   7.985  20.376  0.00  0.00    +0.000 A 
ENDBRANCH  12  13
ENDBRANCH   7  12
TORSDOF 4
ENDMDL
MODEL 2
REMARK VINA RESULT:      -6.8      2.320      3.212
REMARK  Name = 
REMARK  5 active torsions:
REMARK  status: ('A' for Active; 'I' for Inactive)
REMARK    1  A    between atoms: C_1  and  N_2
REMARK    2  A    between atoms: N_2  and  C_3
REMARK    3  A    between atoms: C_3  and  C_4
REMARK    4  A    between atoms: C_10  and  O_11
REMARK    5  A    between atoms: O_11  and  C_12
REMARK                            x       y       z     vdW  Elec       q    Type
REMARK                         _______ _______ _______ _____ _____    ______ ____
ROOT
ATOM      1  C   UNL     1       2.015   4.215  19.110  0.00  0.00    +0.000 A 
ATOM      2  C   UNL     1       2.038   3.177  18.147  0.00  0.00    +0.000 A 
ATOM      3  C   UNL     1       2.984   3.145  17.120  0.00  0.00    +0.000 A 
ATOM      4  C   UNL     1       3.940   4.147  17.039  0.00  0.00    +0.000 A 
ATOM      5 CL   UNL     1       5.059   4.164  15.734  0.00  0.00    +0.000 Cl
ATOM      6  C   UNL     1       3.950   5.170  17.985  0.00  0.00    +0.000 A 
ATOM      7  C   UNL     1       3.008   5.205  19.029  0.00  0.00    +0.000 A 
ENDROOT
BRANCH   1   8
ATOM      8  C   UNL     1       0.876   4.186  20.106  0.00  0.00    +0.000 C 
BRANCH   8  10
ATOM      9  C   UNL     1       1.984   2.885  21.787  0.00  0.00    +0.000 C 
ATOM     10  N   UNL     1       0.844   2.953  20.883  0.00  0.00    +0.000 NA
ATOM     11  H   UNL     1      -0.017   2.932  21.430  0.00  0.00    +0.000 HD
ENDBRANCH   8  10
ENDBRANCH   1   8
BRANCH   7  12
ATOM     12  O   UNL     1       3.039   6.402  19.713  0.00  0.00    +0.000 OA
BRANCH  12  13
ATOM     13  C   UNL     1       2.291   7.497  19.378  0.00  0.00    +0.000 A 
ATOM     14  C   UNL     1       2.169   8.086  18.124  0.00  0.00    +0.000 A 
ATOM     15  C   UNL     1       1.478   9.298  17.989  0.00  0.00    +0.000 A 
ATOM     16  C   UNL     1       0.841   9.869  19.093  0.00  0.00    +0.000 A 
ATOM     17 CL   UNL     1       0.037  11.381  18.936  0.00  0.00    +0.000 Cl
ATOM     18  C   UNL     1       0.860   9.222  20.324  0.00  0.00    +0.000 A 
ATOM     19  C   UNL     1       1.587   8.041  20.461  0.00  0.00    +0.000 A 
ENDBRANCH  12  13
ENDBRANCH   7  12
TORSDOF 4
ENDMDL
MODEL 3
REMARK VINA RESULT:      -6.7      2.992      5.353
REMARK  Name = 
REMARK  5 active torsions:
REMARK  status: ('A' for Active; 'I' for Inactive)
REMARK    1  A    between atoms: C_1  and  N_2
REMARK    2  A    between atoms: N_2  and  C_3
REMARK    3  A    between atoms: C_3  and  C_4
REMARK    4  A    between atoms: C_10  and  O_11
REMARK    5  A    between atoms: O_11  and  C_12
REMARK                            x       y       z     vdW  Elec       q    Type
REMARK                         _______ _______ _______ _____ _____    ______ ____
ROOT
ATOM      1  C   UNL     1       3.137   3.730  19.497  0.00  0.00    +0.000 A 
ATOM      2  C   UNL     1       1.863   3.704  20.115  0.00  0.00    +0.000 A 
ATOM      3  C   UNL     1       1.245   4.868  20.578  0.00  0.00    +0.000 A 
ATOM      4  C   UNL     1       1.883   6.090  20.421  0.00  0.00    +0.000 A 
ATOM      5 CL   UNL     1       1.171   7.519  21.058  0.00  0.00    +0.000 Cl
ATOM      6  C   UNL     1       3.130   6.144  19.801  0.00  0.00    +0.000 A 
ATOM      7  C   UNL     1       3.755   4.978  19.322  0.00  0.00    +0.000 A 
ENDROOT
BRANCH   1   8
ATOM      8  C   UNL     1       3.738   2.388  19.136  0.00  0.00    +0.000 C 
BRANCH   8  10
ATOM      9  C   UNL     1       5.063   1.413  20.881  0.00  0.00    +0.000 C 
ATOM     10  N   UNL     1       5.085   2.218  19.667  0.00  0.00    +0.000 NA
ATOM     11  H   UNL     1       5.658   1.748  18.965  0.00  0.00    +0.000 HD
ENDBRANCH   8  10
ENDBRANCH   1   8
BRANCH   7  12
ATOM     12  O   UNL     1       5.064   5.208  18.956  0.00  0.00    +0.000 OA
BRANCH  12  13
ATOM     13  C   UNL     1       5.498   5.273  17.660  0.00  0.00    +0.000 A 
ATOM     14  C   UNL     1       4.862   5.888  16.586  0.00  0.00    +0.000 A 
ATOM     15  C   UNL     1       5.375   5.727  15.290  0.00  0.00    +0.000 A 
ATOM     16  C   UNL     1       6.565   5.027  15.089  0.00  0.00    +0.000 A 
ATOM     17 CL   UNL     1       7.164   4.788  13.495  0.00  0.00    +0.000 Cl
ATOM     18  C   UNL     1       7.267   4.512  16.173  0.00  0.00    +0.000 A 
ATOM     19  C   UNL     1       6.728   4.635  17.453  0.00  0.00    +0.000 A 
ENDBRANCH  12  13
ENDBRANCH   7  12
TORSDOF 4
ENDMDL
MODEL 4
REMARK VINA RESULT:      -6.7      1.023      1.162
REMARK  Name = 
REMARK  5 active torsions:
REMARK  status: ('A' for Active; 'I' for Inactive)
REMARK    1  A    between atoms: C_1  and  N_2
REMARK    2  A    between atoms: N_2  and  C_3
REMARK    3  A    between atoms: C_3  and  C_4
REMARK    4  A    between atoms: C_10  and  O_11
REMARK    5  A    between atoms: O_11  and  C_12
REMARK                            x       y       z     vdW  Elec       q    Type
REMARK                         _______ _______ _______ _____ _____    ______ ____
ROOT
ATOM      1  C   UNL     1       4.641   4.492  18.823  0.00  0.00    +0.000 A 
ATOM      2  C   UNL     1       4.457   3.197  19.368  0.00  0.00    +0.000 A 
ATOM      3  C   UNL     1       3.225   2.542  19.311  0.00  0.00    +0.000 A 
ATOM      4  C   UNL     1       2.148   3.162  18.695  0.00  0.00    +0.000 A 
ATOM      5 CL   UNL     1       0.607   2.402  18.689  0.00  0.00    +0.000 Cl
ATOM      6  C   UNL     1       2.308   4.428  18.135  0.00  0.00    +0.000 A 
ATOM      7  C   UNL     1       3.547   5.092  18.178  0.00  0.00    +0.000 A 
ENDROOT
BRANCH   1   8
ATOM      8  C   UNL     1       5.996   5.130  19.043  0.00  0.00    +0.000 C 
BRANCH   8  10
ATOM      9  C   UNL     1       7.163   4.618  17.013  0.00  0.00    +0.000 C 
ATOM     10  N   UNL     1       7.080   4.362  18.444  0.00  0.00    +0.000 NA
ATOM     11  H   UNL     1       7.959   4.636  18.884  0.00  0.00    +0.000 HD
ENDBRANCH   8  10
ENDBRANCH   1   8
BRANCH   7  12
ATOM     12  O   UNL     1       3.443   6.408  17.782  0.00  0.00    +0.000 OA
BRANCH  12  13
ATOM     13  C   UNL     1       2.612   7.323  18.370  0.00  0.00    +0.000 A 
ATOM     14  C   UNL     1       2.013   8.427  17.772  0.00  0.00    +0.000 A 
ATOM     15  C   UNL     1       1.310   9.349  18.561  0.00  0.00    +0.000 A 
ATOM     16  C   UNL     1       1.139   9.116  19.927  0.00  0.00    +0.000 A 
ATOM     17 CL   UNL     1       0.321  10.273  20.901  0.00  0.00    +0.000 Cl
ATOM     18  C   UNL     1       1.635   7.954  20.507  0.00  0.00    +0.000 A 
ATOM     19  C   UNL     1       2.371   7.064  19.725  0.00  0.00    +0.000 A 
ENDBRANCH  12  13
ENDBRANCH   7  12
TORSDOF 4
ENDMDL
MODEL 5
REMARK VINA RESULT:      -6.7      2.828      5.604
REMARK  Name = 
REMARK  5 active torsions:
REMARK  status: ('A' for Active; 'I' for Inactive)
REMARK    1  A    between atoms: C_1  and  N_2
REMARK    2  A    between atoms: N_2  and  C_3
REMARK    3  A    between atoms: C_3  and  C_4
REMARK    4  A    between atoms: C_10  and  O_11
REMARK    5  A    between atoms: O_11  and  C_12
REMARK                            x       y       z     vdW  Elec       q    Type
REMARK                         _______ _______ _______ _____ _____    ______ ____
ROOT
ATOM      1  C   UNL     1       3.320   3.908  20.143  0.00  0.00    +0.000 A 
ATOM      2  C   UNL     1       2.041   4.289  20.618  0.00  0.00    +0.000 A 
ATOM      3  C   UNL     1       1.557   5.591  20.466  0.00  0.00    +0.000 A 
ATOM      4  C   UNL     1       2.338   6.540  19.823  0.00  0.00    +0.000 A 
ATOM      5 CL   UNL     1       1.788   8.164  19.700  0.00  0.00    +0.000 Cl
ATOM      6  C   UNL     1       3.592   6.185  19.330  0.00  0.00    +0.000 A 
ATOM      7  C   UNL     1       4.084   4.874  19.469  0.00  0.00    +0.000 A 
ENDROOT
BRANCH   1   8
ATOM      8  C   UNL     1       3.765   2.496  20.464  0.00  0.00    +0.000 C 
BRANCH   8  10
ATOM      9  C   UNL     1       3.455   1.402  18.354  0.00  0.00    +0.000 C 
ATOM     10  N   UNL     1       4.430   1.851  19.339  0.00  0.00    +0.000 NA
ATOM     11  H   UNL     1       5.062   2.522  18.902  0.00  0.00    +0.000 HD
ENDBRANCH   8  10
ENDBRANCH   1   8
BRANCH   7  12
ATOM     12  O   UNL     1       5.417   4.784  19.129  0.00  0.00    +0.000 OA
BRANCH  12  13
ATOM     13  C   UNL     1       5.873   4.620  17.850  0.00  0.00    +0.000 A 
ATOM     14  C   UNL     1       7.191   4.678  17.408  0.00  0.00    +0.000 A 
ATOM     15  C   UNL     1       7.466   4.638  16.034  0.00  0.00    +0.000 A 
ATOM     16  C   UNL     1       6.430   4.455  15.116  0.00  0.00    +0.000 A 
ATOM     17 CL   UNL     1       6.764   4.458  13.429  0.00  0.00    +0.000 Cl
ATOM     18  C   UNL     1       5.125   4.278  15.560  0.00  0.00    +0.000 A 
ATOM     19  C   UNL     1       4.852   4.364  16.925  0.00  0.00    +0.000 A 
ENDBRANCH  12  13
ENDBRANCH   7  12
TORSDOF 4
ENDMDL
MODEL 6
REMARK VINA RESULT:      -6.7      2.391      3.348
REMARK  Name = 
REMARK  5 active torsions:
REMARK  status: ('A' for Active; 'I' for Inactive)
REMARK    1  A    between atoms: C_1  and  N_2
REMARK    2  A    between atoms: N_2  and  C_3
REMARK    3  A    between atoms: C_3  and  C_4
REMARK    4  A    between atoms: C_10  and  O_11
REMARK    5  A    between atoms: O_11  and  C_12
REMARK                            x       y       z     vdW  Elec       q    Type
REMARK                         _______ _______ _______ _____ _____    ______ ____
ROOT
ATOM      1  C   UNL     1       2.730   4.157  18.470  0.00  0.00    +0.000 A 
ATOM      2  C   UNL     1       3.297   3.376  17.433  0.00  0.00    +0.000 A 
ATOM      3  C   UNL     1       4.566   3.646  16.916  0.00  0.00    +0.000 A 
ATOM      4  C   UNL     1       5.305   4.699  17.433  0.00  0.00    +0.000 A 
ATOM      5 CL   UNL     1       6.833   5.093  16.752  0.00  0.00    +0.000 Cl
ATOM      6  C   UNL     1       4.778   5.472  18.466  0.00  0.00    +0.000 A 
ATOM      7  C   UNL     1       3.505   5.201  19.001  0.00  0.00    +0.000 A 
ENDROOT
BRANCH   1   8
ATOM      8  C   UNL     1       1.308   3.823  18.867  0.00  0.00    +0.000 C 
BRANCH   8  10
ATOM      9  C   UNL     1       1.337   2.886  21.074  0.00  0.00    +0.000 C 
ATOM     10  N   UNL     1       1.049   4.073  20.279  0.00  0.00    +0.000 NA
ATOM     11  H   UNL     1       1.647   4.838  20.592  0.00  0.00    +0.000 HD
ENDBRANCH   8  10
ENDBRANCH   1   8
BRANCH   7  12
ATOM     12  O   UNL     1       3.074   6.205  19.842  0.00  0.00    +0.000 OA
BRANCH  12  13
ATOM     13  C   UNL     1       2.372   7.304  19.429  0.00  0.00    +0.000 A 
ATOM     14  C   UNL     1       2.310   7.833  18.144  0.00  0.00    +0.000 A 
ATOM     15  C   UNL     1       1.662   9.057  17.927  0.00  0.00    +0.000 A 
ATOM     16  C   UNL     1       1.007   9.701  18.978  0.00  0.00    +0.000 A 
ATOM     17 CL   UNL     1       0.257  11.226  18.721  0.00  0.00    +0.000 Cl
ATOM     18  C   UNL     1       0.965   9.116  20.239  0.00  0.00    +0.000 A 
ATOM     19  C   UNL     1       1.650   7.921  20.459  0.00  0.00    +0.000 A 
ENDBRANCH  12  13
ENDBRANCH   7  12
TORSDOF 4
ENDMDL
MODEL 7
REMARK VINA RESULT:      -6.7      2.968      5.665
REMARK  Name = 
REMARK  5 active torsions:
REMARK  status: ('A' for Active; 'I' for Inactive)
REMARK    1  A    between atoms: C_1  and  N_2
REMARK    2  A    between atoms: N_2  and  C_3
REMARK    3  A    between atoms: C_3  and  C_4
REMARK    4  A    between atoms: C_10  and  O_11
REMARK    5  A    between atoms: O_11  and  C_12
REMARK                            x       y       z     vdW  Elec       q    Type
REMARK                         _______ _______ _______ _____ _____    ______ ____
ROOT
ATOM      1  C   UNL     1       3.494   3.817  20.000  0.00  0.00    +0.000 A 
ATOM      2  C   UNL     1       2.302   4.172  20.680  0.00  0.00    +0.000 A 
ATOM      3  C   UNL     1       1.768   5.460  20.606  0.00  0.00    +0.000 A 
ATOM      4  C   UNL     1       2.407   6.423  19.839  0.00  0.00    +0.000 A 
ATOM      5 CL   UNL     1       1.806   8.033  19.805  0.00  0.00    +0.000 Cl
ATOM      6  C   UNL     1       3.571   6.094  19.146  0.00  0.00    +0.000 A 
ATOM      7  C   UNL     1       4.111   4.797  19.205  0.00  0.00    +0.000 A 
ENDROOT
BRANCH   1   8
ATOM      8  C   UNL     1       4.020   2.419  20.247  0.00  0.00    +0.000 C 
BRANCH   8  10
ATOM      9  C   UNL     1       3.289   1.647  18.098  0.00  0.00    +0.000 C 
ATOM     10  N   UNL     1       4.415   1.745  19.017  0.00  0.00    +0.000 NA
ATOM     11  H   UNL     1       5.161   2.283  18.574  0.00  0.00    +0.000 HD
ENDBRANCH   8  10
ENDBRANCH   1   8
BRANCH   7  12
ATOM     12  O   UNL     1       5.370   4.735  18.648  0.00  0.00    +0.000 OA
BRANCH  12  13
ATOM     13  C   UNL     1       5.614   4.713  17.303  0.00  0.00    +0.000 A 
ATOM     14  C   UNL     1       4.686   4.553  16.278  0.00  0.00    +0.000 A 
ATOM     15  C   UNL     1       5.129   4.402  14.956  0.00  0.00    +0.000 A 
ATOM     16  C   UNL     1       6.489   4.497  14.657  0.00  0.00    +0.000 A 
ATOM     17 CL   UNL     1       7.034   4.260  13.043  0.00  0.00    +0.000 Cl
ATOM     18  C   UNL     1       7.409   4.774  15.662  0.00  0.00    +0.000 A 
ATOM     19  C   UNL     1       6.967   4.879  16.980  0.00  0.00    +0.000 A 
ENDBRANCH  12  13
ENDBRANCH   7  12
TORSDOF 4
ENDMDL
MODEL 8
REMARK VINA RESULT:      -6.7      0.663      1.316
REMARK  Name = 
REMARK  5 active torsions:
REMARK  status: ('A' for Active; 'I' for Inactive)
REMARK    1  A    between atoms: C_1  and  N_2
REMARK    2  A    between atoms: N_2  and  C_3
REMARK    3  A    between atoms: C_3  and  C_4
REMARK    4  A    between atoms: C_10  and  O_11
REMARK    5  A    between atoms: O_11  and  C_12
REMARK                            x       y       z     vdW  Elec       q    Type
REMARK                         _______ _______ _______ _____ _____    ______ ____
ROOT
ATOM      1  C   UNL     1       3.976   4.945  17.759  0.00  0.00    +0.000 A 
ATOM      2  C   UNL     1       3.796   3.698  17.112  0.00  0.00    +0.000 A 
ATOM      3  C   UNL     1       2.700   2.876  17.388  0.00  0.00    +0.000 A 
ATOM      4  C   UNL     1       1.751   3.289  18.310  0.00  0.00    +0.000 A 
ATOM      5 CL   UNL     1       0.441   2.252  18.718  0.00  0.00    +0.000 Cl
ATOM      6  C   UNL     1       1.895   4.520  18.948  0.00  0.00    +0.000 A 
ATOM      7  C   UNL     1       2.989   5.359  18.669  0.00  0.00    +0.000 A 
ENDROOT
BRANCH   1   8
ATOM      8  C   UNL     1       5.257   5.688  17.446  0.00  0.00    +0.000 C 
BRANCH   8  10
ATOM      9  C   UNL     1       7.403   4.624  17.342  0.00  0.00    +0.000 C 
ATOM     10  N   UNL     1       6.169   4.907  16.621  0.00  0.00    +0.000 NA
ATOM     11  H   UNL     1       5.716   4.026  16.376  0.00  0.00    +0.000 HD
ENDBRANCH   8  10
ENDBRANCH   1   8
BRANCH   7  12
ATOM     12  O   UNL     1       3.074   6.410  19.558  0.00  0.00    +0.000 OA
BRANCH  12  13
ATOM     13  C   UNL     1       2.318   7.546  19.477  0.00  0.00    +0.000 A 
ATOM     14  C   UNL     1       1.590   8.152  20.496  0.00  0.00    +0.000 A 
ATOM     15  C   UNL     1       0.745   9.232  20.200  0.00  0.00    +0.000 A 
ATOM     16  C   UNL     1       0.698   9.752  18.906  0.00  0.00    +0.000 A 
ATOM     17 CL   UNL     1      -0.377  11.042  18.535  0.00  0.00    +0.000 Cl
ATOM     18  C   UNL     1       1.512   9.225  17.910  0.00  0.00    +0.000 A 
ATOM     19  C   UNL     1       2.316   8.123  18.200  0.00  0.00    +0.000 A 
ENDBRANCH  12  13
ENDBRANCH   7  12
TORSDOF 4
ENDMDL
MODEL 9
REMARK VINA RESULT:      -6.6      1.180      1.607
REMARK  Name = 
REMARK  5 active torsions:
REMARK  status: ('A' for Active; 'I' for Inactive)
REMARK    1  A    between atoms: C_1  and  N_2
REMARK    2  A    between atoms: N_2  and  C_3
REMARK    3  A    between atoms: C_3  and  C_4
REMARK    4  A    between atoms: C_10  and  O_11
REMARK    5  A    between atoms: O_11  and  C_12
REMARK                            x       y       z     vdW  Elec       q    Type
REMARK                         _______ _______ _______ _____ _____    ______ ____
ROOT
ATOM      1  C   UNL     1       4.550   4.595  18.805  0.00  0.00    +0.000 A 
ATOM      2  C   UNL     1       4.435   3.288  19.339  0.00  0.00    +0.000 A 
ATOM      3  C   UNL     1       3.236   2.574  19.285  0.00  0.00    +0.000 A 
ATOM      4  C   UNL     1       2.125   3.146  18.684  0.00  0.00    +0.000 A 
ATOM      5 CL   UNL     1       0.622   2.311  18.682  0.00  0.00    +0.000 Cl
ATOM      6  C   UNL     1       2.218   4.424  18.134  0.00  0.00    +0.000 A 
ATOM      7  C   UNL     1       3.423   5.147  18.174  0.00  0.00    +0.000 A 
ENDROOT
BRANCH   1   8
ATOM      8  C   UNL     1       5.874   5.297  19.021  0.00  0.00    +0.000 C 
BRANCH   8  10
ATOM      9  C   UNL     1       7.581   6.707  18.100  0.00  0.00    +0.000 C 
ATOM     10  N   UNL     1       6.295   6.067  17.857  0.00  0.00    +0.000 NA
ATOM     11  H   UNL     1       6.382   5.435  17.060  0.00  0.00    +0.000 HD
ENDBRANCH   8  10
ENDBRANCH   1   8
BRANCH   7  12
ATOM     12  O   UNL     1       3.251   6.460  17.792  0.00  0.00    +0.000 OA
BRANCH  12  13
ATOM     13  C   UNL     1       2.563   7.389  18.523  0.00  0.00    +0.000 A 
ATOM     14  C   UNL     1       2.254   7.337  19.879  0.00  0.00    +0.000 A 
ATOM     15  C   UNL     1       1.407   8.305  20.437  0.00  0.00    +0.000 A 
ATOM     16  C   UNL     1       0.944   9.366  19.656  0.00  0.00    +0.000 A 
ATOM     17 CL   UNL     1      -0.136  10.523  20.329  0.00  0.00    +0.000 Cl
ATOM     18  C   UNL     1       1.346   9.487  18.330  0.00  0.00    +0.000 A 
ATOM     19  C   UNL     1       2.152   8.496  17.770  0.00  0.00    +0.000 A 
ENDBRANCH  12  13
ENDBRANCH   7  12
TORSDOF 4
ENDMDL
