MODEL 1
REMARK VINA RESULT:      -7.9      0.000      0.000
REMARK  Name = 
REMARK  11 active torsions:
REMARK  status: ('A' for Active; 'I' for Inactive)
REMARK    1  A    between atoms: C_1  and  C_2
REMARK    2  A    between atoms: C_2  and  C_3
REMARK    3  A    between atoms: C_3  and  C_4
REMARK    4  A    between atoms: N_6  and  C_7
REMARK    5  A    between atoms: C_10  and  N_11
REMARK    6  A    between atoms: N_11  and  C_12
REMARK    7  A    between atoms: N_11  and  C_13
REMARK    8  A    between atoms: N_16  and  N_17
REMARK    9  A    between atoms: C_18  and  C_20
REMARK   10  A    between atoms: N_22  and  C_23
REMARK   11  A    between atoms: C_23  and  C_24
REMARK                            x       y       z     vdW  Elec       q    Type
REMARK                         _______ _______ _______ _____ _____    ______ ____
ROOT
ATOM      1  C   UNL     1       4.326   2.498  19.729  0.00  0.00    +0.000 C 
ATOM      2  C   UNL     1       4.301   3.415  18.526  0.00  0.00    +0.000 C 
ATOM      3  N   UNL     1       5.300   4.174  18.183  0.00  0.00    +0.000 NA
ENDROOT
BRANCH   3   4
ATOM      4  N   UNL     1       6.415   4.170  18.962  0.00  0.00    +0.000 N 
ATOM      5  C   UNL     1       7.489   4.990  18.693  0.00  0.00    +0.000 C 
ATOM      6  O   UNL     1       8.471   5.083  19.418  0.00  0.00    +0.000 OA
ATOM      7  H   UNL     1       6.501   3.551  19.759  0.00  0.00    +0.000 HD
BRANCH   5   8
ATOM      8  C   UNL     1       7.383   5.839  17.418  0.00  0.00    +0.000 C 
ATOM      9  O   UNL     1       7.203   7.048  17.473  0.00  0.00    +0.000 OA
ATOM     10  N   UNL     1       7.507   5.108  16.259  0.00  0.00    +0.000 N 
ATOM     11  H   UNL     1       7.526   4.095  16.330  0.00  0.00    +0.000 HD
BRANCH  10  12
ATOM     12  C   UNL     1       7.497   5.732  14.963  0.00  0.00    +0.000 C 
BRANCH  12  13
ATOM     13  C   UNL     1       6.862   4.841  13.933  0.00  0.00    +0.000 A 
ATOM     14  C   UNL     1       5.621   4.241  14.185  0.00  0.00    +0.000 A 
ATOM     15  C   UNL     1       5.023   3.423  13.225  0.00  0.00    +0.000 A 
ATOM     16  C   UNL     1       5.668   3.187  12.012  0.00  0.00    +0.000 A 
ATOM     17  C   UNL     1       6.912   3.762  11.760  0.00  0.00    +0.000 A 
ATOM     18  C   UNL     1       7.509   4.584  12.717  0.00  0.00    +0.000 A 
ENDBRANCH  12  13
ENDBRANCH  10  12
ENDBRANCH   5   8
ENDBRANCH   3   4
BRANCH   2  19
ATOM     19  C   UNL     1       3.075   3.454  17.636  0.00  0.00    +0.000 C 
BRANCH  19  20
ATOM     20  C   UNL     1       2.245   4.706  17.782  0.00  0.00    +0.000 C 
ATOM     21  O   UNL     1       1.067   4.691  17.437  0.00  0.00    +0.000 OA
ATOM     22  N   UNL     1       2.905   5.805  18.325  0.00  0.00    +0.000 N 
ATOM     23  H   UNL     1       3.915   5.780  18.348  0.00  0.00    +0.000 HD
BRANCH  22  24
ATOM     24  C   UNL     1       2.293   7.041  18.663  0.00  0.00    +0.000 A 
ATOM     25  C   UNL     1       2.058   8.049  17.736  0.00  0.00    +0.000 A 
ATOM     26  C   UNL     1       1.496   9.279  18.122  0.00  0.00    +0.000 A 
ATOM     27  C   UNL     1       1.125   9.559  19.441  0.00  0.00    +0.000 A 
ATOM     28  C   UNL     1       1.332   8.512  20.356  0.00  0.00    +0.000 A 
ATOM     29  C   UNL     1       1.892   7.271  19.979  0.00  0.00    +0.000 A 
BRANCH  27  30
ATOM     30  N   UNL     1       0.610  10.794  19.804  0.00  0.00    +0.000 N 
ATOM     31  C   UNL     1       0.085  11.736  18.817  0.00  0.00    +0.000 C 
ATOM     32  C   UNL     1       0.416  11.197  21.193  0.00  0.00    +0.000 C 
ENDBRANCH  27  30
ENDBRANCH  22  24
ENDBRANCH  19  20
ENDBRANCH   2  19
TORSDOF 8
ENDMDL
MODEL 2
REMARK VINA RESULT:      -7.3      3.112      5.004
REMARK  Name = 
REMARK  11 active torsions:
REMARK  status: ('A' for Active; 'I' for Inactive)
REMARK    1  A    between atoms: C_1  and  C_2
REMARK    2  A    between atoms: C_2  and  C_3
REMARK    3  A    between atoms: C_3  and  C_4
REMARK    4  A    between atoms: N_6  and  C_7
REMARK    5  A    between atoms: C_10  and  N_11
REMARK    6  A    between atoms: N_11  and  C_12
REMARK    7  A    between atoms: N_11  and  C_13
REMARK    8  A    between atoms: N_16  and  N_17
REMARK    9  A    between atoms: C_18  and  C_20
REMARK   10  A    between atoms: N_22  and  C_23
REMARK   11  A    between atoms: C_23  and  C_24
REMARK                            x       y       z     vdW  Elec       q    Type
REMARK                         _______ _______ _______ _____ _____    ______ ____
ROOT
ATOM      1  C   UNL     1       4.350   3.251  19.555  0.00  0.00    +0.000 C 
ATOM      2  C   UNL     1       4.593   4.231  18.427  0.00  0.00    +0.000 C 
ATOM      3  N   UNL     1       5.712   4.875  18.267  0.00  0.00    +0.000 NA
ENDROOT
BRANCH   3   4
ATOM      4  N   UNL     1       6.705   4.684  19.175  0.00  0.00    +0.000 N 
ATOM      5  C   UNL     1       7.779   5.544  19.265  0.00  0.00    +0.000 C 
ATOM      6  O   UNL     1       8.646   5.461  20.125  0.00  0.00    +0.000 OA
ATOM      7  H   UNL     1       6.699   3.894  19.808  0.00  0.00    +0.000 HD
BRANCH   5   8
ATOM      8  C   UNL     1       7.824   6.672  18.224  0.00  0.00    +0.000 C 
ATOM      9  O   UNL     1       7.501   6.474  17.059  0.00  0.00    +0.000 OA
ATOM     10  N   UNL     1       8.252   7.875  18.734  0.00  0.00    +0.000 N 
ATOM     11  H   UNL     1       8.614   7.892  19.682  0.00  0.00    +0.000 HD
BRANCH  10  12
ATOM     12  C   UNL     1       8.302   9.066  17.930  0.00  0.00    +0.000 C 
BRANCH  12  13
ATOM     13  C   UNL     1       9.106  10.144  18.600  0.00  0.00    +0.000 A 
ATOM     14  C   UNL     1       9.806  11.086  17.833  0.00  0.00    +0.000 A 
ATOM     15  C   UNL     1      10.543  12.096  18.453  0.00  0.00    +0.000 A 
ATOM     16  C   UNL     1      10.600  12.163  19.844  0.00  0.00    +0.000 A 
ATOM     17  C   UNL     1       9.925  11.219  20.616  0.00  0.00    +0.000 A 
ATOM     18  C   UNL     1       9.183  10.211  19.998  0.00  0.00    +0.000 A 
ENDBRANCH  12  13
ENDBRANCH  10  12
ENDBRANCH   5   8
ENDBRANCH   3   4
BRANCH   2  19
ATOM     19  C   UNL     1       3.508   4.476  17.398  0.00  0.00    +0.000 C 
BRANCH  19  20
ATOM     20  C   UNL     1       2.489   5.512  17.808  0.00  0.00    +0.000 C 
ATOM     21  O   UNL     1       1.297   5.294  17.615  0.00  0.00    +0.000 OA
ATOM     22  N   UNL     1       3.006   6.660  18.403  0.00  0.00    +0.000 N 
ATOM     23  H   UNL     1       3.995   6.839  18.295  0.00  0.00    +0.000 HD
BRANCH  22  24
ATOM     24  C   UNL     1       2.232   7.705  18.972  0.00  0.00    +0.000 A 
ATOM     25  C   UNL     1       1.802   8.811  18.249  0.00  0.00    +0.000 A 
ATOM     26  C   UNL     1       1.080   9.850  18.864  0.00  0.00    +0.000 A 
ATOM     27  C   UNL     1       0.735   9.830  20.220  0.00  0.00    +0.000 A 
ATOM     28  C   UNL     1       1.142   8.684  20.924  0.00  0.00    +0.000 A 
ATOM     29  C   UNL     1       1.864   7.632  20.316  0.00  0.00    +0.000 A 
BRANCH  27  30
ATOM     30  N   UNL     1       0.057  10.884  20.811  0.00  0.00    +0.000 N 
ATOM     31  C   UNL     1      -0.589  10.757  22.117  0.00  0.00    +0.000 C 
ATOM     32  C   UNL     1       0.050  12.235  20.259  0.00  0.00    +0.000 C 
ENDBRANCH  27  30
ENDBRANCH  22  24
ENDBRANCH  19  20
ENDBRANCH   2  19
TORSDOF 8
ENDMDL
MODEL 3
REMARK VINA RESULT:      -7.2      2.703      4.972
REMARK  Name = 
REMARK  11 active torsions:
REMARK  status: ('A' for Active; 'I' for Inactive)
REMARK    1  A    between atoms: C_1  and  C_2
REMARK    2  A    between atoms: C_2  and  C_3
REMARK    3  A    between atoms: C_3  and  C_4
REMARK    4  A    between atoms: N_6  and  C_7
REMARK    5  A    between atoms: C_10  and  N_11
REMARK    6  A    between atoms: N_11  and  C_12
REMARK    7  A    between atoms: N_11  and  C_13
REMARK    8  A    between atoms: N_16  and  N_17
REMARK    9  A    between atoms: C_18  and  C_20
REMARK   10  A    between atoms: N_22  and  C_23
REMARK   11  A    between atoms: C_23  and  C_24
REMARK                            x       y       z     vdW  Elec       q    Type
REMARK                         _______ _______ _______ _____ _____    ______ ____
ROOT
ATOM      1  C   UNL     1       4.804   7.564  17.655  0.00  0.00    +0.000 C 
ATOM      2  C   UNL     1       3.944   6.342  17.416  0.00  0.00    +0.000 C 
ATOM      3  N   UNL     1       4.395   5.241  16.891  0.00  0.00    +0.000 NA
ENDROOT
BRANCH   3   4
ATOM      4  N   UNL     1       5.698   5.193  16.505  0.00  0.00    +0.000 N 
ATOM      5  C   UNL     1       6.684   4.718  17.343  0.00  0.00    +0.000 C 
ATOM      6  O   UNL     1       7.852   4.573  17.004  0.00  0.00    +0.000 OA
ATOM      7  H   UNL     1       5.992   5.520  15.593  0.00  0.00    +0.000 HD
BRANCH   5   8
ATOM      8  C   UNL     1       6.232   4.330  18.758  0.00  0.00    +0.000 C 
ATOM      9  O   UNL     1       6.628   4.943  19.741  0.00  0.00    +0.000 OA
ATOM     10  N   UNL     1       5.369   3.259  18.787  0.00  0.00    +0.000 N 
ATOM     11  H   UNL     1       5.210   2.749  17.924  0.00  0.00    +0.000 HD
BRANCH  10  12
ATOM     12  C   UNL     1       4.786   2.786  20.013  0.00  0.00    +0.000 C 
BRANCH  12  13
ATOM     13  C   UNL     1       3.286   2.857  19.968  0.00  0.00    +0.000 A 
ATOM     14  C   UNL     1       2.606   2.699  18.753  0.00  0.00    +0.000 A 
ATOM     15  C   UNL     1       1.212   2.752  18.709  0.00  0.00    +0.000 A 
ATOM     16  C   UNL     1       0.488   2.980  19.878  0.00  0.00    +0.000 A 
ATOM     17  C   UNL     1       1.155   3.159  21.089  0.00  0.00    +0.000 A 
ATOM     18  C   UNL     1       2.549   3.101  21.135  0.00  0.00    +0.000 A 
ENDBRANCH  12  13
ENDBRANCH  10  12
ENDBRANCH   5   8
ENDBRANCH   3   4
BRANCH   2  19
ATOM     19  C   UNL     1       2.485   6.357  17.827  0.00  0.00    +0.000 C 
BRANCH  19  20
ATOM     20  C   UNL     1       2.057   7.620  18.535  0.00  0.00    +0.000 C 
ATOM     21  O   UNL     1       2.155   7.688  19.757  0.00  0.00    +0.000 OA
ATOM     22  N   UNL     1       1.582   8.638  17.714  0.00  0.00    +0.000 N 
ATOM     23  H   UNL     1       1.321   8.394  16.768  0.00  0.00    +0.000 HD
BRANCH  22  24
ATOM     24  C   UNL     1       1.240   9.946  18.147  0.00  0.00    +0.000 A 
ATOM     25  C   UNL     1       2.143  11.003  18.155  0.00  0.00    +0.000 A 
ATOM     26  C   UNL     1       1.779  12.272  18.641  0.00  0.00    +0.000 A 
ATOM     27  C   UNL     1       0.497  12.555  19.125  0.00  0.00    +0.000 A 
ATOM     28  C   UNL     1      -0.414  11.486  19.070  0.00  0.00    +0.000 A 
ATOM     29  C   UNL     1      -0.060  10.209  18.579  0.00  0.00    +0.000 A 
BRANCH  27  30
ATOM     30  N   UNL     1       0.174  13.803  19.635  0.00  0.00    +0.000 N 
ATOM     31  C   UNL     1      -0.428  13.968  20.957  0.00  0.00    +0.000 C 
ATOM     32  C   UNL     1       0.531  15.051  18.969  0.00  0.00    +0.000 C 
ENDBRANCH  27  30
ENDBRANCH  22  24
ENDBRANCH  19  20
ENDBRANCH   2  19
TORSDOF 8
ENDMDL
MODEL 4
REMARK VINA RESULT:      -7.2      2.982      6.004
REMARK  Name = 
REMARK  11 active torsions:
REMARK  status: ('A' for Active; 'I' for Inactive)
REMARK    1  A    between atoms: C_1  and  C_2
REMARK    2  A    between atoms: C_2  and  C_3
REMARK    3  A    between atoms: C_3  and  C_4
REMARK    4  A    between atoms: N_6  and  C_7
REMARK    5  A    between atoms: C_10  and  N_11
REMARK    6  A    between atoms: N_11  and  C_12
REMARK    7  A    between atoms: N_11  and  C_13
REMARK    8  A    between atoms: N_16  and  N_17
REMARK    9  A    between atoms: C_18  and  C_20
REMARK   10  A    between atoms: N_22  and  C_23
REMARK   11  A    between atoms: C_23  and  C_24
REMARK                            x       y       z     vdW  Elec       q    Type
REMARK                         _______ _______ _______ _____ _____    ______ ____
ROOT
ATOM      1  C   UNL     1       1.857   9.048  18.014  0.00  0.00    +0.000 C 
ATOM      2  C   UNL     1       2.293   7.834  18.805  0.00  0.00    +0.000 C 
ATOM      3  N   UNL     1       3.305   7.088  18.472  0.00  0.00    +0.000 NA
ENDROOT
BRANCH   3   4
ATOM      4  N   UNL     1       3.988   7.392  17.336  0.00  0.00    +0.000 N 
ATOM      5  C   UNL     1       4.753   6.453  16.678  0.00  0.00    +0.000 C 
ATOM      6  O   UNL     1       5.309   6.658  15.608  0.00  0.00    +0.000 OA
ATOM      7  H   UNL     1       3.971   8.324  16.942  0.00  0.00    +0.000 HD
BRANCH   5   8
ATOM      8  C   UNL     1       4.853   5.077  17.354  0.00  0.00    +0.000 C 
ATOM      9  O   UNL     1       5.836   4.762  18.012  0.00  0.00    +0.000 OA
ATOM     10  N   UNL     1       3.755   4.277  17.139  0.00  0.00    +0.000 N 
ATOM     11  H   UNL     1       3.056   4.592  16.473  0.00  0.00    +0.000 HD
BRANCH  10  12
ATOM     12  C   UNL     1       3.633   2.976  17.740  0.00  0.00    +0.000 C 
BRANCH  12  13
ATOM     13  C   UNL     1       2.849   3.039  19.021  0.00  0.00    +0.000 A 
ATOM     14  C   UNL     1       1.538   3.535  19.025  0.00  0.00    +0.000 A 
ATOM     15  C   UNL     1       0.803   3.582  20.211  0.00  0.00    +0.000 A 
ATOM     16  C   UNL     1       1.378   3.148  21.404  0.00  0.00    +0.000 A 
ATOM     17  C   UNL     1       2.688   2.672  21.414  0.00  0.00    +0.000 A 
ATOM     18  C   UNL     1       3.423   2.619  20.229  0.00  0.00    +0.000 A 
ENDBRANCH  12  13
ENDBRANCH  10  12
ENDBRANCH   5   8
ENDBRANCH   3   4
BRANCH   2  19
ATOM     19  C   UNL     1       1.553   7.459  20.074  0.00  0.00    +0.000 C 
BRANCH  19  20
ATOM     20  C   UNL     1       1.212   8.633  20.960  0.00  0.00    +0.000 C 
ATOM     21  O   UNL     1       1.968   8.932  21.879  0.00  0.00    +0.000 OA
ATOM     22  N   UNL     1       0.036   9.306  20.639  0.00  0.00    +0.000 N 
ATOM     23  H   UNL     1      -0.620   8.838  20.028  0.00  0.00    +0.000 HD
BRANCH  22  24
ATOM     24  C   UNL     1      -0.415  10.502  21.256  0.00  0.00    +0.000 A 
ATOM     25  C   UNL     1      -0.890  10.550  22.562  0.00  0.00    +0.000 A 
ATOM     26  C   UNL     1      -1.376  11.747  23.119  0.00  0.00    +0.000 A 
ATOM     27  C   UNL     1      -1.395  12.955  22.413  0.00  0.00    +0.000 A 
ATOM     28  C   UNL     1      -0.871  12.895  21.110  0.00  0.00    +0.000 A 
ATOM     29  C   UNL     1      -0.377  11.700  20.542  0.00  0.00    +0.000 A 
BRANCH  27  30
ATOM     30  N   UNL     1      -1.915  14.113  22.970  0.00  0.00    +0.000 N 
ATOM     31  C   UNL     1      -1.437  14.642  24.246  0.00  0.00    +0.000 C 
ATOM     32  C   UNL     1      -2.869  14.970  22.275  0.00  0.00    +0.000 C 
ENDBRANCH  27  30
ENDBRANCH  22  24
ENDBRANCH  19  20
ENDBRANCH   2  19
TORSDOF 8
ENDMDL
MODEL 5
REMARK VINA RESULT:      -7.1      1.983      4.417
REMARK  Name = 
REMARK  11 active torsions:
REMARK  status: ('A' for Active; 'I' for Inactive)
REMARK    1  A    between atoms: C_1  and  C_2
REMARK    2  A    between atoms: C_2  and  C_3
REMARK    3  A    between atoms: C_3  and  C_4
REMARK    4  A    between atoms: N_6  and  C_7
REMARK    5  A    between atoms: C_10  and  N_11
REMARK    6  A    between atoms: N_11  and  C_12
REMARK    7  A    between atoms: N_11  and  C_13
REMARK    8  A    between atoms: N_16  and  N_17
REMARK    9  A    between atoms: C_18  and  C_20
REMARK   10  A    between atoms: N_22  and  C_23
REMARK   11  A    between atoms: C_23  and  C_24
REMARK                            x       y       z     vdW  Elec       q    Type
REMARK                         _______ _______ _______ _____ _____    ______ ____
ROOT
ATOM      1  C   UNL     1       5.353   4.520  15.238  0.00  0.00    +0.000 C 
ATOM      2  C   UNL     1       5.487   5.857  15.933  0.00  0.00    +0.000 C 
ATOM      3  N   UNL     1       6.561   6.232  16.565  0.00  0.00    +0.000 NA
ENDROOT
BRANCH   3   4
ATOM      4  N   UNL     1       7.607   5.366  16.633  0.00  0.00    +0.000 N 
ATOM      5  C   UNL     1       7.878   4.647  17.777  0.00  0.00    +0.000 C 
ATOM      6  O   UNL     1       8.752   3.793  17.853  0.00  0.00    +0.000 OA
ATOM      7  H   UNL     1       8.234   5.231  15.850  0.00  0.00    +0.000 HD
BRANCH   5   8
ATOM      8  C   UNL     1       6.981   4.949  18.987  0.00  0.00    +0.000 C 
ATOM      9  O   UNL     1       7.376   5.649  19.911  0.00  0.00    +0.000 OA
ATOM     10  N   UNL     1       5.739   4.363  18.912  0.00  0.00    +0.000 N 
ATOM     11  H   UNL     1       5.566   3.701  18.162  0.00  0.00    +0.000 HD
BRANCH  10  12
ATOM     12  C   UNL     1       4.735   4.580  19.918  0.00  0.00    +0.000 C 
BRANCH  12  13
ATOM     13  C   UNL     1       3.378   4.150  19.437  0.00  0.00    +0.000 A 
ATOM     14  C   UNL     1       3.192   3.753  18.105  0.00  0.00    +0.000 A 
ATOM     15  C   UNL     1       1.935   3.342  17.659  0.00  0.00    +0.000 A 
ATOM     16  C   UNL     1       0.852   3.339  18.535  0.00  0.00    +0.000 A 
ATOM     17  C   UNL     1       1.021   3.751  19.856  0.00  0.00    +0.000 A 
ATOM     18  C   UNL     1       2.278   4.158  20.306  0.00  0.00    +0.000 A 
ENDBRANCH  12  13
ENDBRANCH  10  12
ENDBRANCH   5   8
ENDBRANCH   3   4
BRANCH   2  19
ATOM     19  C   UNL     1       4.340   6.847  15.885  0.00  0.00    +0.000 C 
BRANCH  19  20
ATOM     20  C   UNL     1       3.955   7.412  17.231  0.00  0.00    +0.000 C 
ATOM     21  O   UNL     1       4.834   7.666  18.050  0.00  0.00    +0.000 OA
ATOM     22  N   UNL     1       2.593   7.615  17.431  0.00  0.00    +0.000 N 
ATOM     23  H   UNL     1       1.953   7.155  16.797  0.00  0.00    +0.000 HD
BRANCH  22  24
ATOM     24  C   UNL     1       2.018   8.244  18.566  0.00  0.00    +0.000 A 
ATOM     25  C   UNL     1       1.984   7.655  19.824  0.00  0.00    +0.000 A 
ATOM     26  C   UNL     1       1.358   8.291  20.912  0.00  0.00    +0.000 A 
ATOM     27  C   UNL     1       0.754   9.548  20.806  0.00  0.00    +0.000 A 
ATOM     28  C   UNL     1       0.836  10.146  19.536  0.00  0.00    +0.000 A 
ATOM     29  C   UNL     1       1.465   9.519  18.438  0.00  0.00    +0.000 A 
BRANCH  27  30
ATOM     30  N   UNL     1       0.110  10.137  21.883  0.00  0.00    +0.000 N 
ATOM     31  C   UNL     1      -0.385  11.512  21.834  0.00  0.00    +0.000 C 
ATOM     32  C   UNL     1      -0.254   9.402  23.090  0.00  0.00    +0.000 C 
ENDBRANCH  27  30
ENDBRANCH  22  24
ENDBRANCH  19  20
ENDBRANCH   2  19
TORSDOF 8
ENDMDL
MODEL 6
REMARK VINA RESULT:      -7.1      2.928      5.827
REMARK  Name = 
REMARK  11 active torsions:
REMARK  status: ('A' for Active; 'I' for Inactive)
REMARK    1  A    between atoms: C_1  and  C_2
REMARK    2  A    between atoms: C_2  and  C_3
REMARK    3  A    between atoms: C_3  and  C_4
REMARK    4  A    between atoms: N_6  and  C_7
REMARK    5  A    between atoms: C_10  and  N_11
REMARK    6  A    between atoms: N_11  and  C_12
REMARK    7  A    between atoms: N_11  and  C_13
REMARK    8  A    between atoms: N_16  and  N_17
REMARK    9  A    between atoms: C_18  and  C_20
REMARK   10  A    between atoms: N_22  and  C_23
REMARK   11  A    between atoms: C_23  and  C_24
REMARK                            x       y       z     vdW  Elec       q    Type
REMARK                         _______ _______ _______ _____ _____    ______ ____
ROOT
ATOM      1  C   UNL     1       1.846   8.534  17.828  0.00  0.00    +0.000 C 
ATOM      2  C   UNL     1       2.449   7.493  18.746  0.00  0.00    +0.000 C 
ATOM      3  N   UNL     1       3.585   6.904  18.511  0.00  0.00    +0.000 NA
ENDROOT
BRANCH   3   4
ATOM      4  N   UNL     1       4.251   7.214  17.367  0.00  0.00    +0.000 N 
ATOM      5  C   UNL     1       4.913   6.254  16.632  0.00  0.00    +0.000 C 
ATOM      6  O   UNL     1       5.447   6.472  15.553  0.00  0.00    +0.000 OA
ATOM      7  H   UNL     1       4.299   8.165  17.024  0.00  0.00    +0.000 HD
BRANCH   5   8
ATOM      8  C   UNL     1       4.921   4.839  17.230  0.00  0.00    +0.000 C 
ATOM      9  O   UNL     1       5.916   4.388  17.782  0.00  0.00    +0.000 OA
ATOM     10  N   UNL     1       3.728   4.170  17.076  0.00  0.00    +0.000 N 
ATOM     11  H   UNL     1       3.014   4.592  16.491  0.00  0.00    +0.000 HD
BRANCH  10  12
ATOM     12  C   UNL     1       3.518   2.857  17.624  0.00  0.00    +0.000 C 
BRANCH  12  13
ATOM     13  C   UNL     1       2.796   2.923  18.940  0.00  0.00    +0.000 A 
ATOM     14  C   UNL     1       3.430   2.504  20.117  0.00  0.00    +0.000 A 
ATOM     15  C   UNL     1       2.766   2.577  21.343  0.00  0.00    +0.000 A 
ATOM     16  C   UNL     1       1.458   3.054  21.398  0.00  0.00    +0.000 A 
ATOM     17  C   UNL     1       0.811   3.454  20.230  0.00  0.00    +0.000 A 
ATOM     18  C   UNL     1       1.475   3.387  19.005  0.00  0.00    +0.000 A 
ENDBRANCH  12  13
ENDBRANCH  10  12
ENDBRANCH   5   8
ENDBRANCH   3   4
BRANCH   2  19
ATOM     19  C   UNL     1       1.733   7.116  20.028  0.00  0.00    +0.000 C 
BRANCH  19  20
ATOM     20  C   UNL     1       1.436   8.285  20.936  0.00  0.00    +0.000 C 
ATOM     21  O   UNL     1       2.122   8.457  21.939  0.00  0.00    +0.000 OA
ATOM     22  N   UNL     1       0.382   9.102  20.538  0.00  0.00    +0.000 N 
ATOM     23  H   UNL     1      -0.256   8.739  19.842  0.00  0.00    +0.000 HD
BRANCH  22  24
ATOM     24  C   UNL     1       0.006  10.317  21.169  0.00  0.00    +0.000 A 
ATOM     25  C   UNL     1      -0.785  10.365  22.311  0.00  0.00    +0.000 A 
ATOM     26  C   UNL     1      -1.177  11.592  22.876  0.00  0.00    +0.000 A 
ATOM     27  C   UNL     1      -0.788  12.827  22.345  0.00  0.00    +0.000 A 
ATOM     28  C   UNL     1       0.046  12.757  21.215  0.00  0.00    +0.000 A 
ATOM     29  C   UNL     1       0.450  11.530  20.642  0.00  0.00    +0.000 A 
BRANCH  27  30
ATOM     30  N   UNL     1      -1.220  14.023  22.897  0.00  0.00    +0.000 N 
ATOM     31  C   UNL     1      -2.320  14.081  23.858  0.00  0.00    +0.000 C 
ATOM     32  C   UNL     1      -0.532  15.292  22.681  0.00  0.00    +0.000 C 
ENDBRANCH  27  30
ENDBRANCH  22  24
ENDBRANCH  19  20
ENDBRANCH   2  19
TORSDOF 8
ENDMDL
MODEL 7
REMARK VINA RESULT:      -6.9      3.152      4.140
REMARK  Name = 
REMARK  11 active torsions:
REMARK  status: ('A' for Active; 'I' for Inactive)
REMARK    1  A    between atoms: C_1  and  C_2
REMARK    2  A    between atoms: C_2  and  C_3
REMARK    3  A    between atoms: C_3  and  C_4
REMARK    4  A    between atoms: N_6  and  C_7
REMARK    5  A    between atoms: C_10  and  N_11
REMARK    6  A    between atoms: N_11  and  C_12
REMARK    7  A    between atoms: N_11  and  C_13
REMARK    8  A    between atoms: N_16  and  N_17
REMARK    9  A    between atoms: C_18  and  C_20
REMARK   10  A    between atoms: N_22  and  C_23
REMARK   11  A    between atoms: C_23  and  C_24
REMARK                            x       y       z     vdW  Elec       q    Type
REMARK                         _______ _______ _______ _____ _____    ______ ____
ROOT
ATOM      1  C   UNL     1       4.371   2.383  20.995  0.00  0.00    +0.000 C 
ATOM      2  C   UNL     1       2.925   2.719  20.701  0.00  0.00    +0.000 C 
ATOM      3  N   UNL     1       2.244   2.169  19.739  0.00  0.00    +0.000 NA
ENDROOT
BRANCH   3   4
ATOM      4  N   UNL     1       2.870   1.271  18.932  0.00  0.00    +0.000 N 
ATOM      5  C   UNL     1       3.461   1.652  17.746  0.00  0.00    +0.000 C 
ATOM      6  O   UNL     1       4.111   0.895  17.037  0.00  0.00    +0.000 OA
ATOM      7  H   UNL     1       2.910   0.287  19.167  0.00  0.00    +0.000 HD
BRANCH   5   8
ATOM      8  C   UNL     1       3.292   3.128  17.356  0.00  0.00    +0.000 C 
ATOM      9  O   UNL     1       2.248   3.540  16.868  0.00  0.00    +0.000 OA
ATOM     10  N   UNL     1       4.405   3.895  17.610  0.00  0.00    +0.000 N 
ATOM     11  H   UNL     1       5.257   3.423  17.898  0.00  0.00    +0.000 HD
BRANCH  10  12
ATOM     12  C   UNL     1       4.420   5.313  17.372  0.00  0.00    +0.000 C 
BRANCH  12  13
ATOM     13  C   UNL     1       5.731   5.922  17.786  0.00  0.00    +0.000 A 
ATOM     14  C   UNL     1       6.472   5.361  18.834  0.00  0.00    +0.000 A 
ATOM     15  C   UNL     1       7.695   5.916  19.212  0.00  0.00    +0.000 A 
ATOM     16  C   UNL     1       8.178   7.047  18.557  0.00  0.00    +0.000 A 
ATOM     17  C   UNL     1       7.439   7.626  17.527  0.00  0.00    +0.000 A 
ATOM     18  C   UNL     1       6.218   7.068  17.143  0.00  0.00    +0.000 A 
ENDBRANCH  12  13
ENDBRANCH  10  12
ENDBRANCH   5   8
ENDBRANCH   3   4
BRANCH   2  19
ATOM     19  C   UNL     1       2.193   3.719  21.573  0.00  0.00    +0.000 C 
BRANCH  19  20
ATOM     20  C   UNL     1       1.601   4.883  20.815  0.00  0.00    +0.000 C 
ATOM     21  O   UNL     1       0.508   4.753  20.272  0.00  0.00    +0.000 OA
ATOM     22  N   UNL     1       2.367   6.046  20.805  0.00  0.00    +0.000 N 
ATOM     23  H   UNL     1       3.339   5.969  21.071  0.00  0.00    +0.000 HD
BRANCH  22  24
ATOM     24  C   UNL     1       1.955   7.290  20.261  0.00  0.00    +0.000 A 
ATOM     25  C   UNL     1       2.234   7.677  18.955  0.00  0.00    +0.000 A 
ATOM     26  C   UNL     1       1.852   8.941  18.471  0.00  0.00    +0.000 A 
ATOM     27  C   UNL     1       1.160   9.872  19.253  0.00  0.00    +0.000 A 
ATOM     28  C   UNL     1       0.850   9.447  20.556  0.00  0.00    +0.000 A 
ATOM     29  C   UNL     1       1.225   8.178  21.052  0.00  0.00    +0.000 A 
BRANCH  27  30
ATOM     30  N   UNL     1       0.830  11.127  18.764  0.00  0.00    +0.000 N 
ATOM     31  C   UNL     1      -0.558  11.566  18.630  0.00  0.00    +0.000 C 
ATOM     32  C   UNL     1       1.824  12.156  18.481  0.00  0.00    +0.000 C 
ENDBRANCH  27  30
ENDBRANCH  22  24
ENDBRANCH  19  20
ENDBRANCH   2  19
TORSDOF 8
ENDMDL
MODEL 8
REMARK VINA RESULT:      -6.9      3.030      4.524
REMARK  Name = 
REMARK  11 active torsions:
REMARK  status: ('A' for Active; 'I' for Inactive)
REMARK    1  A    between atoms: C_1  and  C_2
REMARK    2  A    between atoms: C_2  and  C_3
REMARK    3  A    between atoms: C_3  and  C_4
REMARK    4  A    between atoms: N_6  and  C_7
REMARK    5  A    between atoms: C_10  and  N_11
REMARK    6  A    between atoms: N_11  and  C_12
REMARK    7  A    between atoms: N_11  and  C_13
REMARK    8  A    between atoms: N_16  and  N_17
REMARK    9  A    between atoms: C_18  and  C_20
REMARK   10  A    between atoms: N_22  and  C_23
REMARK   11  A    between atoms: C_23  and  C_24
REMARK                            x       y       z     vdW  Elec       q    Type
REMARK                         _______ _______ _______ _____ _____    ______ ____
ROOT
ATOM      1  C   UNL     1       1.503   5.226  17.860  0.00  0.00    +0.000 C 
ATOM      2  C   UNL     1       2.552   6.137  18.459  0.00  0.00    +0.000 C 
ATOM      3  N   UNL     1       3.174   5.878  19.572  0.00  0.00    +0.000 NA
ENDROOT
BRANCH   3   4
ATOM      4  N   UNL     1       2.843   4.747  20.251  0.00  0.00    +0.000 N 
ATOM      5  C   UNL     1       3.468   3.544  20.002  0.00  0.00    +0.000 C 
ATOM      6  O   UNL     1       3.266   2.526  20.650  0.00  0.00    +0.000 OA
ATOM      7  H   UNL     1       2.115   4.746  20.954  0.00  0.00    +0.000 HD
BRANCH   5   8
ATOM      8  C   UNL     1       4.492   3.544  18.857  0.00  0.00    +0.000 C 
ATOM      9  O   UNL     1       4.250   2.998  17.789  0.00  0.00    +0.000 OA
ATOM     10  N   UNL     1       5.661   4.202  19.165  0.00  0.00    +0.000 N 
ATOM     11  H   UNL     1       5.802   4.506  20.123  0.00  0.00    +0.000 HD
BRANCH  10  12
ATOM     12  C   UNL     1       6.716   4.364  18.202  0.00  0.00    +0.000 C 
BRANCH  12  13
ATOM     13  C   UNL     1       7.107   5.809  18.058  0.00  0.00    +0.000 A 
ATOM     14  C   UNL     1       6.498   6.613  17.086  0.00  0.00    +0.000 A 
ATOM     15  C   UNL     1       6.849   7.958  16.959  0.00  0.00    +0.000 A 
ATOM     16  C   UNL     1       7.823   8.504  17.793  0.00  0.00    +0.000 A 
ATOM     17  C   UNL     1       8.450   7.708  18.750  0.00  0.00    +0.000 A 
ATOM     18  C   UNL     1       8.096   6.364  18.881  0.00  0.00    +0.000 A 
ENDBRANCH  12  13
ENDBRANCH  10  12
ENDBRANCH   5   8
ENDBRANCH   3   4
BRANCH   2  19
ATOM     19  C   UNL     1       2.944   7.410  17.736  0.00  0.00    +0.000 C 
BRANCH  19  20
ATOM     20  C   UNL     1       2.207   8.640  18.208  0.00  0.00    +0.000 C 
ATOM     21  O   UNL     1       2.222   9.653  17.515  0.00  0.00    +0.000 OA
ATOM     22  N   UNL     1       1.541   8.512  19.423  0.00  0.00    +0.000 N 
ATOM     23  H   UNL     1       1.790   7.731  20.015  0.00  0.00    +0.000 HD
BRANCH  22  24
ATOM     24  C   UNL     1       0.691   9.494  19.996  0.00  0.00    +0.000 A 
ATOM     25  C   UNL     1      -0.307  10.145  19.280  0.00  0.00    +0.000 A 
ATOM     26  C   UNL     1      -1.095  11.149  19.871  0.00  0.00    +0.000 A 
ATOM     27  C   UNL     1      -0.941  11.541  21.206  0.00  0.00    +0.000 A 
ATOM     28  C   UNL     1       0.044  10.842  21.926  0.00  0.00    +0.000 A 
ATOM     29  C   UNL     1       0.837   9.829  21.343  0.00  0.00    +0.000 A 
BRANCH  27  30
ATOM     30  N   UNL     1      -1.704  12.560  21.755  0.00  0.00    +0.000 N 
ATOM     31  C   UNL     1      -2.904  13.072  21.097  0.00  0.00    +0.000 C 
ATOM     32  C   UNL     1      -1.461  13.105  23.087  0.00  0.00    +0.000 C 
ENDBRANCH  27  30
ENDBRANCH  22  24
ENDBRANCH  19  20
ENDBRANCH   2  19
TORSDOF 8
ENDMDL
MODEL 9
REMARK VINA RESULT:      -6.8      1.106      1.921
REMARK  Name = 
REMARK  11 active torsions:
REMARK  status: ('A' for Active; 'I' for Inactive)
REMARK    1  A    between atoms: C_1  and  C_2
REMARK    2  A    between atoms: C_2  and  C_3
REMARK    3  A    between atoms: C_3  and  C_4
REMARK    4  A    between atoms: N_6  and  C_7
REMARK    5  A    between atoms: C_10  and  N_11
REMARK    6  A    between atoms: N_11  and  C_12
REMARK    7  A    between atoms: N_11  and  C_13
REMARK    8  A    between atoms: N_16  and  N_17
REMARK    9  A    between atoms: C_18  and  C_20
REMARK   10  A    between atoms: N_22  and  C_23
REMARK   11  A    between atoms: C_23  and  C_24
REMARK                            x       y       z     vdW  Elec       q    Type
REMARK                         _______ _______ _______ _____ _____    ______ ____
ROOT
ATOM      1  C   UNL     1       4.875   3.081  17.932  0.00  0.00    +0.000 C 
ATOM      2  C   UNL     1       4.382   4.485  18.204  0.00  0.00    +0.000 C 
ATOM      3  N   UNL     1       5.031   5.342  18.937  0.00  0.00    +0.000 NA
ENDROOT
BRANCH   3   4
ATOM      4  N   UNL     1       6.197   4.949  19.515  0.00  0.00    +0.000 N 
ATOM      5  C   UNL     1       7.421   5.347  19.022  0.00  0.00    +0.000 C 
ATOM      6  O   UNL     1       8.488   5.092  19.563  0.00  0.00    +0.000 OA
ATOM      7  H   UNL     1       6.207   4.335  20.320  0.00  0.00    +0.000 HD
BRANCH   5   8
ATOM      8  C   UNL     1       7.384   6.187  17.736  0.00  0.00    +0.000 C 
ATOM      9  O   UNL     1       7.430   7.409  17.774  0.00  0.00    +0.000 OA
ATOM     10  N   UNL     1       7.296   5.432  16.589  0.00  0.00    +0.000 N 
ATOM     11  H   UNL     1       7.136   4.434  16.683  0.00  0.00    +0.000 HD
BRANCH  10  12
ATOM     12  C   UNL     1       7.312   6.032  15.282  0.00  0.00    +0.000 C 
BRANCH  12  13
ATOM     13  C   UNL     1       6.816   5.075  14.235  0.00  0.00    +0.000 A 
ATOM     14  C   UNL     1       7.530   4.899  13.042  0.00  0.00    +0.000 A 
ATOM     15  C   UNL     1       7.078   4.001  12.073  0.00  0.00    +0.000 A 
ATOM     16  C   UNL     1       5.902   3.284  12.284  0.00  0.00    +0.000 A 
ATOM     17  C   UNL     1       5.173   3.467  13.458  0.00  0.00    +0.000 A 
ATOM     18  C   UNL     1       5.626   4.361  14.430  0.00  0.00    +0.000 A 
ENDBRANCH  12  13
ENDBRANCH  10  12
ENDBRANCH   5   8
ENDBRANCH   3   4
BRANCH   2  19
ATOM     19  C   UNL     1       3.083   4.959  17.583  0.00  0.00    +0.000 C 
BRANCH  19  20
ATOM     20  C   UNL     1       2.211   5.765  18.515  0.00  0.00    +0.000 C 
ATOM     21  O   UNL     1       1.393   5.186  19.224  0.00  0.00    +0.000 OA
ATOM     22  N   UNL     1       2.424   7.141  18.499  0.00  0.00    +0.000 N 
ATOM     23  H   UNL     1       2.941   7.526  17.720  0.00  0.00    +0.000 HD
BRANCH  22  24
ATOM     24  C   UNL     1       1.808   8.073  19.374  0.00  0.00    +0.000 A 
ATOM     25  C   UNL     1       1.658   7.850  20.738  0.00  0.00    +0.000 A 
ATOM     26  C   UNL     1       0.995   8.778  21.561  0.00  0.00    +0.000 A 
ATOM     27  C   UNL     1       0.466   9.978  21.073  0.00  0.00    +0.000 A 
ATOM     28  C   UNL     1       0.665  10.205  19.700  0.00  0.00    +0.000 A 
ATOM     29  C   UNL     1       1.333   9.282  18.864  0.00  0.00    +0.000 A 
BRANCH  27  30
ATOM     30  N   UNL     1      -0.217  10.858  21.897  0.00  0.00    +0.000 N 
ATOM     31  C   UNL     1      -0.877  10.418  23.125  0.00  0.00    +0.000 C 
ATOM     32  C   UNL     1      -0.217  12.303  21.692  0.00  0.00    +0.000 C 
ENDBRANCH  27  30
ENDBRANCH  22  24
ENDBRANCH  19  20
ENDBRANCH   2  19
TORSDOF 8
ENDMDL
