MODEL 1
REMARK VINA RESULT:      -9.6      0.000      0.000
REMARK  Name = 
REMARK  11 active torsions:
REMARK  status: ('A' for Active; 'I' for Inactive)
REMARK    1  A    between atoms: C_1  and  C_2
REMARK    2  A    between atoms: C_2  and  C_3
REMARK    3  A    between atoms: C_3  and  C_4
REMARK    4  A    between atoms: C_3  and  C_5
REMARK    5  A    between atoms: C_5  and  N_6
REMARK    6  A    between atoms: C_5  and  C_7
REMARK    7  A    between atoms: C_7  and  N_8
REMARK    8  A    between atoms: N_8  and  C_22
REMARK    9  A    between atoms: C_9  and  C_11
REMARK   10  A    between atoms: C_13  and  C_14
REMARK   11  A    between atoms: C_25  and  C_26
REMARK                            x       y       z     vdW  Elec       q    Type
REMARK                         _______ _______ _______ _____ _____    ______ ____
ROOT
ATOM      1  N   UNL     1       3.470   5.434  17.712  0.00  0.00    +0.000 N 
ATOM      2  C   UNL     1       4.759   5.760  17.251  0.00  0.00    +0.000 C 
ATOM      3  O   UNL     1       5.321   6.816  17.541  0.00  0.00    +0.000 OA
ENDROOT
BRANCH   1   4
ATOM      4  C   UNL     1       2.797   6.399  18.523  0.00  0.00    +0.000 A 
ATOM      5  C   UNL     1       2.471   6.064  19.834  0.00  0.00    +0.000 A 
ATOM      6  C   UNL     1       1.777   6.973  20.640  0.00  0.00    +0.000 A 
ATOM      7  C   UNL     1       1.378   8.239  20.172  0.00  0.00    +0.000 A 
ATOM      8  C   UNL     1       1.749   8.572  18.853  0.00  0.00    +0.000 A 
ATOM      9  C   UNL     1       2.449   7.662  18.035  0.00  0.00    +0.000 A 
BRANCH   7  10
ATOM     10  C   UNL     1       0.542   9.123  21.029  0.00  0.00    +0.000 A 
ATOM     11  C   UNL     1      -0.077  10.278  20.505  0.00  0.00    +0.000 A 
ATOM     12  C   UNL     1      -0.734  11.203  21.324  0.00  0.00    +0.000 A 
ATOM     13  C   UNL     1      -0.818  10.980  22.693  0.00  0.00    +0.000 A 
ATOM     14  C   UNL     1      -0.263   9.824  23.235  0.00  0.00    +0.000 A 
ATOM     15  C   UNL     1       0.409   8.909  22.412  0.00  0.00    +0.000 A 
ENDBRANCH   7  10
ENDBRANCH   1   4
BRANCH   2  16
ATOM     16  C   UNL     1       5.512   4.796  16.371  0.00  0.00    +0.000 C 
ATOM     17  C   UNL     1       6.998   4.585  16.567  0.00  0.00    +0.000 C 
ATOM     18  C   UNL     1       6.526   5.328  15.344  0.00  0.00    +0.000 C 
BRANCH  18  19
ATOM     19  C   UNL     1       6.592   4.694  13.960  0.00  0.00    +0.000 A 
ATOM     20  C   UNL     1       5.654   3.743  13.510  0.00  0.00    +0.000 A 
ATOM     21  C   UNL     1       5.757   3.190  12.229  0.00  0.00    +0.000 A 
ATOM     22  F   UNL     1       4.850   2.291  11.823  0.00  0.00    +0.000 F 
ATOM     23  C   UNL     1       6.786   3.549  11.363  0.00  0.00    +0.000 A 
ATOM     24  C   UNL     1       7.742   4.460  11.797  0.00  0.00    +0.000 A 
ATOM     25  C   UNL     1       7.637   4.999  13.077  0.00  0.00    +0.000 A 
ATOM     26  F   UNL     1       8.587   5.859  13.475  0.00  0.00    +0.000 F 
ENDBRANCH  18  19
ENDBRANCH   2  16
BRANCH   1  27
ATOM     27  C   UNL     1       2.747   4.153  17.534  0.00  0.00    +0.000 C 
BRANCH  27  28
ATOM     28  C   UNL     1       3.334   2.932  18.323  0.00  0.00    +0.000 C 
BRANCH  28  29
ATOM     29  N   UNL     1       4.578   3.224  19.040  0.00  0.00    +0.000 NA
ATOM     30  H   UNL     1       4.961   2.393  19.489  0.00  0.00    +0.000 HD
ATOM     31  H   UNL     1       4.419   3.892  19.795  0.00  0.00    +0.000 HD
ENDBRANCH  28  29
BRANCH  28  32
ATOM     32  C   UNL     1       2.275   2.321  19.301  0.00  0.00    +0.000 C 
ATOM     33  C   UNL     1       0.828   2.655  18.900  0.00  0.00    +0.000 C 
BRANCH  32  35
ATOM     34  C   UNL     1       1.386   2.658  21.714  0.00  0.00    +0.000 C 
ATOM     35  C   UNL     1       2.592   2.683  20.777  0.00  0.00    +0.000 C 
ENDBRANCH  32  35
ENDBRANCH  28  32
ENDBRANCH  27  28
ENDBRANCH   1  27
TORSDOF 9
ENDMDL
MODEL 2
REMARK VINA RESULT:      -9.6      0.263      1.187
REMARK  Name = 
REMARK  11 active torsions:
REMARK  status: ('A' for Active; 'I' for Inactive)
REMARK    1  A    between atoms: C_1  and  C_2
REMARK    2  A    between atoms: C_2  and  C_3
REMARK    3  A    between atoms: C_3  and  C_4
REMARK    4  A    between atoms: C_3  and  C_5
REMARK    5  A    between atoms: C_5  and  N_6
REMARK    6  A    between atoms: C_5  and  C_7
REMARK    7  A    between atoms: C_7  and  N_8
REMARK    8  A    between atoms: N_8  and  C_22
REMARK    9  A    between atoms: C_9  and  C_11
REMARK   10  A    between atoms: C_13  and  C_14
REMARK   11  A    between atoms: C_25  and  C_26
REMARK                            x       y       z     vdW  Elec       q    Type
REMARK                         _______ _______ _______ _____ _____    ______ ____
ROOT
ATOM      1  N   UNL     1       3.489   5.299  17.728  0.00  0.00    +0.000 N 
ATOM      2  C   UNL     1       4.785   5.665  17.318  0.00  0.00    +0.000 C 
ATOM      3  O   UNL     1       5.322   6.714  17.670  0.00  0.00    +0.000 OA
ENDROOT
BRANCH   1   4
ATOM      4  C   UNL     1       2.778   6.217  18.562  0.00  0.00    +0.000 A 
ATOM      5  C   UNL     1       2.457   7.472  18.054  0.00  0.00    +0.000 A 
ATOM      6  C   UNL     1       1.797   8.408  18.858  0.00  0.00    +0.000 A 
ATOM      7  C   UNL     1       1.440   8.133  20.192  0.00  0.00    +0.000 A 
ATOM      8  C   UNL     1       1.743   6.843  20.674  0.00  0.00    +0.000 A 
ATOM      9  C   UNL     1       2.407   5.895  19.870  0.00  0.00    +0.000 A 
BRANCH   7  10
ATOM     10  C   UNL     1       0.843   9.199  21.041  0.00  0.00    +0.000 A 
ATOM     11  C   UNL     1       0.288   8.904  22.304  0.00  0.00    +0.000 A 
ATOM     12  C   UNL     1      -0.415   9.860  23.046  0.00  0.00    +0.000 A 
ATOM     13  C   UNL     1      -0.553  11.153  22.557  0.00  0.00    +0.000 A 
ATOM     14  C   UNL     1       0.027  11.491  21.338  0.00  0.00    +0.000 A 
ATOM     15  C   UNL     1       0.716  10.525  20.590  0.00  0.00    +0.000 A 
ENDBRANCH   7  10
ENDBRANCH   1   4
BRANCH   2  16
ATOM     16  C   UNL     1       5.577   4.751  16.418  0.00  0.00    +0.000 C 
ATOM     17  C   UNL     1       7.079   4.647  16.569  0.00  0.00    +0.000 C 
ATOM     18  C   UNL     1       6.519   5.349  15.359  0.00  0.00    +0.000 C 
BRANCH  18  19
ATOM     19  C   UNL     1       6.588   4.714  13.976  0.00  0.00    +0.000 A 
ATOM     20  C   UNL     1       5.637   3.780  13.515  0.00  0.00    +0.000 A 
ATOM     21  C   UNL     1       5.743   3.225  12.236  0.00  0.00    +0.000 A 
ATOM     22  F   UNL     1       4.824   2.342  11.820  0.00  0.00    +0.000 F 
ATOM     23  C   UNL     1       6.787   3.566  11.380  0.00  0.00    +0.000 A 
ATOM     24  C   UNL     1       7.754   4.459  11.824  0.00  0.00    +0.000 A 
ATOM     25  C   UNL     1       7.646   4.999  13.103  0.00  0.00    +0.000 A 
ATOM     26  F   UNL     1       8.608   5.843  13.510  0.00  0.00    +0.000 F 
ENDBRANCH  18  19
ENDBRANCH   2  16
BRANCH   1  27
ATOM     27  C   UNL     1       2.792   4.016  17.474  0.00  0.00    +0.000 C 
BRANCH  27  28
ATOM     28  C   UNL     1       3.334   2.784  18.277  0.00  0.00    +0.000 C 
BRANCH  28  29
ATOM     29  N   UNL     1       4.523   3.070  19.083  0.00  0.00    +0.000 NA
ATOM     30  H   UNL     1       4.609   4.063  19.293  0.00  0.00    +0.000 HD
ATOM     31  H   UNL     1       5.377   2.824  18.580  0.00  0.00    +0.000 HD
ENDBRANCH  28  29
BRANCH  28  32
ATOM     32  C   UNL     1       2.216   2.144  19.167  0.00  0.00    +0.000 C 
ATOM     33  C   UNL     1       0.804   2.627  18.791  0.00  0.00    +0.000 C 
BRANCH  32  35
ATOM     34  C   UNL     1       1.361   2.815  21.521  0.00  0.00    +0.000 C 
ATOM     35  C   UNL     1       2.530   2.311  20.678  0.00  0.00    +0.000 C 
ENDBRANCH  32  35
ENDBRANCH  28  32
ENDBRANCH  27  28
ENDBRANCH   1  27
TORSDOF 9
ENDMDL
MODEL 3
REMARK VINA RESULT:      -9.3      0.863      1.309
REMARK  Name = 
REMARK  11 active torsions:
REMARK  status: ('A' for Active; 'I' for Inactive)
REMARK    1  A    between atoms: C_1  and  C_2
REMARK    2  A    between atoms: C_2  and  C_3
REMARK    3  A    between atoms: C_3  and  C_4
REMARK    4  A    between atoms: C_3  and  C_5
REMARK    5  A    between atoms: C_5  and  N_6
REMARK    6  A    between atoms: C_5  and  C_7
REMARK    7  A    between atoms: C_7  and  N_8
REMARK    8  A    between atoms: N_8  and  C_22
REMARK    9  A    between atoms: C_9  and  C_11
REMARK   10  A    between atoms: C_13  and  C_14
REMARK   11  A    between atoms: C_25  and  C_26
REMARK                            x       y       z     vdW  Elec       q    Type
REMARK                         _______ _______ _______ _____ _____    ______ ____
ROOT
ATOM      1  N   UNL     1       3.169   5.724  17.736  0.00  0.00    +0.000 N 
ATOM      2  C   UNL     1       4.525   5.885  17.393  0.00  0.00    +0.000 C 
ATOM      3  O   UNL     1       5.200   6.836  17.782  0.00  0.00    +0.000 OA
ENDROOT
BRANCH   1   4
ATOM      4  C   UNL     1       2.570   6.739  18.545  0.00  0.00    +0.000 A 
ATOM      5  C   UNL     1       2.349   6.478  19.894  0.00  0.00    +0.000 A 
ATOM      6  C   UNL     1       1.729   7.436  20.702  0.00  0.00    +0.000 A 
ATOM      7  C   UNL     1       1.301   8.681  20.200  0.00  0.00    +0.000 A 
ATOM      8  C   UNL     1       1.567   8.937  18.840  0.00  0.00    +0.000 A 
ATOM      9  C   UNL     1       2.192   7.978  18.018  0.00  0.00    +0.000 A 
BRANCH   7  10
ATOM     10  C   UNL     1       0.544   9.618  21.072  0.00  0.00    +0.000 A 
ATOM     11  C   UNL     1       0.234   9.287  22.408  0.00  0.00    +0.000 A 
ATOM     12  C   UNL     1      -0.609  10.083  23.193  0.00  0.00    +0.000 A 
ATOM     13  C   UNL     1      -1.141  11.254  22.669  0.00  0.00    +0.000 A 
ATOM     14  C   UNL     1      -0.813  11.637  21.372  0.00  0.00    +0.000 A 
ATOM     15  C   UNL     1       0.018  10.828  20.584  0.00  0.00    +0.000 A 
ENDBRANCH   7  10
ENDBRANCH   1   4
BRANCH   2  16
ATOM     16  C   UNL     1       5.208   4.862  16.521  0.00  0.00    +0.000 C 
ATOM     17  C   UNL     1       6.637   4.453  16.803  0.00  0.00    +0.000 C 
ATOM     18  C   UNL     1       6.351   5.295  15.587  0.00  0.00    +0.000 C 
BRANCH  18  19
ATOM     19  C   UNL     1       6.432   4.707  14.183  0.00  0.00    +0.000 A 
ATOM     20  C   UNL     1       5.467   3.816  13.671  0.00  0.00    +0.000 A 
ATOM     21  C   UNL     1       5.585   3.304  12.374  0.00  0.00    +0.000 A 
ATOM     22  F   UNL     1       4.652   2.462  11.909  0.00  0.00    +0.000 F 
ATOM     23  C   UNL     1       6.656   3.647  11.553  0.00  0.00    +0.000 A 
ATOM     24  C   UNL     1       7.637   4.497  12.048  0.00  0.00    +0.000 A 
ATOM     25  C   UNL     1       7.517   4.994  13.343  0.00  0.00    +0.000 A 
ATOM     26  F   UNL     1       8.492   5.796  13.801  0.00  0.00    +0.000 F 
ENDBRANCH  18  19
ENDBRANCH   2  16
BRANCH   1  27
ATOM     27  C   UNL     1       2.294   4.567  17.434  0.00  0.00    +0.000 C 
BRANCH  27  28
ATOM     28  C   UNL     1       1.806   3.748  18.678  0.00  0.00    +0.000 C 
BRANCH  28  29
ATOM     29  N   UNL     1       0.699   2.831  18.396  0.00  0.00    +0.000 NA
ATOM     30  H   UNL     1       0.084   3.192  17.669  0.00  0.00    +0.000 HD
ATOM     31  H   UNL     1       0.106   2.707  19.218  0.00  0.00    +0.000 HD
ENDBRANCH  28  29
BRANCH  28  32
ATOM     32  C   UNL     1       2.990   2.978  19.355  0.00  0.00    +0.000 C 
ATOM     33  C   UNL     1       3.642   1.944  18.420  0.00  0.00    +0.000 C 
BRANCH  32  35
ATOM     34  C   UNL     1       2.142   3.403  21.768  0.00  0.00    +0.000 C 
ATOM     35  C   UNL     1       2.566   2.375  20.721  0.00  0.00    +0.000 C 
ENDBRANCH  32  35
ENDBRANCH  28  32
ENDBRANCH  27  28
ENDBRANCH   1  27
TORSDOF 9
ENDMDL
MODEL 4
REMARK VINA RESULT:      -9.1      5.713     11.478
REMARK  Name = 
REMARK  11 active torsions:
REMARK  status: ('A' for Active; 'I' for Inactive)
REMARK    1  A    between atoms: C_1  and  C_2
REMARK    2  A    between atoms: C_2  and  C_3
REMARK    3  A    between atoms: C_3  and  C_4
REMARK    4  A    between atoms: C_3  and  C_5
REMARK    5  A    between atoms: C_5  and  N_6
REMARK    6  A    between atoms: C_5  and  C_7
REMARK    7  A    between atoms: C_7  and  N_8
REMARK    8  A    between atoms: N_8  and  C_22
REMARK    9  A    between atoms: C_9  and  C_11
REMARK   10  A    between atoms: C_13  and  C_14
REMARK   11  A    between atoms: C_25  and  C_26
REMARK                            x       y       z     vdW  Elec       q    Type
REMARK                         _______ _______ _______ _____ _____    ______ ____
ROOT
ATOM      1  N   UNL     1      -0.315  10.746  19.860  0.00  0.00    +0.000 N 
ATOM      2  C   UNL     1       0.143  11.758  20.725  0.00  0.00    +0.000 C 
ATOM      3  O   UNL     1       1.313  11.832  21.100  0.00  0.00    +0.000 OA
ENDROOT
BRANCH   1   4
ATOM      4  C   UNL     1       0.632   9.760  19.441  0.00  0.00    +0.000 A 
ATOM      5  C   UNL     1       1.118   9.810  18.138  0.00  0.00    +0.000 A 
ATOM      6  C   UNL     1       2.015   8.836  17.686  0.00  0.00    +0.000 A 
ATOM      7  C   UNL     1       2.453   7.779  18.507  0.00  0.00    +0.000 A 
ATOM      8  C   UNL     1       1.975   7.768  19.832  0.00  0.00    +0.000 A 
ATOM      9  C   UNL     1       1.072   8.746  20.296  0.00  0.00    +0.000 A 
BRANCH   7  10
ATOM     10  C   UNL     1       3.316   6.704  17.945  0.00  0.00    +0.000 A 
ATOM     11  C   UNL     1       4.422   7.008  17.124  0.00  0.00    +0.000 A 
ATOM     12  C   UNL     1       5.148   6.012  16.460  0.00  0.00    +0.000 A 
ATOM     13  C   UNL     1       4.806   4.677  16.628  0.00  0.00    +0.000 A 
ATOM     14  C   UNL     1       3.752   4.339  17.472  0.00  0.00    +0.000 A 
ATOM     15  C   UNL     1       3.017   5.341  18.121  0.00  0.00    +0.000 A 
ENDBRANCH   7  10
ENDBRANCH   1   4
BRANCH   2  16
ATOM     16  C   UNL     1      -0.811  12.812  21.224  0.00  0.00    +0.000 C 
ATOM     17  C   UNL     1      -0.482  13.612  22.466  0.00  0.00    +0.000 C 
ATOM     18  C   UNL     1      -1.583  12.587  22.536  0.00  0.00    +0.000 C 
BRANCH  18  19
ATOM     19  C   UNL     1      -3.046  13.004  22.623  0.00  0.00    +0.000 A 
ATOM     20  C   UNL     1      -3.993  12.684  21.630  0.00  0.00    +0.000 A 
ATOM     21  C   UNL     1      -5.326  13.089  21.756  0.00  0.00    +0.000 A 
ATOM     22  F   UNL     1      -6.208  12.767  20.799  0.00  0.00    +0.000 F 
ATOM     23  C   UNL     1      -5.760  13.824  22.855  0.00  0.00    +0.000 A 
ATOM     24  C   UNL     1      -4.838  14.181  23.831  0.00  0.00    +0.000 A 
ATOM     25  C   UNL     1      -3.511  13.782  23.693  0.00  0.00    +0.000 A 
ATOM     26  F   UNL     1      -2.640  14.160  24.642  0.00  0.00    +0.000 F 
ENDBRANCH  18  19
ENDBRANCH   2  16
BRANCH   1  27
ATOM     27  C   UNL     1      -1.658  10.625  19.246  0.00  0.00    +0.000 C 
BRANCH  27  28
ATOM     28  C   UNL     1      -2.113  11.847  18.374  0.00  0.00    +0.000 C 
BRANCH  28  29
ATOM     29  N   UNL     1      -1.026  12.495  17.638  0.00  0.00    +0.000 NA
ATOM     30  H   UNL     1      -0.337  12.909  18.264  0.00  0.00    +0.000 HD
ATOM     31  H   UNL     1      -1.376  13.268  17.070  0.00  0.00    +0.000 HD
ENDBRANCH  28  29
BRANCH  28  32
ATOM     32  C   UNL     1      -3.271  11.452  17.398  0.00  0.00    +0.000 C 
ATOM     33  C   UNL     1      -4.641  11.378  18.094  0.00  0.00    +0.000 C 
BRANCH  32  35
ATOM     34  C   UNL     1      -2.923  10.335  15.084  0.00  0.00    +0.000 C 
ATOM     35  C   UNL     1      -2.926  10.165  16.601  0.00  0.00    +0.000 C 
ENDBRANCH  32  35
ENDBRANCH  28  32
ENDBRANCH  27  28
ENDBRANCH   1  27
TORSDOF 9
ENDMDL
MODEL 5
REMARK VINA RESULT:      -8.9      5.687     11.519
REMARK  Name = 
REMARK  11 active torsions:
REMARK  status: ('A' for Active; 'I' for Inactive)
REMARK    1  A    between atoms: C_1  and  C_2
REMARK    2  A    between atoms: C_2  and  C_3
REMARK    3  A    between atoms: C_3  and  C_4
REMARK    4  A    between atoms: C_3  and  C_5
REMARK    5  A    between atoms: C_5  and  N_6
REMARK    6  A    between atoms: C_5  and  C_7
REMARK    7  A    between atoms: C_7  and  N_8
REMARK    8  A    between atoms: N_8  and  C_22
REMARK    9  A    between atoms: C_9  and  C_11
REMARK   10  A    between atoms: C_13  and  C_14
REMARK   11  A    between atoms: C_25  and  C_26
REMARK                            x       y       z     vdW  Elec       q    Type
REMARK                         _______ _______ _______ _____ _____    ______ ____
ROOT
ATOM      1  N   UNL     1      -0.145  10.852  19.922  0.00  0.00    +0.000 N 
ATOM      2  C   UNL     1       0.417  11.938  20.620  0.00  0.00    +0.000 C 
ATOM      3  O   UNL     1       1.623  12.032  20.843  0.00  0.00    +0.000 OA
ENDROOT
BRANCH   1   4
ATOM      4  C   UNL     1       0.741   9.815  19.495  0.00  0.00    +0.000 A 
ATOM      5  C   UNL     1       1.241   9.853  18.197  0.00  0.00    +0.000 A 
ATOM      6  C   UNL     1       2.079   8.831  17.737  0.00  0.00    +0.000 A 
ATOM      7  C   UNL     1       2.442   7.736  18.545  0.00  0.00    +0.000 A 
ATOM      8  C   UNL     1       1.953   7.737  19.867  0.00  0.00    +0.000 A 
ATOM      9  C   UNL     1       1.109   8.762  20.338  0.00  0.00    +0.000 A 
BRANCH   7  10
ATOM     10  C   UNL     1       3.240   6.618  17.973  0.00  0.00    +0.000 A 
ATOM     11  C   UNL     1       4.426   6.861  17.248  0.00  0.00    +0.000 A 
ATOM     12  C   UNL     1       5.103   5.839  16.571  0.00  0.00    +0.000 A 
ATOM     13  C   UNL     1       4.628   4.536  16.630  0.00  0.00    +0.000 A 
ATOM     14  C   UNL     1       3.490   4.253  17.380  0.00  0.00    +0.000 A 
ATOM     15  C   UNL     1       2.806   5.282  18.043  0.00  0.00    +0.000 A 
ENDBRANCH   7  10
ENDBRANCH   1   4
BRANCH   2  16
ATOM     16  C   UNL     1      -0.468  13.052  21.119  0.00  0.00    +0.000 C 
ATOM     17  C   UNL     1       0.102  14.137  22.007  0.00  0.00    +0.000 C 
ATOM     18  C   UNL     1      -0.837  13.125  22.611  0.00  0.00    +0.000 C 
BRANCH  18  19
ATOM     19  C   UNL     1      -2.256  13.506  23.012  0.00  0.00    +0.000 A 
ATOM     20  C   UNL     1      -2.750  14.823  22.918  0.00  0.00    +0.000 A 
ATOM     21  C   UNL     1      -4.063  15.123  23.298  0.00  0.00    +0.000 A 
ATOM     22  F   UNL     1      -4.509  16.383  23.195  0.00  0.00    +0.000 F 
ATOM     23  C   UNL     1      -4.919  14.140  23.786  0.00  0.00    +0.000 A 
ATOM     24  C   UNL     1      -4.445  12.841  23.918  0.00  0.00    +0.000 A 
ATOM     25  C   UNL     1      -3.134  12.554  23.547  0.00  0.00    +0.000 A 
ATOM     26  F   UNL     1      -2.699  11.294  23.707  0.00  0.00    +0.000 F 
ENDBRANCH  18  19
ENDBRANCH   2  16
BRANCH   1  27
ATOM     27  C   UNL     1      -1.552  10.691  19.488  0.00  0.00    +0.000 C 
BRANCH  27  28
ATOM     28  C   UNL     1      -2.015  11.648  18.335  0.00  0.00    +0.000 C 
BRANCH  28  29
ATOM     29  N   UNL     1      -0.915  12.270  17.595  0.00  0.00    +0.000 NA
ATOM     30  H   UNL     1      -0.182  11.599  17.370  0.00  0.00    +0.000 HD
ATOM     31  H   UNL     1      -0.460  12.993  18.153  0.00  0.00    +0.000 HD
ENDBRANCH  28  29
BRANCH  28  32
ATOM     32  C   UNL     1      -2.992  10.924  17.349  0.00  0.00    +0.000 C 
ATOM     33  C   UNL     1      -3.434   9.539  17.854  0.00  0.00    +0.000 C 
BRANCH  32  35
ATOM     34  C   UNL     1      -3.377  10.346  14.851  0.00  0.00    +0.000 C 
ATOM     35  C   UNL     1      -2.417  10.887  15.907  0.00  0.00    +0.000 C 
ENDBRANCH  32  35
ENDBRANCH  28  32
ENDBRANCH  27  28
ENDBRANCH   1  27
TORSDOF 9
ENDMDL
MODEL 6
REMARK VINA RESULT:      -8.9      5.482     11.498
REMARK  Name = 
REMARK  11 active torsions:
REMARK  status: ('A' for Active; 'I' for Inactive)
REMARK    1  A    between atoms: C_1  and  C_2
REMARK    2  A    between atoms: C_2  and  C_3
REMARK    3  A    between atoms: C_3  and  C_4
REMARK    4  A    between atoms: C_3  and  C_5
REMARK    5  A    between atoms: C_5  and  N_6
REMARK    6  A    between atoms: C_5  and  C_7
REMARK    7  A    between atoms: C_7  and  N_8
REMARK    8  A    between atoms: N_8  and  C_22
REMARK    9  A    between atoms: C_9  and  C_11
REMARK   10  A    between atoms: C_13  and  C_14
REMARK   11  A    between atoms: C_25  and  C_26
REMARK                            x       y       z     vdW  Elec       q    Type
REMARK                         _______ _______ _______ _____ _____    ______ ____
ROOT
ATOM      1  N   UNL     1      -0.029  10.627  19.785  0.00  0.00    +0.000 N 
ATOM      2  C   UNL     1       0.521  11.787  20.364  0.00  0.00    +0.000 C 
ATOM      3  O   UNL     1       1.733  11.958  20.485  0.00  0.00    +0.000 OA
ENDROOT
BRANCH   1   4
ATOM      4  C   UNL     1       0.881   9.610  19.357  0.00  0.00    +0.000 A 
ATOM      5  C   UNL     1       1.394   9.670  18.065  0.00  0.00    +0.000 A 
ATOM      6  C   UNL     1       2.255   8.668  17.604  0.00  0.00    +0.000 A 
ATOM      7  C   UNL     1       2.629   7.573  18.405  0.00  0.00    +0.000 A 
ATOM      8  C   UNL     1       2.126   7.551  19.722  0.00  0.00    +0.000 A 
ATOM      9  C   UNL     1       1.259   8.556  20.194  0.00  0.00    +0.000 A 
BRANCH   7  10
ATOM     10  C   UNL     1       3.454   6.475  17.831  0.00  0.00    +0.000 A 
ATOM     11  C   UNL     1       4.595   6.748  17.048  0.00  0.00    +0.000 A 
ATOM     12  C   UNL     1       5.289   5.739  16.372  0.00  0.00    +0.000 A 
ATOM     13  C   UNL     1       4.878   4.417  16.489  0.00  0.00    +0.000 A 
ATOM     14  C   UNL     1       3.788   4.107  17.295  0.00  0.00    +0.000 A 
ATOM     15  C   UNL     1       3.085   5.123  17.958  0.00  0.00    +0.000 A 
ENDBRANCH   7  10
ENDBRANCH   1   4
BRANCH   2  16
ATOM     16  C   UNL     1      -0.386  12.885  20.859  0.00  0.00    +0.000 C 
ATOM     17  C   UNL     1       0.183  14.046  21.644  0.00  0.00    +0.000 C 
ATOM     18  C   UNL     1      -0.662  13.029  22.365  0.00  0.00    +0.000 C 
BRANCH  18  19
ATOM     19  C   UNL     1      -2.070  13.364  22.838  0.00  0.00    +0.000 A 
ATOM     20  C   UNL     1      -2.617  14.661  22.751  0.00  0.00    +0.000 A 
ATOM     21  C   UNL     1      -3.918  14.919  23.198  0.00  0.00    +0.000 A 
ATOM     22  F   UNL     1      -4.416  16.160  23.100  0.00  0.00    +0.000 F 
ATOM     23  C   UNL     1      -4.708  13.915  23.749  0.00  0.00    +0.000 A 
ATOM     24  C   UNL     1      -4.179  12.637  23.876  0.00  0.00    +0.000 A 
ATOM     25  C   UNL     1      -2.881  12.391  23.437  0.00  0.00    +0.000 A 
ATOM     26  F   UNL     1      -2.391  11.151  23.593  0.00  0.00    +0.000 F 
ENDBRANCH  18  19
ENDBRANCH   2  16
BRANCH   1  27
ATOM     27  C   UNL     1      -1.453  10.363  19.475  0.00  0.00    +0.000 C 
BRANCH  27  28
ATOM     28  C   UNL     1      -2.077  11.266  18.354  0.00  0.00    +0.000 C 
BRANCH  28  29
ATOM     29  N   UNL     1      -1.818  10.794  16.992  0.00  0.00    +0.000 NA
ATOM     30  H   UNL     1      -1.511   9.823  16.978  0.00  0.00    +0.000 HD
ATOM     31  H   UNL     1      -1.060  11.324  16.558  0.00  0.00    +0.000 HD
ENDBRANCH  28  29
BRANCH  28  32
ATOM     32  C   UNL     1      -3.614  11.470  18.574  0.00  0.00    +0.000 C 
ATOM     33  C   UNL     1      -4.376  11.735  17.264  0.00  0.00    +0.000 C 
BRANCH  32  35
ATOM     34  C   UNL     1      -5.260  12.429  20.333  0.00  0.00    +0.000 C 
ATOM     35  C   UNL     1      -3.892  12.540  19.664  0.00  0.00    +0.000 C 
ENDBRANCH  32  35
ENDBRANCH  28  32
ENDBRANCH  27  28
ENDBRANCH   1  27
TORSDOF 9
ENDMDL
MODEL 7
REMARK VINA RESULT:      -8.8      5.710     11.524
REMARK  Name = 
REMARK  11 active torsions:
REMARK  status: ('A' for Active; 'I' for Inactive)
REMARK    1  A    between atoms: C_1  and  C_2
REMARK    2  A    between atoms: C_2  and  C_3
REMARK    3  A    between atoms: C_3  and  C_4
REMARK    4  A    between atoms: C_3  and  C_5
REMARK    5  A    between atoms: C_5  and  N_6
REMARK    6  A    between atoms: C_5  and  C_7
REMARK    7  A    between atoms: C_7  and  N_8
REMARK    8  A    between atoms: N_8  and  C_22
REMARK    9  A    between atoms: C_9  and  C_11
REMARK   10  A    between atoms: C_13  and  C_14
REMARK   11  A    between atoms: C_25  and  C_26
REMARK                            x       y       z     vdW  Elec       q    Type
REMARK                         _______ _______ _______ _____ _____    ______ ____
ROOT
ATOM      1  N   UNL     1      -0.217  10.829  19.845  0.00  0.00    +0.000 N 
ATOM      2  C   UNL     1       0.288  11.851  20.670  0.00  0.00    +0.000 C 
ATOM      3  O   UNL     1       1.467  11.902  21.020  0.00  0.00    +0.000 OA
ENDROOT
BRANCH   1   4
ATOM      4  C   UNL     1       0.692   9.804  19.436  0.00  0.00    +0.000 A 
ATOM      5  C   UNL     1       1.192   9.830  18.138  0.00  0.00    +0.000 A 
ATOM      6  C   UNL     1       2.052   8.819  17.696  0.00  0.00    +0.000 A 
ATOM      7  C   UNL     1       2.439   7.747  18.523  0.00  0.00    +0.000 A 
ATOM      8  C   UNL     1       1.949   7.759  19.844  0.00  0.00    +0.000 A 
ATOM      9  C   UNL     1       1.083   8.774  20.297  0.00  0.00    +0.000 A 
BRANCH   7  10
ATOM     10  C   UNL     1       3.262   6.636  17.971  0.00  0.00    +0.000 A 
ATOM     11  C   UNL     1       4.431   6.892  17.225  0.00  0.00    +0.000 A 
ATOM     12  C   UNL     1       5.129   5.873  16.567  0.00  0.00    +0.000 A 
ATOM     13  C   UNL     1       4.692   4.559  16.666  0.00  0.00    +0.000 A 
ATOM     14  C   UNL     1       3.571   4.265  17.436  0.00  0.00    +0.000 A 
ATOM     15  C   UNL     1       2.865   5.291  18.080  0.00  0.00    +0.000 A 
ENDBRANCH   7  10
ENDBRANCH   1   4
BRANCH   2  16
ATOM     16  C   UNL     1      -0.625  12.947  21.157  0.00  0.00    +0.000 C 
ATOM     17  C   UNL     1      -0.064  14.116  21.938  0.00  0.00    +0.000 C 
ATOM     18  C   UNL     1      -0.906  13.098  22.662  0.00  0.00    +0.000 C 
BRANCH  18  19
ATOM     19  C   UNL     1      -2.318  13.429  23.129  0.00  0.00    +0.000 A 
ATOM     20  C   UNL     1      -3.140  12.499  23.798  0.00  0.00    +0.000 A 
ATOM     21  C   UNL     1      -4.430  12.851  24.209  0.00  0.00    +0.000 A 
ATOM     22  F   UNL     1      -5.189  11.949  24.846  0.00  0.00    +0.000 F 
ATOM     23  C   UNL     1      -4.947  14.120  23.967  0.00  0.00    +0.000 A 
ATOM     24  C   UNL     1      -4.168  15.044  23.280  0.00  0.00    +0.000 A 
ATOM     25  C   UNL     1      -2.889  14.681  22.867  0.00  0.00    +0.000 A 
ATOM     26  F   UNL     1      -2.169  15.588  22.187  0.00  0.00    +0.000 F 
ENDBRANCH  18  19
ENDBRANCH   2  16
BRANCH   1  27
ATOM     27  C   UNL     1      -1.575  10.730  19.261  0.00  0.00    +0.000 C 
BRANCH  27  28
ATOM     28  C   UNL     1      -1.969  11.880  18.272  0.00  0.00    +0.000 C 
BRANCH  28  29
ATOM     29  N   UNL     1      -0.829  12.510  17.601  0.00  0.00    +0.000 NA
ATOM     30  H   UNL     1      -0.013  11.900  17.587  0.00  0.00    +0.000 HD
ATOM     31  H   UNL     1      -0.531  13.352  18.096  0.00  0.00    +0.000 HD
ENDBRANCH  28  29
BRANCH  28  32
ATOM     32  C   UNL     1      -3.018  11.393  17.217  0.00  0.00    +0.000 C 
ATOM     33  C   UNL     1      -4.435  11.257  17.802  0.00  0.00    +0.000 C 
BRANCH  32  35
ATOM     34  C   UNL     1      -2.919  10.027  15.016  0.00  0.00    +0.000 C 
ATOM     35  C   UNL     1      -2.537  10.108  16.492  0.00  0.00    +0.000 C 
ENDBRANCH  32  35
ENDBRANCH  28  32
ENDBRANCH  27  28
ENDBRANCH   1  27
TORSDOF 9
ENDMDL
MODEL 8
REMARK VINA RESULT:      -8.7      5.607     11.434
REMARK  Name = 
REMARK  11 active torsions:
REMARK  status: ('A' for Active; 'I' for Inactive)
REMARK    1  A    between atoms: C_1  and  C_2
REMARK    2  A    between atoms: C_2  and  C_3
REMARK    3  A    between atoms: C_3  and  C_4
REMARK    4  A    between atoms: C_3  and  C_5
REMARK    5  A    between atoms: C_5  and  N_6
REMARK    6  A    between atoms: C_5  and  C_7
REMARK    7  A    between atoms: C_7  and  N_8
REMARK    8  A    between atoms: N_8  and  C_22
REMARK    9  A    between atoms: C_9  and  C_11
REMARK   10  A    between atoms: C_13  and  C_14
REMARK   11  A    between atoms: C_25  and  C_26
REMARK                            x       y       z     vdW  Elec       q    Type
REMARK                         _______ _______ _______ _____ _____    ______ ____
ROOT
ATOM      1  N   UNL     1      -0.141  10.666  19.961  0.00  0.00    +0.000 N 
ATOM      2  C   UNL     1       0.398  11.779  20.634  0.00  0.00    +0.000 C 
ATOM      3  O   UNL     1       1.606  11.925  20.816  0.00  0.00    +0.000 OA
ENDROOT
BRANCH   1   4
ATOM      4  C   UNL     1       0.773   9.664  19.510  0.00  0.00    +0.000 A 
ATOM      5  C   UNL     1       1.227   9.714  18.195  0.00  0.00    +0.000 A 
ATOM      6  C   UNL     1       2.090   8.725  17.712  0.00  0.00    +0.000 A 
ATOM      7  C   UNL     1       2.528   7.653  18.513  0.00  0.00    +0.000 A 
ATOM      8  C   UNL     1       2.085   7.642  19.851  0.00  0.00    +0.000 A 
ATOM      9  C   UNL     1       1.215   8.634  20.346  0.00  0.00    +0.000 A 
BRANCH   7  10
ATOM     10  C   UNL     1       3.353   6.565  17.921  0.00  0.00    +0.000 A 
ATOM     11  C   UNL     1       4.514   6.852  17.172  0.00  0.00    +0.000 A 
ATOM     12  C   UNL     1       5.212   5.858  16.477  0.00  0.00    +0.000 A 
ATOM     13  C   UNL     1       4.785   4.538  16.541  0.00  0.00    +0.000 A 
ATOM     14  C   UNL     1       3.674   4.213  17.313  0.00  0.00    +0.000 A 
ATOM     15  C   UNL     1       2.967   5.215  17.993  0.00  0.00    +0.000 A 
ENDBRANCH   7  10
ENDBRANCH   1   4
BRANCH   2  16
ATOM     16  C   UNL     1      -0.516  12.858  21.158  0.00  0.00    +0.000 C 
ATOM     17  C   UNL     1      -0.021  13.835  22.202  0.00  0.00    +0.000 C 
ATOM     18  C   UNL     1      -1.028  12.790  22.607  0.00  0.00    +0.000 C 
BRANCH  18  19
ATOM     19  C   UNL     1      -2.474  13.162  22.907  0.00  0.00    +0.000 A 
ATOM     20  C   UNL     1      -3.562  12.659  22.165  0.00  0.00    +0.000 A 
ATOM     21  C   UNL     1      -4.874  13.030  22.480  0.00  0.00    +0.000 A 
ATOM     22  F   UNL     1      -5.891  12.534  21.762  0.00  0.00    +0.000 F 
ATOM     23  C   UNL     1      -5.149  13.909  23.524  0.00  0.00    +0.000 A 
ATOM     24  C   UNL     1      -4.091  14.444  24.248  0.00  0.00    +0.000 A 
ATOM     25  C   UNL     1      -2.788  14.077  23.922  0.00  0.00    +0.000 A 
ATOM     26  F   UNL     1      -1.786  14.627  24.626  0.00  0.00    +0.000 F 
ENDBRANCH  18  19
ENDBRANCH   2  16
BRANCH   1  27
ATOM     27  C   UNL     1      -1.554  10.443  19.576  0.00  0.00    +0.000 C 
BRANCH  27  28
ATOM     28  C   UNL     1      -2.110  11.403  18.468  0.00  0.00    +0.000 C 
BRANCH  28  29
ATOM     29  N   UNL     1      -1.073  12.066  17.674  0.00  0.00    +0.000 NA
ATOM     30  H   UNL     1      -0.712  11.459  16.939  0.00  0.00    +0.000 HD
ATOM     31  H   UNL     1      -0.265  12.304  18.250  0.00  0.00    +0.000 HD
ENDBRANCH  28  29
BRANCH  28  32
ATOM     32  C   UNL     1      -3.124  10.666  17.530  0.00  0.00    +0.000 C 
ATOM     33  C   UNL     1      -2.470  10.134  16.243  0.00  0.00    +0.000 C 
BRANCH  32  35
ATOM     34  C   UNL     1      -5.123  11.999  18.505  0.00  0.00    +0.000 C 
ATOM     35  C   UNL     1      -4.378  11.540  17.255  0.00  0.00    +0.000 C 
ENDBRANCH  32  35
ENDBRANCH  28  32
ENDBRANCH  27  28
ENDBRANCH   1  27
TORSDOF 9
ENDMDL
MODEL 9
REMARK VINA RESULT:      -8.6      5.813     11.729
REMARK  Name = 
REMARK  11 active torsions:
REMARK  status: ('A' for Active; 'I' for Inactive)
REMARK    1  A    between atoms: C_1  and  C_2
REMARK    2  A    between atoms: C_2  and  C_3
REMARK    3  A    between atoms: C_3  and  C_4
REMARK    4  A    between atoms: C_3  and  C_5
REMARK    5  A    between atoms: C_5  and  N_6
REMARK    6  A    between atoms: C_5  and  C_7
REMARK    7  A    between atoms: C_7  and  N_8
REMARK    8  A    between atoms: N_8  and  C_22
REMARK    9  A    between atoms: C_9  and  C_11
REMARK   10  A    between atoms: C_13  and  C_14
REMARK   11  A    between atoms: C_25  and  C_26
REMARK                            x       y       z     vdW  Elec       q    Type
REMARK                         _______ _______ _______ _____ _____    ______ ____
ROOT
ATOM      1  N   UNL     1      -0.222  11.207  20.117  0.00  0.00    +0.000 N 
ATOM      2  C   UNL     1       0.406  12.324  20.700  0.00  0.00    +0.000 C 
ATOM      3  O   UNL     1       1.628  12.431  20.784  0.00  0.00    +0.000 OA
ENDROOT
BRANCH   1   4
ATOM      4  C   UNL     1       0.620  10.154  19.640  0.00  0.00    +0.000 A 
ATOM      5  C   UNL     1       1.128  10.235  18.348  0.00  0.00    +0.000 A 
ATOM      6  C   UNL     1       1.922   9.201  17.839  0.00  0.00    +0.000 A 
ATOM      7  C   UNL     1       2.232   8.052  18.592  0.00  0.00    +0.000 A 
ATOM      8  C   UNL     1       1.736   8.008  19.910  0.00  0.00    +0.000 A 
ATOM      9  C   UNL     1       0.936   9.045  20.430  0.00  0.00    +0.000 A 
BRANCH   7  10
ATOM     10  C   UNL     1       2.983   6.930  17.966  0.00  0.00    +0.000 A 
ATOM     11  C   UNL     1       2.538   5.597  18.084  0.00  0.00    +0.000 A 
ATOM     12  C   UNL     1       3.309   4.516  17.640  0.00  0.00    +0.000 A 
ATOM     13  C   UNL     1       4.537   4.744  17.034  0.00  0.00    +0.000 A 
ATOM     14  C   UNL     1       4.982   6.050  16.855  0.00  0.00    +0.000 A 
ATOM     15  C   UNL     1       4.214   7.129  17.316  0.00  0.00    +0.000 A 
ENDBRANCH   7  10
ENDBRANCH   1   4
BRANCH   2  16
ATOM     16  C   UNL     1      -0.427  13.457  21.245  0.00  0.00    +0.000 C 
ATOM     17  C   UNL     1       0.179  14.451  22.212  0.00  0.00    +0.000 C 
ATOM     18  C   UNL     1      -0.834  13.462  22.728  0.00  0.00    +0.000 C 
BRANCH  18  19
ATOM     19  C   UNL     1      -2.240  13.902  23.116  0.00  0.00    +0.000 A 
ATOM     20  C   UNL     1      -2.643  15.253  23.127  0.00  0.00    +0.000 A 
ATOM     21  C   UNL     1      -3.947  15.607  23.490  0.00  0.00    +0.000 A 
ATOM     22  F   UNL     1      -4.305  16.899  23.488  0.00  0.00    +0.000 F 
ATOM     23  C   UNL     1      -4.884  14.646  23.858  0.00  0.00    +0.000 A 
ATOM     24  C   UNL     1      -4.501  13.311  23.886  0.00  0.00    +0.000 A 
ATOM     25  C   UNL     1      -3.198  12.969  23.533  0.00  0.00    +0.000 A 
ATOM     26  F   UNL     1      -2.853  11.673  23.591  0.00  0.00    +0.000 F 
ENDBRANCH  18  19
ENDBRANCH   2  16
BRANCH   1  27
ATOM     27  C   UNL     1      -1.667  11.023  19.849  0.00  0.00    +0.000 C 
BRANCH  27  28
ATOM     28  C   UNL     1      -2.212  11.746  18.569  0.00  0.00    +0.000 C 
BRANCH  28  29
ATOM     29  N   UNL     1      -1.192  12.477  17.814  0.00  0.00    +0.000 NA
ATOM     30  H   UNL     1      -1.518  13.401  17.532  0.00  0.00    +0.000 HD
ATOM     31  H   UNL     1      -0.962  11.995  16.944  0.00  0.00    +0.000 HD
ENDBRANCH  28  29
BRANCH  28  32
ATOM     32  C   UNL     1      -2.973  10.750  17.630  0.00  0.00    +0.000 C 
ATOM     33  C   UNL     1      -2.024   9.884  16.783  0.00  0.00    +0.000 C 
BRANCH  32  35
ATOM     34  C   UNL     1      -5.255  11.979  17.567  0.00  0.00    +0.000 C 
ATOM     35  C   UNL     1      -4.046  11.482  16.779  0.00  0.00    +0.000 C 
ENDBRANCH  32  35
ENDBRANCH  28  32
ENDBRANCH  27  28
ENDBRANCH   1  27
TORSDOF 9
ENDMDL
