MODEL 1
REMARK VINA RESULT:      -8.2      0.000      0.000
REMARK  Name = 
REMARK  11 active torsions:
REMARK  status: ('A' for Active; 'I' for Inactive)
REMARK    1  A    between atoms: C_1  and  C_2
REMARK    2  A    between atoms: C_2  and  N_3
REMARK    3  A    between atoms: N_3  and  C_4
REMARK    4  A    between atoms: N_3  and  C_5
REMARK    5  A    between atoms: C_5  and  C_6
REMARK    6  A    between atoms: C_6  and  C_7
REMARK    7  A    between atoms: C_7  and  C_8
REMARK    8  A    between atoms: C_11  and  N_12
REMARK    9  A    between atoms: C_13  and  C_15
REMARK   10  A    between atoms: C_18  and  C_19
REMARK   11  A    between atoms: C_22  and  N_23
REMARK                            x       y       z     vdW  Elec       q    Type
REMARK                         _______ _______ _______ _____ _____    ______ ____
ROOT
ATOM      1  C   UNL     1       5.563   4.831  16.348  0.00  0.00    +0.000 A 
ATOM      2  C   UNL     1       5.548   6.216  16.275  0.00  0.00    +0.000 A 
ATOM      3  C   UNL     1       4.646   6.939  17.040  0.00  0.00    +0.000 A 
ATOM      4  C   UNL     1       3.710   6.306  17.872  0.00  0.00    +0.000 A 
ATOM      5  C   UNL     1       3.743   4.887  18.029  0.00  0.00    +0.000 A 
ATOM      6  C   UNL     1       4.681   4.187  17.237  0.00  0.00    +0.000 A 
ENDROOT
BRANCH   5   7
ATOM      7  N   UNL     1       2.858   4.196  18.865  0.00  0.00    +0.000 N 
ATOM      8  C   UNL     1       2.182   2.968  18.419  0.00  0.00    +0.000 C 
ATOM      9  C   UNL     1       0.768   2.966  19.008  0.00  0.00    +0.000 C 
ATOM     10  C   UNL     1       0.727   3.259  20.512  0.00  0.00    +0.000 C 
ATOM     11  C   UNL     1       1.680   4.379  20.943  0.00  0.00    +0.000 C 
ATOM     12  C   UNL     1       3.065   4.210  20.317  0.00  0.00    +0.000 C 
ENDBRANCH   5   7
BRANCH   4  13
ATOM     13  N   UNL     1       2.711   7.083  18.515  0.00  0.00    +0.000 N 
ATOM     14  C   UNL     1       2.254   8.337  18.137  0.00  0.00    +0.000 C 
ATOM     15  O   UNL     1       2.568   8.932  17.111  0.00  0.00    +0.000 OA
ATOM     16  H   UNL     1       2.201   6.623  19.254  0.00  0.00    +0.000 HD
BRANCH  14  17
ATOM     17  C   UNL     1       1.315   8.946  19.059  0.00  0.00    +0.000 A 
ATOM     18  C   UNL     1       0.145   9.640  18.797  0.00  0.00    +0.000 A 
ATOM     19  C   UNL     1      -0.405  10.002  20.049  0.00  0.00    +0.000 A 
ATOM     20  C   UNL     1       0.468   9.522  20.990  0.00  0.00    +0.000 A 
ATOM     21  O   UNL     1       1.523   8.885  20.411  0.00  0.00    +0.000 OA
BRANCH  20  22
ATOM     22  C   UNL     1       0.435   9.562  22.410  0.00  0.00    +0.000 C 
ATOM     23  N   UNL     1       0.390   9.587  23.565  0.00  0.00    +0.000 NA
ENDBRANCH  20  22
ENDBRANCH  14  17
ENDBRANCH   4  13
BRANCH   1  24
ATOM     24  C   UNL     1       6.541   4.054  15.501  0.00  0.00    +0.000 C 
BRANCH  24  25
ATOM     25  C   UNL     1       6.484   4.466  14.028  0.00  0.00    +0.000 C 
BRANCH  25  26
ATOM     26  C   UNL     1       5.256   3.894  13.305  0.00  0.00    +0.000 C 
BRANCH  26  27
ATOM     27  N   UNL     1       5.494   3.518  11.896  0.00  0.00    +0.000 NA
ATOM     28  C   UNL     1       4.239   3.044  11.302  0.00  0.00    +0.000 C 
BRANCH  27  30
ATOM     29  C   UNL     1       6.123   1.199  11.154  0.00  0.00    +0.000 C 
ATOM     30  C   UNL     1       6.567   2.516  11.782  0.00  0.00    +0.000 C 
ENDBRANCH  27  30
ENDBRANCH  26  27
ENDBRANCH  25  26
ENDBRANCH  24  25
ENDBRANCH   1  24
TORSDOF 9
ENDMDL
MODEL 2
REMARK VINA RESULT:      -8.2      1.166      1.396
REMARK  Name = 
REMARK  11 active torsions:
REMARK  status: ('A' for Active; 'I' for Inactive)
REMARK    1  A    between atoms: C_1  and  C_2
REMARK    2  A    between atoms: C_2  and  N_3
REMARK    3  A    between atoms: N_3  and  C_4
REMARK    4  A    between atoms: N_3  and  C_5
REMARK    5  A    between atoms: C_5  and  C_6
REMARK    6  A    between atoms: C_6  and  C_7
REMARK    7  A    between atoms: C_7  and  C_8
REMARK    8  A    between atoms: C_11  and  N_12
REMARK    9  A    between atoms: C_13  and  C_15
REMARK   10  A    between atoms: C_18  and  C_19
REMARK   11  A    between atoms: C_22  and  N_23
REMARK                            x       y       z     vdW  Elec       q    Type
REMARK                         _______ _______ _______ _____ _____    ______ ____
ROOT
ATOM      1  C   UNL     1       5.196   4.607  16.271  0.00  0.00    +0.000 A 
ATOM      2  C   UNL     1       5.290   5.988  16.362  0.00  0.00    +0.000 A 
ATOM      3  C   UNL     1       4.575   6.667  17.338  0.00  0.00    +0.000 A 
ATOM      4  C   UNL     1       3.721   5.997  18.227  0.00  0.00    +0.000 A 
ATOM      5  C   UNL     1       3.655   4.571  18.211  0.00  0.00    +0.000 A 
ATOM      6  C   UNL     1       4.402   3.916  17.206  0.00  0.00    +0.000 A 
ENDROOT
BRANCH   5   7
ATOM      7  N   UNL     1       2.846   3.840  19.090  0.00  0.00    +0.000 N 
ATOM      8  C   UNL     1       1.405   3.675  18.849  0.00  0.00    +0.000 C 
ATOM      9  C   UNL     1       0.692   3.705  20.205  0.00  0.00    +0.000 C 
ATOM     10  C   UNL     1       1.319   2.776  21.251  0.00  0.00    +0.000 C 
ATOM     11  C   UNL     1       2.851   2.796  21.247  0.00  0.00    +0.000 C 
ATOM     12  C   UNL     1       3.411   2.704  19.826  0.00  0.00    +0.000 C 
ENDBRANCH   5   7
BRANCH   4  13
ATOM     13  N   UNL     1       2.898   6.751  19.104  0.00  0.00    +0.000 N 
ATOM     14  C   UNL     1       2.179   7.897  18.798  0.00  0.00    +0.000 C 
ATOM     15  O   UNL     1       2.052   8.382  17.678  0.00  0.00    +0.000 OA
ATOM     16  H   UNL     1       2.730   6.343  20.011  0.00  0.00    +0.000 HD
BRANCH  14  17
ATOM     17  C   UNL     1       1.527   8.526  19.930  0.00  0.00    +0.000 A 
ATOM     18  C   UNL     1       1.164   7.986  21.153  0.00  0.00    +0.000 A 
ATOM     19  C   UNL     1       0.579   9.031  21.905  0.00  0.00    +0.000 A 
ATOM     20  C   UNL     1       0.608  10.134  21.092  0.00  0.00    +0.000 A 
ATOM     21  O   UNL     1       1.171   9.849  19.886  0.00  0.00    +0.000 OA
BRANCH  20  22
ATOM     22  C   UNL     1       0.184  11.473  21.308  0.00  0.00    +0.000 C 
ATOM     23  N   UNL     1      -0.163  12.559  21.504  0.00  0.00    +0.000 NA
ENDBRANCH  20  22
ENDBRANCH  14  17
ENDBRANCH   4  13
BRANCH   1  24
ATOM     24  C   UNL     1       5.968   3.881  15.197  0.00  0.00    +0.000 C 
BRANCH  24  25
ATOM     25  C   UNL     1       5.516   4.280  13.790  0.00  0.00    +0.000 C 
BRANCH  25  26
ATOM     26  C   UNL     1       6.335   3.587  12.692  0.00  0.00    +0.000 C 
BRANCH  26  27
ATOM     27  N   UNL     1       5.535   3.087  11.554  0.00  0.00    +0.000 NA
ATOM     28  C   UNL     1       4.118   3.383  11.790  0.00  0.00    +0.000 C 
BRANCH  27  30
ATOM     29  C   UNL     1       7.221   1.289  11.055  0.00  0.00    +0.000 C 
ATOM     30  C   UNL     1       5.764   1.650  11.327  0.00  0.00    +0.000 C 
ENDBRANCH  27  30
ENDBRANCH  26  27
ENDBRANCH  25  26
ENDBRANCH  24  25
ENDBRANCH   1  24
TORSDOF 9
ENDMDL
MODEL 3
REMARK VINA RESULT:      -8.1      0.638      1.024
REMARK  Name = 
REMARK  11 active torsions:
REMARK  status: ('A' for Active; 'I' for Inactive)
REMARK    1  A    between atoms: C_1  and  C_2
REMARK    2  A    between atoms: C_2  and  N_3
REMARK    3  A    between atoms: N_3  and  C_4
REMARK    4  A    between atoms: N_3  and  C_5
REMARK    5  A    between atoms: C_5  and  C_6
REMARK    6  A    between atoms: C_6  and  C_7
REMARK    7  A    between atoms: C_7  and  C_8
REMARK    8  A    between atoms: C_11  and  N_12
REMARK    9  A    between atoms: C_13  and  C_15
REMARK   10  A    between atoms: C_18  and  C_19
REMARK   11  A    between atoms: C_22  and  N_23
REMARK                            x       y       z     vdW  Elec       q    Type
REMARK                         _______ _______ _______ _____ _____    ______ ____
ROOT
ATOM      1  C   UNL     1       5.253   4.655  16.106  0.00  0.00    +0.000 A 
ATOM      2  C   UNL     1       5.232   6.036  15.985  0.00  0.00    +0.000 A 
ATOM      3  C   UNL     1       4.419   6.791  16.817  0.00  0.00    +0.000 A 
ATOM      4  C   UNL     1       3.579   6.193  17.768  0.00  0.00    +0.000 A 
ATOM      5  C   UNL     1       3.626   4.780  17.971  0.00  0.00    +0.000 A 
ATOM      6  C   UNL     1       4.471   4.047  17.107  0.00  0.00    +0.000 A 
ENDROOT
BRANCH   5   7
ATOM      7  N   UNL     1       2.837   4.124  18.922  0.00  0.00    +0.000 N 
ATOM      8  C   UNL     1       1.519   3.571  18.576  0.00  0.00    +0.000 C 
ATOM      9  C   UNL     1       0.590   3.772  19.778  0.00  0.00    +0.000 C 
ATOM     10  C   UNL     1       1.196   3.307  21.108  0.00  0.00    +0.000 C 
ATOM     11  C   UNL     1       2.672   3.685  21.272  0.00  0.00    +0.000 C 
ATOM     12  C   UNL     1       3.476   3.374  20.008  0.00  0.00    +0.000 C 
ENDBRANCH   5   7
BRANCH   4  13
ATOM     13  N   UNL     1       2.656   6.998  18.487  0.00  0.00    +0.000 N 
ATOM     14  C   UNL     1       2.235   8.280  18.165  0.00  0.00    +0.000 C 
ATOM     15  O   UNL     1       2.513   8.884  17.134  0.00  0.00    +0.000 OA
ATOM     16  H   UNL     1       2.172   6.543  19.246  0.00  0.00    +0.000 HD
BRANCH  14  17
ATOM     17  C   UNL     1       1.382   8.906  19.155  0.00  0.00    +0.000 A 
ATOM     18  C   UNL     1       0.260   9.699  18.979  0.00  0.00    +0.000 A 
ATOM     19  C   UNL     1      -0.212  10.035  20.269  0.00  0.00    +0.000 A 
ATOM     20  C   UNL     1       0.656   9.439  21.148  0.00  0.00    +0.000 A 
ATOM     21  O   UNL     1       1.636   8.757  20.493  0.00  0.00    +0.000 OA
BRANCH  20  22
ATOM     22  C   UNL     1       0.681   9.405  22.568  0.00  0.00    +0.000 C 
ATOM     23  N   UNL     1       0.688   9.363  23.723  0.00  0.00    +0.000 NA
ENDBRANCH  20  22
ENDBRANCH  14  17
ENDBRANCH   4  13
BRANCH   1  24
ATOM     24  C   UNL     1       6.132   3.843  15.186  0.00  0.00    +0.000 C 
BRANCH  24  25
ATOM     25  C   UNL     1       6.616   4.657  13.983  0.00  0.00    +0.000 C 
BRANCH  25  26
ATOM     26  C   UNL     1       6.746   3.805  12.712  0.00  0.00    +0.000 C 
BRANCH  26  27
ATOM     27  N   UNL     1       5.533   3.038  12.360  0.00  0.00    +0.000 NA
ATOM     28  C   UNL     1       5.919   1.837  11.611  0.00  0.00    +0.000 C 
BRANCH  27  30
ATOM     29  C   UNL     1       3.515   3.066  10.860  0.00  0.00    +0.000 C 
ATOM     30  C   UNL     1       4.572   3.866  11.611  0.00  0.00    +0.000 C 
ENDBRANCH  27  30
ENDBRANCH  26  27
ENDBRANCH  25  26
ENDBRANCH  24  25
ENDBRANCH   1  24
TORSDOF 9
ENDMDL
MODEL 4
REMARK VINA RESULT:      -8.0      0.782      1.427
REMARK  Name = 
REMARK  11 active torsions:
REMARK  status: ('A' for Active; 'I' for Inactive)
REMARK    1  A    between atoms: C_1  and  C_2
REMARK    2  A    between atoms: C_2  and  N_3
REMARK    3  A    between atoms: N_3  and  C_4
REMARK    4  A    between atoms: N_3  and  C_5
REMARK    5  A    between atoms: C_5  and  C_6
REMARK    6  A    between atoms: C_6  and  C_7
REMARK    7  A    between atoms: C_7  and  C_8
REMARK    8  A    between atoms: C_11  and  N_12
REMARK    9  A    between atoms: C_13  and  C_15
REMARK   10  A    between atoms: C_18  and  C_19
REMARK   11  A    between atoms: C_22  and  N_23
REMARK                            x       y       z     vdW  Elec       q    Type
REMARK                         _______ _______ _______ _____ _____    ______ ____
ROOT
ATOM      1  C   UNL     1       5.504   5.446  16.570  0.00  0.00    +0.000 A 
ATOM      2  C   UNL     1       5.510   6.833  16.580  0.00  0.00    +0.000 A 
ATOM      3  C   UNL     1       4.564   7.523  17.321  0.00  0.00    +0.000 A 
ATOM      4  C   UNL     1       3.564   6.857  18.045  0.00  0.00    +0.000 A 
ATOM      5  C   UNL     1       3.569   5.431  18.117  0.00  0.00    +0.000 A 
ATOM      6  C   UNL     1       4.552   4.764  17.352  0.00  0.00    +0.000 A 
ENDROOT
BRANCH   5   7
ATOM      7  N   UNL     1       2.618   4.705  18.845  0.00  0.00    +0.000 N 
ATOM      8  C   UNL     1       2.322   5.023  20.251  0.00  0.00    +0.000 C 
ATOM      9  C   UNL     1       2.055   3.706  20.987  0.00  0.00    +0.000 C 
ATOM     10  C   UNL     1       1.055   2.791  20.270  0.00  0.00    +0.000 C 
ATOM     11  C   UNL     1       1.259   2.734  18.752  0.00  0.00    +0.000 C 
ATOM     12  C   UNL     1       1.457   4.130  18.159  0.00  0.00    +0.000 C 
ENDBRANCH   5   7
BRANCH   4  13
ATOM     13  N   UNL     1       2.530   7.610  18.661  0.00  0.00    +0.000 N 
ATOM     14  C   UNL     1       1.929   8.762  18.175  0.00  0.00    +0.000 C 
ATOM     15  O   UNL     1       2.123   9.254  17.068  0.00  0.00    +0.000 OA
ATOM     16  H   UNL     1       2.112   7.197  19.481  0.00  0.00    +0.000 HD
BRANCH  14  17
ATOM     17  C   UNL     1       0.988   9.387  19.083  0.00  0.00    +0.000 A 
ATOM     18  C   UNL     1      -0.133  10.152  18.804  0.00  0.00    +0.000 A 
ATOM     19  C   UNL     1      -0.711  10.500  20.047  0.00  0.00    +0.000 A 
ATOM     20  C   UNL     1       0.098   9.940  21.001  0.00  0.00    +0.000 A 
ATOM     21  O   UNL     1       1.140   9.268  20.439  0.00  0.00    +0.000 OA
BRANCH  20  22
ATOM     22  C   UNL     1       0.012   9.932  22.420  0.00  0.00    +0.000 C 
ATOM     23  N   UNL     1      -0.068   9.908  23.573  0.00  0.00    +0.000 NA
ENDBRANCH  20  22
ENDBRANCH  14  17
ENDBRANCH   4  13
BRANCH   1  24
ATOM     24  C   UNL     1       6.531   4.706  15.748  0.00  0.00    +0.000 C 
BRANCH  24  25
ATOM     25  C   UNL     1       5.928   3.507  15.013  0.00  0.00    +0.000 C 
BRANCH  25  26
ATOM     26  C   UNL     1       5.474   3.859  13.588  0.00  0.00    +0.000 C 
BRANCH  26  27
ATOM     27  N   UNL     1       6.266   3.219  12.517  0.00  0.00    +0.000 NA
ATOM     28  C   UNL     1       7.150   4.218  11.905  0.00  0.00    +0.000 C 
BRANCH  27  30
ATOM     29  C   UNL     1       4.062   3.281  11.307  0.00  0.00    +0.000 C 
ATOM     30  C   UNL     1       5.396   2.573  11.519  0.00  0.00    +0.000 C 
ENDBRANCH  27  30
ENDBRANCH  26  27
ENDBRANCH  25  26
ENDBRANCH  24  25
ENDBRANCH   1  24
TORSDOF 9
ENDMDL
MODEL 5
REMARK VINA RESULT:      -8.0      1.429      2.025
REMARK  Name = 
REMARK  11 active torsions:
REMARK  status: ('A' for Active; 'I' for Inactive)
REMARK    1  A    between atoms: C_1  and  C_2
REMARK    2  A    between atoms: C_2  and  N_3
REMARK    3  A    between atoms: N_3  and  C_4
REMARK    4  A    between atoms: N_3  and  C_5
REMARK    5  A    between atoms: C_5  and  C_6
REMARK    6  A    between atoms: C_6  and  C_7
REMARK    7  A    between atoms: C_7  and  C_8
REMARK    8  A    between atoms: C_11  and  N_12
REMARK    9  A    between atoms: C_13  and  C_15
REMARK   10  A    between atoms: C_18  and  C_19
REMARK   11  A    between atoms: C_22  and  N_23
REMARK                            x       y       z     vdW  Elec       q    Type
REMARK                         _______ _______ _______ _____ _____    ______ ____
ROOT
ATOM      1  C   UNL     1       5.255   4.848  16.839  0.00  0.00    +0.000 A 
ATOM      2  C   UNL     1       5.253   6.223  16.656  0.00  0.00    +0.000 A 
ATOM      3  C   UNL     1       4.368   7.015  17.371  0.00  0.00    +0.000 A 
ATOM      4  C   UNL     1       3.435   6.461  18.261  0.00  0.00    +0.000 A 
ATOM      5  C   UNL     1       3.454   5.059  18.529  0.00  0.00    +0.000 A 
ATOM      6  C   UNL     1       4.375   4.287  17.785  0.00  0.00    +0.000 A 
ENDROOT
BRANCH   5   7
ATOM      7  N   UNL     1       2.572   4.447  19.427  0.00  0.00    +0.000 N 
ATOM      8  C   UNL     1       2.459   4.901  20.822  0.00  0.00    +0.000 C 
ATOM      9  C   UNL     1       2.233   3.668  21.703  0.00  0.00    +0.000 C 
ATOM     10  C   UNL     1       1.121   2.743  21.195  0.00  0.00    +0.000 C 
ATOM     11  C   UNL     1       1.138   2.543  19.676  0.00  0.00    +0.000 C 
ATOM     12  C   UNL     1       1.316   3.870  18.936  0.00  0.00    +0.000 C 
ENDBRANCH   5   7
BRANCH   4  13
ATOM     13  N   UNL     1       2.452   7.298  18.850  0.00  0.00    +0.000 N 
ATOM     14  C   UNL     1       1.996   8.519  18.373  0.00  0.00    +0.000 C 
ATOM     15  O   UNL     1       2.296   9.020  17.294  0.00  0.00    +0.000 OA
ATOM     16  H   UNL     1       1.952   6.908  19.634  0.00  0.00    +0.000 HD
BRANCH  14  17
ATOM     17  C   UNL     1       1.076   9.211  19.254  0.00  0.00    +0.000 A 
ATOM     18  C   UNL     1       0.913   9.100  20.625  0.00  0.00    +0.000 A 
ATOM     19  C   UNL     1      -0.103  10.012  20.992  0.00  0.00    +0.000 A 
ATOM     20  C   UNL     1      -0.504  10.610  19.825  0.00  0.00    +0.000 A 
ATOM     21  O   UNL     1       0.192  10.132  18.757  0.00  0.00    +0.000 OA
BRANCH  20  22
ATOM     22  C   UNL     1      -1.471  11.619  19.570  0.00  0.00    +0.000 C 
ATOM     23  N   UNL     1      -2.273  12.427  19.367  0.00  0.00    +0.000 NA
ENDBRANCH  20  22
ENDBRANCH  14  17
ENDBRANCH   4  13
BRANCH   1  24
ATOM     24  C   UNL     1       6.214   3.995  16.046  0.00  0.00    +0.000 C 
BRANCH  24  25
ATOM     25  C   UNL     1       6.551   4.615  14.688  0.00  0.00    +0.000 C 
BRANCH  25  26
ATOM     26  C   UNL     1       5.664   4.071  13.558  0.00  0.00    +0.000 C 
BRANCH  26  27
ATOM     27  N   UNL     1       6.388   3.294  12.530  0.00  0.00    +0.000 NA
ATOM     28  C   UNL     1       7.203   4.205  11.719  0.00  0.00    +0.000 C 
BRANCH  27  30
ATOM     29  C   UNL     1       4.197   3.256  11.295  0.00  0.00    +0.000 C 
ATOM     30  C   UNL     1       5.460   2.504  11.702  0.00  0.00    +0.000 C 
ENDBRANCH  27  30
ENDBRANCH  26  27
ENDBRANCH  25  26
ENDBRANCH  24  25
ENDBRANCH   1  24
TORSDOF 9
ENDMDL
MODEL 6
REMARK VINA RESULT:      -7.8      1.239      1.867
REMARK  Name = 
REMARK  11 active torsions:
REMARK  status: ('A' for Active; 'I' for Inactive)
REMARK    1  A    between atoms: C_1  and  C_2
REMARK    2  A    between atoms: C_2  and  N_3
REMARK    3  A    between atoms: N_3  and  C_4
REMARK    4  A    between atoms: N_3  and  C_5
REMARK    5  A    between atoms: C_5  and  C_6
REMARK    6  A    between atoms: C_6  and  C_7
REMARK    7  A    between atoms: C_7  and  C_8
REMARK    8  A    between atoms: C_11  and  N_12
REMARK    9  A    between atoms: C_13  and  C_15
REMARK   10  A    between atoms: C_18  and  C_19
REMARK   11  A    between atoms: C_22  and  N_23
REMARK                            x       y       z     vdW  Elec       q    Type
REMARK                         _______ _______ _______ _____ _____    ______ ____
ROOT
ATOM      1  C   UNL     1       5.186   4.596  16.001  0.00  0.00    +0.000 A 
ATOM      2  C   UNL     1       5.286   5.979  15.969  0.00  0.00    +0.000 A 
ATOM      3  C   UNL     1       4.549   6.747  16.857  0.00  0.00    +0.000 A 
ATOM      4  C   UNL     1       3.666   6.165  17.780  0.00  0.00    +0.000 A 
ATOM      5  C   UNL     1       3.591   4.743  17.891  0.00  0.00    +0.000 A 
ATOM      6  C   UNL     1       4.361   3.996  16.972  0.00  0.00    +0.000 A 
ENDROOT
BRANCH   5   7
ATOM      7  N   UNL     1       2.753   4.099  18.809  0.00  0.00    +0.000 N 
ATOM      8  C   UNL     1       2.936   4.261  20.260  0.00  0.00    +0.000 C 
ATOM      9  C   UNL     1       2.618   2.921  20.930  0.00  0.00    +0.000 C 
ATOM     10  C   UNL     1       1.290   2.304  20.475  0.00  0.00    +0.000 C 
ATOM     11  C   UNL     1       1.044   2.427  18.968  0.00  0.00    +0.000 C 
ATOM     12  C   UNL     1       1.353   3.837  18.461  0.00  0.00    +0.000 C 
ENDBRANCH   5   7
BRANCH   4  13
ATOM     13  N   UNL     1       2.824   6.999  18.560  0.00  0.00    +0.000 N 
ATOM     14  C   UNL     1       2.323   8.244  18.211  0.00  0.00    +0.000 C 
ATOM     15  O   UNL     1       2.440   8.778  17.112  0.00  0.00    +0.000 OA
ATOM     16  H   UNL     1       2.461   6.590  19.408  0.00  0.00    +0.000 HD
BRANCH  14  17
ATOM     17  C   UNL     1       1.590   8.923  19.262  0.00  0.00    +0.000 A 
ATOM     18  C   UNL     1       1.453   8.589  20.599  0.00  0.00    +0.000 A 
ATOM     19  C   UNL     1       0.654   9.593  21.192  0.00  0.00    +0.000 A 
ATOM     20  C   UNL     1       0.344  10.466  20.181  0.00  0.00    +0.000 A 
ATOM     21  O   UNL     1       0.895  10.073  19.000  0.00  0.00    +0.000 OA
BRANCH  20  22
ATOM     22  C   UNL     1      -0.408  11.671  20.177  0.00  0.00    +0.000 C 
ATOM     23  N   UNL     1      -1.027  12.648  20.155  0.00  0.00    +0.000 NA
ENDBRANCH  20  22
ENDBRANCH  14  17
ENDBRANCH   4  13
BRANCH   1  24
ATOM     24  C   UNL     1       5.983   3.772  15.020  0.00  0.00    +0.000 C 
BRANCH  24  25
ATOM     25  C   UNL     1       6.720   4.642  13.999  0.00  0.00    +0.000 C 
BRANCH  25  26
ATOM     26  C   UNL     1       6.668   4.054  12.581  0.00  0.00    +0.000 C 
BRANCH  26  27
ATOM     27  N   UNL     1       5.507   3.178  12.322  0.00  0.00    +0.000 NA
ATOM     28  C   UNL     1       5.955   1.980  11.602  0.00  0.00    +0.000 C 
BRANCH  27  30
ATOM     29  C   UNL     1       3.546   2.986  10.759  0.00  0.00    +0.000 C 
ATOM     30  C   UNL     1       4.447   3.893  11.590  0.00  0.00    +0.000 C 
ENDBRANCH  27  30
ENDBRANCH  26  27
ENDBRANCH  25  26
ENDBRANCH  24  25
ENDBRANCH   1  24
TORSDOF 9
ENDMDL
MODEL 7
REMARK VINA RESULT:      -7.8      1.116      1.563
REMARK  Name = 
REMARK  11 active torsions:
REMARK  status: ('A' for Active; 'I' for Inactive)
REMARK    1  A    between atoms: C_1  and  C_2
REMARK    2  A    between atoms: C_2  and  N_3
REMARK    3  A    between atoms: N_3  and  C_4
REMARK    4  A    between atoms: N_3  and  C_5
REMARK    5  A    between atoms: C_5  and  C_6
REMARK    6  A    between atoms: C_6  and  C_7
REMARK    7  A    between atoms: C_7  and  C_8
REMARK    8  A    between atoms: C_11  and  N_12
REMARK    9  A    between atoms: C_13  and  C_15
REMARK   10  A    between atoms: C_18  and  C_19
REMARK   11  A    between atoms: C_22  and  N_23
REMARK                            x       y       z     vdW  Elec       q    Type
REMARK                         _______ _______ _______ _____ _____    ______ ____
ROOT
ATOM      1  C   UNL     1       5.597   5.259  15.913  0.00  0.00    +0.000 A 
ATOM      2  C   UNL     1       5.589   6.630  16.127  0.00  0.00    +0.000 A 
ATOM      3  C   UNL     1       4.756   7.174  17.092  0.00  0.00    +0.000 A 
ATOM      4  C   UNL     1       3.882   6.378  17.848  0.00  0.00    +0.000 A 
ATOM      5  C   UNL     1       3.914   4.957  17.707  0.00  0.00    +0.000 A 
ATOM      6  C   UNL     1       4.780   4.441  16.717  0.00  0.00    +0.000 A 
ENDROOT
BRANCH   5   7
ATOM      7  N   UNL     1       3.091   4.103  18.450  0.00  0.00    +0.000 N 
ATOM      8  C   UNL     1       2.322   3.026  17.807  0.00  0.00    +0.000 C 
ATOM      9  C   UNL     1       0.976   2.909  18.530  0.00  0.00    +0.000 C 
ATOM     10  C   UNL     1       1.101   2.839  20.057  0.00  0.00    +0.000 C 
ATOM     11  C   UNL     1       2.140   3.809  20.630  0.00  0.00    +0.000 C 
ATOM     12  C   UNL     1       3.446   3.770  19.834  0.00  0.00    +0.000 C 
ENDBRANCH   5   7
BRANCH   4  13
ATOM     13  N   UNL     1       2.943   7.000  18.712  0.00  0.00    +0.000 N 
ATOM     14  C   UNL     1       2.230   8.165  18.474  0.00  0.00    +0.000 C 
ATOM     15  O   UNL     1       2.215   8.789  17.418  0.00  0.00    +0.000 OA
ATOM     16  H   UNL     1       2.686   6.475  19.534  0.00  0.00    +0.000 HD
BRANCH  14  17
ATOM     17  C   UNL     1       1.436   8.632  19.594  0.00  0.00    +0.000 A 
ATOM     18  C   UNL     1       1.297   8.095  20.863  0.00  0.00    +0.000 A 
ATOM     19  C   UNL     1       0.423   8.949  21.575  0.00  0.00    +0.000 A 
ATOM     20  C   UNL     1       0.074   9.940  20.696  0.00  0.00    +0.000 A 
ATOM     21  O   UNL     1       0.671   9.763  19.485  0.00  0.00    +0.000 OA
BRANCH  20  22
ATOM     22  C   UNL     1      -0.755  11.084  20.848  0.00  0.00    +0.000 C 
ATOM     23  N   UNL     1      -1.414  12.026  20.972  0.00  0.00    +0.000 NA
ENDBRANCH  20  22
ENDBRANCH  14  17
ENDBRANCH   4  13
BRANCH   1  24
ATOM     24  C   UNL     1       6.498   4.680  14.850  0.00  0.00    +0.000 C 
BRANCH  24  25
ATOM     25  C   UNL     1       5.827   3.538  14.083  0.00  0.00    +0.000 C 
BRANCH  25  26
ATOM     26  C   UNL     1       6.129   3.586  12.578  0.00  0.00    +0.000 C 
BRANCH  26  27
ATOM     27  N   UNL     1       6.000   2.286  11.885  0.00  0.00    +0.000 NA
ATOM     28  C   UNL     1       7.246   1.995  11.167  0.00  0.00    +0.000 C 
BRANCH  27  30
ATOM     29  C   UNL     1       3.875   3.438  11.192  0.00  0.00    +0.000 C 
ATOM     30  C   UNL     1       4.833   2.270  10.987  0.00  0.00    +0.000 C 
ENDBRANCH  27  30
ENDBRANCH  26  27
ENDBRANCH  25  26
ENDBRANCH  24  25
ENDBRANCH   1  24
TORSDOF 9
ENDMDL
MODEL 8
REMARK VINA RESULT:      -7.5      0.668      1.020
REMARK  Name = 
REMARK  11 active torsions:
REMARK  status: ('A' for Active; 'I' for Inactive)
REMARK    1  A    between atoms: C_1  and  C_2
REMARK    2  A    between atoms: C_2  and  N_3
REMARK    3  A    between atoms: N_3  and  C_4
REMARK    4  A    between atoms: N_3  and  C_5
REMARK    5  A    between atoms: C_5  and  C_6
REMARK    6  A    between atoms: C_6  and  C_7
REMARK    7  A    between atoms: C_7  and  C_8
REMARK    8  A    between atoms: C_11  and  N_12
REMARK    9  A    between atoms: C_13  and  C_15
REMARK   10  A    between atoms: C_18  and  C_19
REMARK   11  A    between atoms: C_22  and  N_23
REMARK                            x       y       z     vdW  Elec       q    Type
REMARK                         _______ _______ _______ _____ _____    ______ ____
ROOT
ATOM      1  C   UNL     1       5.701   5.088  16.485  0.00  0.00    +0.000 A 
ATOM      2  C   UNL     1       5.711   6.475  16.502  0.00  0.00    +0.000 A 
ATOM      3  C   UNL     1       4.785   7.164  17.271  0.00  0.00    +0.000 A 
ATOM      4  C   UNL     1       3.801   6.496  18.015  0.00  0.00    +0.000 A 
ATOM      5  C   UNL     1       3.804   5.070  18.079  0.00  0.00    +0.000 A 
ATOM      6  C   UNL     1       4.767   4.405  17.287  0.00  0.00    +0.000 A 
ENDROOT
BRANCH   5   7
ATOM      7  N   UNL     1       2.870   4.343  18.826  0.00  0.00    +0.000 N 
ATOM      8  C   UNL     1       2.347   3.051  18.353  0.00  0.00    +0.000 C 
ATOM      9  C   UNL     1       0.872   2.962  18.757  0.00  0.00    +0.000 C 
ATOM     10  C   UNL     1       0.615   3.303  20.230  0.00  0.00    +0.000 C 
ATOM     11  C   UNL     1       1.422   4.507  20.728  0.00  0.00    +0.000 C 
ATOM     12  C   UNL     1       2.885   4.422  20.290  0.00  0.00    +0.000 C 
ENDBRANCH   5   7
BRANCH   4  13
ATOM     13  N   UNL     1       2.785   7.249  18.661  0.00  0.00    +0.000 N 
ATOM     14  C   UNL     1       2.178   8.407  18.197  0.00  0.00    +0.000 C 
ATOM     15  O   UNL     1       2.349   8.907  17.090  0.00  0.00    +0.000 OA
ATOM     16  H   UNL     1       2.385   6.831  19.487  0.00  0.00    +0.000 HD
BRANCH  14  17
ATOM     17  C   UNL     1       1.261   9.029  19.131  0.00  0.00    +0.000 A 
ATOM     18  C   UNL     1       0.133   9.795  18.884  0.00  0.00    +0.000 A 
ATOM     19  C   UNL     1      -0.413  10.138  20.143  0.00  0.00    +0.000 A 
ATOM     20  C   UNL     1       0.420   9.574  21.074  0.00  0.00    +0.000 A 
ATOM     21  O   UNL     1       1.447   8.904  20.483  0.00  0.00    +0.000 OA
BRANCH  20  22
ATOM     22  C   UNL     1       0.370   9.561  22.494  0.00  0.00    +0.000 C 
ATOM     23  N   UNL     1       0.311   9.543  23.649  0.00  0.00    +0.000 NA
ENDBRANCH  20  22
ENDBRANCH  14  17
ENDBRANCH   4  13
BRANCH   1  24
ATOM     24  C   UNL     1       6.705   4.351  15.634  0.00  0.00    +0.000 C 
BRANCH  24  25
ATOM     25  C   UNL     1       6.033   3.418  14.624  0.00  0.00    +0.000 C 
BRANCH  25  26
ATOM     26  C   UNL     1       5.369   4.183  13.470  0.00  0.00    +0.000 C 
BRANCH  26  27
ATOM     27  N   UNL     1       5.857   3.808  12.125  0.00  0.00    +0.000 NA
ATOM     28  C   UNL     1       5.459   2.426  11.834  0.00  0.00    +0.000 C 
BRANCH  27  30
ATOM     29  C   UNL     1       7.777   5.427  12.256  0.00  0.00    +0.000 C 
ATOM     30  C   UNL     1       7.313   3.995  12.011  0.00  0.00    +0.000 C 
ENDBRANCH  27  30
ENDBRANCH  26  27
ENDBRANCH  25  26
ENDBRANCH  24  25
ENDBRANCH   1  24
TORSDOF 9
ENDMDL
MODEL 9
REMARK VINA RESULT:      -7.5      2.155      8.741
REMARK  Name = 
REMARK  11 active torsions:
REMARK  status: ('A' for Active; 'I' for Inactive)
REMARK    1  A    between atoms: C_1  and  C_2
REMARK    2  A    between atoms: C_2  and  N_3
REMARK    3  A    between atoms: N_3  and  C_4
REMARK    4  A    between atoms: N_3  and  C_5
REMARK    5  A    between atoms: C_5  and  C_6
REMARK    6  A    between atoms: C_6  and  C_7
REMARK    7  A    between atoms: C_7  and  C_8
REMARK    8  A    between atoms: C_11  and  N_12
REMARK    9  A    between atoms: C_13  and  C_15
REMARK   10  A    between atoms: C_18  and  C_19
REMARK   11  A    between atoms: C_22  and  N_23
REMARK                            x       y       z     vdW  Elec       q    Type
REMARK                         _______ _______ _______ _____ _____    ______ ____
ROOT
ATOM      1  C   UNL     1       1.547   7.410  20.376  0.00  0.00    +0.000 A 
ATOM      2  C   UNL     1       2.029   8.230  19.366  0.00  0.00    +0.000 A 
ATOM      3  C   UNL     1       2.732   7.681  18.305  0.00  0.00    +0.000 A 
ATOM      4  C   UNL     1       3.008   6.307  18.234  0.00  0.00    +0.000 A 
ATOM      5  C   UNL     1       2.468   5.422  19.217  0.00  0.00    +0.000 A 
ATOM      6  C   UNL     1       1.752   6.020  20.278  0.00  0.00    +0.000 A 
ENDROOT
BRANCH   5   7
ATOM      7  N   UNL     1       2.680   4.039  19.189  0.00  0.00    +0.000 N 
ATOM      8  C   UNL     1       3.294   3.334  20.325  0.00  0.00    +0.000 C 
ATOM      9  C   UNL     1       4.185   2.220  19.764  0.00  0.00    +0.000 C 
ATOM     10  C   UNL     1       3.490   1.345  18.714  0.00  0.00    +0.000 C 
ATOM     11  C   UNL     1       2.633   2.142  17.725  0.00  0.00    +0.000 C 
ATOM     12  C   UNL     1       1.760   3.175  18.442  0.00  0.00    +0.000 C 
ENDBRANCH   5   7
BRANCH   4  13
ATOM     13  N   UNL     1       3.861   5.819  17.210  0.00  0.00    +0.000 N 
ATOM     14  C   UNL     1       5.181   5.414  17.342  0.00  0.00    +0.000 C 
ATOM     15  O   UNL     1       5.792   5.307  18.401  0.00  0.00    +0.000 OA
ATOM     16  H   UNL     1       3.423   5.642  16.319  0.00  0.00    +0.000 HD
BRANCH  14  17
ATOM     17  C   UNL     1       5.843   5.082  16.096  0.00  0.00    +0.000 A 
ATOM     18  C   UNL     1       7.159   5.285  15.713  0.00  0.00    +0.000 A 
ATOM     19  C   UNL     1       7.291   4.759  14.407  0.00  0.00    +0.000 A 
ATOM     20  C   UNL     1       6.051   4.283  14.071  0.00  0.00    +0.000 A 
ATOM     21  O   UNL     1       5.155   4.476  15.078  0.00  0.00    +0.000 OA
BRANCH  20  22
ATOM     22  C   UNL     1       5.580   3.629  12.901  0.00  0.00    +0.000 C 
ATOM     23  N   UNL     1       5.209   3.082  11.952  0.00  0.00    +0.000 NA
ENDBRANCH  20  22
ENDBRANCH  14  17
ENDBRANCH   4  13
BRANCH   1  24
ATOM     24  C   UNL     1       0.795   8.021  21.532  0.00  0.00    +0.000 C 
BRANCH  24  25
ATOM     25  C   UNL     1       0.989   9.537  21.612  0.00  0.00    +0.000 C 
BRANCH  25  26
ATOM     26  C   UNL     1      -0.323  10.283  21.894  0.00  0.00    +0.000 C 
BRANCH  26  27
ATOM     27  N   UNL     1      -0.710  11.258  20.853  0.00  0.00    +0.000 NA
ATOM     28  C   UNL     1       0.479  11.649  20.088  0.00  0.00    +0.000 C 
BRANCH  27  30
ATOM     29  C   UNL     1      -0.474  13.358  22.216  0.00  0.00    +0.000 C 
ATOM     30  C   UNL     1      -1.394  12.425  21.437  0.00  0.00    +0.000 C 
ENDBRANCH  27  30
ENDBRANCH  26  27
ENDBRANCH  25  26
ENDBRANCH  24  25
ENDBRANCH   1  24
TORSDOF 9
ENDMDL
