MODEL 1
REMARK VINA RESULT:      -7.1      0.000      0.000
REMARK  Name = 
REMARK  3 active torsions:
REMARK  status: ('A' for Active; 'I' for Inactive)
REMARK    1  A    between atoms: C_2  and  C_3
REMARK    2  A    between atoms: C_21  and  C_22
REMARK    3  A    between atoms: C_26  and  N_27
REMARK                            x       y       z     vdW  Elec       q    Type
REMARK                         _______ _______ _______ _____ _____    ______ ____
ROOT
ATOM      1  O   UNL     1       1.144  13.088  19.818  0.00  0.00    +0.000 OA
ATOM      2  C   UNL     1       0.224  13.896  19.958  0.00  0.00    +0.000 C 
ATOM      3  N   UNL     1      -1.099  13.487  20.177  0.00  0.00    +0.000 N 
ATOM      4  C   UNL     1      -2.263  14.404  20.399  0.00  0.00    +0.000 C 
ATOM      5  C   UNL     1      -3.591  13.764  20.981  0.00  0.00    +0.000 C 
ATOM      6  C   UNL     1      -3.905  12.488  20.244  0.00  0.00    +0.000 A 
ATOM      7  C   UNL     1      -2.856  11.898  19.541  0.00  0.00    +0.000 A 
ATOM      8  N   UNL     1      -3.362  12.053  18.239  0.00  0.00    +0.000 N 
ATOM      9  C   UNL     1      -4.767  12.190  18.295  0.00  0.00    +0.000 A 
ATOM     10  C   UNL     1      -5.769  12.476  17.346  0.00  0.00    +0.000 A 
ATOM     11  C   UNL     1      -7.117  12.427  17.772  0.00  0.00    +0.000 A 
ATOM     12  C   UNL     1      -7.452  12.099  19.088  0.00  0.00    +0.000 A 
ATOM     13  C   UNL     1      -6.448  11.983  20.042  0.00  0.00    +0.000 A 
ATOM     14  C   UNL     1      -5.103  12.082  19.641  0.00  0.00    +0.000 A 
ATOM     15  C   UNL     1      -1.448  12.046  20.144  0.00  0.00    +0.000 C 
ATOM     16  H   UNL     1      -2.814  12.223  17.405  0.00  0.00    +0.000 HD
ENDROOT
BRANCH   2  17
ATOM     17  C   UNL     1       0.640  15.338  19.874  0.00  0.00    +0.000 A 
ATOM     18  C   UNL     1       0.450  16.131  18.740  0.00  0.00    +0.000 A 
ATOM     19  C   UNL     1       1.032  17.404  18.647  0.00  0.00    +0.000 A 
ATOM     20  C   UNL     1       1.836  17.891  19.673  0.00  0.00    +0.000 A 
ATOM     21  C   UNL     1       2.030  17.121  20.816  0.00  0.00    +0.000 A 
ATOM     22  C   UNL     1       1.433  15.857  20.916  0.00  0.00    +0.000 A 
ENDBRANCH   2  17
BRANCH  15  23
ATOM     23  C   UNL     1      -0.482  10.921  20.592  0.00  0.00    +0.000 A 
ATOM     24  C   UNL     1      -0.447  10.635  21.995  0.00  0.00    +0.000 A 
ATOM     25  C   UNL     1       0.283   9.594  22.563  0.00  0.00    +0.000 A 
ATOM     26  C   UNL     1       1.032   8.765  21.740  0.00  0.00    +0.000 A 
ATOM     27  C   UNL     1       1.053   9.018  20.371  0.00  0.00    +0.000 A 
ATOM     28  C   UNL     1       0.314  10.092  19.772  0.00  0.00    +0.000 A 
BRANCH  27  29
ATOM     29  N   UNL     1       1.853   8.111  19.520  0.00  0.00    +0.000 N 
ATOM     30  O   UNL     1       2.131   8.472  18.382  0.00  0.00    +0.000 OA
ATOM     31  O   UNL     1       2.215   7.025  19.999  0.00  0.00    +0.000 OA
ENDBRANCH  27  29
ENDBRANCH  15  23
TORSDOF 3
ENDMDL
MODEL 2
REMARK VINA RESULT:      -7.1      2.789      7.218
REMARK  Name = 
REMARK  3 active torsions:
REMARK  status: ('A' for Active; 'I' for Inactive)
REMARK    1  A    between atoms: C_2  and  C_3
REMARK    2  A    between atoms: C_21  and  C_22
REMARK    3  A    between atoms: C_26  and  N_27
REMARK                            x       y       z     vdW  Elec       q    Type
REMARK                         _______ _______ _______ _____ _____    ______ ____
ROOT
ATOM      1  O   UNL     1      -0.632  13.080  18.040  0.00  0.00    +0.000 OA
ATOM      2  C   UNL     1      -1.152  12.035  18.435  0.00  0.00    +0.000 C 
ATOM      3  N   UNL     1      -0.406  11.013  19.038  0.00  0.00    +0.000 N 
ATOM      4  C   UNL     1      -0.968   9.735  19.582  0.00  0.00    +0.000 C 
ATOM      5  C   UNL     1      -0.036   8.879  20.536  0.00  0.00    +0.000 C 
ATOM      6  C   UNL     1       1.343   8.776  19.939  0.00  0.00    +0.000 A 
ATOM      7  C   UNL     1       1.675   9.716  18.966  0.00  0.00    +0.000 A 
ATOM      8  N   UNL     1       1.802   8.847  17.868  0.00  0.00    +0.000 N 
ATOM      9  C   UNL     1       2.068   7.540  18.333  0.00  0.00    +0.000 A 
ATOM     10  C   UNL     1       2.178   6.277  17.718  0.00  0.00    +0.000 A 
ATOM     11  C   UNL     1       2.567   5.181  18.522  0.00  0.00    +0.000 A 
ATOM     12  C   UNL     1       2.844   5.339  19.882  0.00  0.00    +0.000 A 
ATOM     13  C   UNL     1       2.572   6.554  20.500  0.00  0.00    +0.000 A 
ATOM     14  C   UNL     1       2.133   7.639  19.720  0.00  0.00    +0.000 A 
ATOM     15  C   UNL     1       1.071  11.122  19.126  0.00  0.00    +0.000 C 
ATOM     16  H   UNL     1       1.567   9.065  16.908  0.00  0.00    +0.000 HD
ENDROOT
BRANCH   2  17
ATOM     17  C   UNL     1      -2.638  11.955  18.215  0.00  0.00    +0.000 A 
ATOM     18  C   UNL     1      -3.579  12.207  19.215  0.00  0.00    +0.000 A 
ATOM     19  C   UNL     1      -4.939  11.928  19.010  0.00  0.00    +0.000 A 
ATOM     20  C   UNL     1      -5.372  11.364  17.814  0.00  0.00    +0.000 A 
ATOM     21  C   UNL     1      -4.451  11.114  16.800  0.00  0.00    +0.000 A 
ATOM     22  C   UNL     1      -3.096  11.412  17.000  0.00  0.00    +0.000 A 
ENDBRANCH   2  17
BRANCH  15  23
ATOM     23  C   UNL     1       1.821  12.468  19.283  0.00  0.00    +0.000 A 
ATOM     24  C   UNL     1       1.805  13.056  20.590  0.00  0.00    +0.000 A 
ATOM     25  C   UNL     1       2.507  14.206  20.938  0.00  0.00    +0.000 A 
ATOM     26  C   UNL     1       3.282  14.843  19.980  0.00  0.00    +0.000 A 
ATOM     27  C   UNL     1       3.310  14.326  18.687  0.00  0.00    +0.000 A 
ATOM     28  C   UNL     1       2.584  13.148  18.309  0.00  0.00    +0.000 A 
BRANCH  27  29
ATOM     29  N   UNL     1       4.153  15.023  17.691  0.00  0.00    +0.000 N 
ATOM     30  O   UNL     1       5.354  14.776  17.669  0.00  0.00    +0.000 OA
ATOM     31  O   UNL     1       3.606  15.822  16.916  0.00  0.00    +0.000 OA
ENDBRANCH  27  29
ENDBRANCH  15  23
TORSDOF 3
ENDMDL
MODEL 3
REMARK VINA RESULT:      -7.0      7.085      9.763
REMARK  Name = 
REMARK  3 active torsions:
REMARK  status: ('A' for Active; 'I' for Inactive)
REMARK    1  A    between atoms: C_2  and  C_3
REMARK    2  A    between atoms: C_21  and  C_22
REMARK    3  A    between atoms: C_26  and  N_27
REMARK                            x       y       z     vdW  Elec       q    Type
REMARK                         _______ _______ _______ _____ _____    ______ ____
ROOT
ATOM      1  O   UNL     1       8.165  11.067  22.913  0.00  0.00    +0.000 OA
ATOM      2  C   UNL     1       8.388  12.009  22.150  0.00  0.00    +0.000 C 
ATOM      3  N   UNL     1       7.692  13.222  22.240  0.00  0.00    +0.000 N 
ATOM      4  C   UNL     1       7.933  14.425  21.381  0.00  0.00    +0.000 C 
ATOM      5  C   UNL     1       7.309  15.800  21.864  0.00  0.00    +0.000 C 
ATOM      6  C   UNL     1       5.881  15.587  22.292  0.00  0.00    +0.000 A 
ATOM      7  C   UNL     1       5.504  14.277  22.584  0.00  0.00    +0.000 A 
ATOM      8  N   UNL     1       4.577  14.088  21.545  0.00  0.00    +0.000 N 
ATOM      9  C   UNL     1       4.101  15.343  21.107  0.00  0.00    +0.000 A 
ATOM     10  C   UNL     1       3.268  15.769  20.053  0.00  0.00    +0.000 A 
ATOM     11  C   UNL     1       2.926  17.140  19.993  0.00  0.00    +0.000 A 
ATOM     12  C   UNL     1       3.389  18.047  20.949  0.00  0.00    +0.000 A 
ATOM     13  C   UNL     1       4.338  17.638  21.879  0.00  0.00    +0.000 A 
ATOM     14  C   UNL     1       4.726  16.287  21.915  0.00  0.00    +0.000 A 
ATOM     15  C   UNL     1       6.579  13.371  23.210  0.00  0.00    +0.000 C 
ATOM     16  H   UNL     1       4.402  13.218  21.057  0.00  0.00    +0.000 HD
ENDROOT
BRANCH   2  17
ATOM     17  C   UNL     1       9.458  11.744  21.126  0.00  0.00    +0.000 A 
ATOM     18  C   UNL     1      10.687  12.407  21.107  0.00  0.00    +0.000 A 
ATOM     19  C   UNL     1      11.565  12.264  20.021  0.00  0.00    +0.000 A 
ATOM     20  C   UNL     1      11.212  11.481  18.927  0.00  0.00    +0.000 A 
ATOM     21  C   UNL     1       9.996  10.804  18.930  0.00  0.00    +0.000 A 
ATOM     22  C   UNL     1       9.130  10.932  20.024  0.00  0.00    +0.000 A 
ENDBRANCH   2  17
BRANCH  15  23
ATOM     23  C   UNL     1       6.535  12.649  24.580  0.00  0.00    +0.000 A 
ATOM     24  C   UNL     1       7.492  13.079  25.555  0.00  0.00    +0.000 A 
ATOM     25  C   UNL     1       7.534  12.616  26.867  0.00  0.00    +0.000 A 
ATOM     26  C   UNL     1       6.599  11.679  27.284  0.00  0.00    +0.000 A 
ATOM     27  C   UNL     1       5.664  11.208  26.366  0.00  0.00    +0.000 A 
ATOM     28  C   UNL     1       5.615  11.668  25.008  0.00  0.00    +0.000 A 
BRANCH  27  29
ATOM     29  N   UNL     1       4.676  10.217  26.844  0.00  0.00    +0.000 N 
ATOM     30  O   UNL     1       4.818   9.747  27.968  0.00  0.00    +0.000 OA
ATOM     31  O   UNL     1       3.742   9.908  26.088  0.00  0.00    +0.000 OA
ENDBRANCH  27  29
ENDBRANCH  15  23
TORSDOF 3
ENDMDL
MODEL 4
REMARK VINA RESULT:      -7.0      2.090      5.687
REMARK  Name = 
REMARK  3 active torsions:
REMARK  status: ('A' for Active; 'I' for Inactive)
REMARK    1  A    between atoms: C_2  and  C_3
REMARK    2  A    between atoms: C_21  and  C_22
REMARK    3  A    between atoms: C_26  and  N_27
REMARK                            x       y       z     vdW  Elec       q    Type
REMARK                         _______ _______ _______ _____ _____    ______ ____
ROOT
ATOM      1  O   UNL     1       1.362  11.439  20.071  0.00  0.00    +0.000 OA
ATOM      2  C   UNL     1       0.622  10.624  19.517  0.00  0.00    +0.000 C 
ATOM      3  N   UNL     1      -0.568  11.008  18.883  0.00  0.00    +0.000 N 
ATOM      4  C   UNL     1      -1.497  10.088  18.153  0.00  0.00    +0.000 C 
ATOM      5  C   UNL     1      -2.582  10.751  17.208  0.00  0.00    +0.000 C 
ATOM      6  C   UNL     1      -3.242  11.901  17.923  0.00  0.00    +0.000 A 
ATOM      7  C   UNL     1      -2.563  12.428  19.020  0.00  0.00    +0.000 A 
ATOM      8  N   UNL     1      -3.481  12.077  20.024  0.00  0.00    +0.000 N 
ATOM      9  C   UNL     1      -4.759  11.897  19.450  0.00  0.00    +0.000 A 
ATOM     10  C   UNL     1      -6.004  11.446  19.934  0.00  0.00    +0.000 A 
ATOM     11  C   UNL     1      -7.113  11.502  19.059  0.00  0.00    +0.000 A 
ATOM     12  C   UNL     1      -6.988  11.994  17.757  0.00  0.00    +0.000 A 
ATOM     13  C   UNL     1      -5.726  12.278  17.250  0.00  0.00    +0.000 A 
ATOM     14  C   UNL     1      -4.607  12.175  18.095  0.00  0.00    +0.000 A 
ATOM     15  C   UNL     1      -1.026  12.417  18.953  0.00  0.00    +0.000 C 
ATOM     16  H   UNL     1      -3.250  11.816  20.975  0.00  0.00    +0.000 HD
ENDROOT
BRANCH   2  17
ATOM     17  C   UNL     1       1.103   9.200  19.580  0.00  0.00    +0.000 A 
ATOM     18  C   UNL     1       1.043   8.417  20.735  0.00  0.00    +0.000 A 
ATOM     19  C   UNL     1       1.681   7.168  20.791  0.00  0.00    +0.000 A 
ATOM     20  C   UNL     1       2.413   6.699  19.705  0.00  0.00    +0.000 A 
ATOM     21  C   UNL     1       2.477   7.460  18.540  0.00  0.00    +0.000 A 
ATOM     22  C   UNL     1       1.822   8.697  18.479  0.00  0.00    +0.000 A 
ENDBRANCH   2  17
BRANCH  15  23
ATOM     23  C   UNL     1      -0.062  13.629  19.016  0.00  0.00    +0.000 A 
ATOM     24  C   UNL     1      -0.385  14.648  19.969  0.00  0.00    +0.000 A 
ATOM     25  C   UNL     1       0.418  15.753  20.234  0.00  0.00    +0.000 A 
ATOM     26  C   UNL     1       1.615  15.901  19.547  0.00  0.00    +0.000 A 
ATOM     27  C   UNL     1       1.962  14.951  18.590  0.00  0.00    +0.000 A 
ATOM     28  C   UNL     1       1.139  13.812  18.298  0.00  0.00    +0.000 A 
BRANCH  27  29
ATOM     29  N   UNL     1       3.247  15.132  17.881  0.00  0.00    +0.000 N 
ATOM     30  O   UNL     1       4.161  14.353  18.124  0.00  0.00    +0.000 OA
ATOM     31  O   UNL     1       3.341  16.063  17.067  0.00  0.00    +0.000 OA
ENDBRANCH  27  29
ENDBRANCH  15  23
TORSDOF 3
ENDMDL
MODEL 5
REMARK VINA RESULT:      -7.0      2.745      7.131
REMARK  Name = 
REMARK  3 active torsions:
REMARK  status: ('A' for Active; 'I' for Inactive)
REMARK    1  A    between atoms: C_2  and  C_3
REMARK    2  A    between atoms: C_21  and  C_22
REMARK    3  A    between atoms: C_26  and  N_27
REMARK                            x       y       z     vdW  Elec       q    Type
REMARK                         _______ _______ _______ _____ _____    ______ ____
ROOT
ATOM      1  O   UNL     1      -0.762  12.980  18.175  0.00  0.00    +0.000 OA
ATOM      2  C   UNL     1      -1.247  11.923  18.583  0.00  0.00    +0.000 C 
ATOM      3  N   UNL     1      -0.459  10.913  19.152  0.00  0.00    +0.000 N 
ATOM      4  C   UNL     1      -0.976   9.623  19.710  0.00  0.00    +0.000 C 
ATOM      5  C   UNL     1       0.008   8.780  20.623  0.00  0.00    +0.000 C 
ATOM      6  C   UNL     1       1.365   8.706  19.975  0.00  0.00    +0.000 A 
ATOM      7  C   UNL     1       1.642   9.657  18.994  0.00  0.00    +0.000 A 
ATOM      8  N   UNL     1       1.744   8.796  17.888  0.00  0.00    +0.000 N 
ATOM      9  C   UNL     1       2.053   7.492  18.336  0.00  0.00    +0.000 A 
ATOM     10  C   UNL     1       2.163   6.234  17.710  0.00  0.00    +0.000 A 
ATOM     11  C   UNL     1       2.604   5.142  18.493  0.00  0.00    +0.000 A 
ATOM     12  C   UNL     1       2.928   5.299  19.842  0.00  0.00    +0.000 A 
ATOM     13  C   UNL     1       2.657   6.506  20.477  0.00  0.00    +0.000 A 
ATOM     14  C   UNL     1       2.168   7.585  19.719  0.00  0.00    +0.000 A 
ATOM     15  C   UNL     1       1.018  11.051  19.186  0.00  0.00    +0.000 C 
ATOM     16  H   UNL     1       1.469   9.014  16.939  0.00  0.00    +0.000 HD
ENDROOT
BRANCH   2  17
ATOM     17  C   UNL     1      -2.738  11.816  18.419  0.00  0.00    +0.000 A 
ATOM     18  C   UNL     1      -3.356  11.438  17.225  0.00  0.00    +0.000 A 
ATOM     19  C   UNL     1      -4.747  11.544  17.071  0.00  0.00    +0.000 A 
ATOM     20  C   UNL     1      -5.535  12.056  18.097  0.00  0.00    +0.000 A 
ATOM     21  C   UNL     1      -4.939  12.429  19.299  0.00  0.00    +0.000 A 
ATOM     22  C   UNL     1      -3.553  12.305  19.458  0.00  0.00    +0.000 A 
ENDBRANCH   2  17
BRANCH  15  23
ATOM     23  C   UNL     1       1.748  12.410  19.321  0.00  0.00    +0.000 A 
ATOM     24  C   UNL     1       1.699  13.031  20.611  0.00  0.00    +0.000 A 
ATOM     25  C   UNL     1       2.379  14.199  20.943  0.00  0.00    +0.000 A 
ATOM     26  C   UNL     1       3.165  14.821  19.983  0.00  0.00    +0.000 A 
ATOM     27  C   UNL     1       3.224  14.272  18.705  0.00  0.00    +0.000 A 
ATOM     28  C   UNL     1       2.520  13.074  18.345  0.00  0.00    +0.000 A 
BRANCH  27  29
ATOM     29  N   UNL     1       4.077  14.953  17.707  0.00  0.00    +0.000 N 
ATOM     30  O   UNL     1       3.556  15.773  16.958  0.00  0.00    +0.000 OA
ATOM     31  O   UNL     1       5.284  14.670  17.676  0.00  0.00    +0.000 OA
ENDBRANCH  27  29
ENDBRANCH  15  23
TORSDOF 3
ENDMDL
MODEL 6
REMARK VINA RESULT:      -7.0      1.676      1.930
REMARK  Name = 
REMARK  3 active torsions:
REMARK  status: ('A' for Active; 'I' for Inactive)
REMARK    1  A    between atoms: C_2  and  C_3
REMARK    2  A    between atoms: C_21  and  C_22
REMARK    3  A    between atoms: C_26  and  N_27
REMARK                            x       y       z     vdW  Elec       q    Type
REMARK                         _______ _______ _______ _____ _____    ______ ____
ROOT
ATOM      1  O   UNL     1       2.233  11.918  18.489  0.00  0.00    +0.000 OA
ATOM      2  C   UNL     1       1.423  12.824  18.693  0.00  0.00    +0.000 C 
ATOM      3  N   UNL     1       0.093  12.568  19.053  0.00  0.00    +0.000 N 
ATOM      4  C   UNL     1      -0.938  13.610  19.360  0.00  0.00    +0.000 C 
ATOM      5  C   UNL     1      -2.261  13.131  20.088  0.00  0.00    +0.000 C 
ATOM      6  C   UNL     1      -2.783  11.883  19.426  0.00  0.00    +0.000 A 
ATOM      7  C   UNL     1      -1.879  11.168  18.641  0.00  0.00    +0.000 A 
ATOM      8  N   UNL     1      -2.494  11.351  17.391  0.00  0.00    +0.000 N 
ATOM      9  C   UNL     1      -3.863  11.642  17.580  0.00  0.00    +0.000 A 
ATOM     10  C   UNL     1      -4.920  12.017  16.726  0.00  0.00    +0.000 A 
ATOM     11  C   UNL     1      -6.215  12.124  17.283  0.00  0.00    +0.000 A 
ATOM     12  C   UNL     1      -6.449  11.862  18.635  0.00  0.00    +0.000 A 
ATOM     13  C   UNL     1      -5.372  11.656  19.489  0.00  0.00    +0.000 A 
ATOM     14  C   UNL     1      -4.072  11.599  18.955  0.00  0.00    +0.000 A 
ATOM     15  C   UNL     1      -0.410  11.173  19.099  0.00  0.00    +0.000 C 
ATOM     16  H   UNL     1      -2.018  11.443  16.503  0.00  0.00    +0.000 HD
ENDROOT
BRANCH   2  17
ATOM     17  C   UNL     1       1.981  14.211  18.525  0.00  0.00    +0.000 A 
ATOM     18  C   UNL     1       1.282  15.370  18.869  0.00  0.00    +0.000 A 
ATOM     19  C   UNL     1       1.768  16.637  18.510  0.00  0.00    +0.000 A 
ATOM     20  C   UNL     1       2.944  16.760  17.776  0.00  0.00    +0.000 A 
ATOM     21  C   UNL     1       3.661  15.617  17.431  0.00  0.00    +0.000 A 
ATOM     22  C   UNL     1       3.184  14.355  17.808  0.00  0.00    +0.000 A 
ENDBRANCH   2  17
BRANCH  15  23
ATOM     23  C   UNL     1       0.471   9.958  19.485  0.00  0.00    +0.000 A 
ATOM     24  C   UNL     1       0.448   9.569  20.863  0.00  0.00    +0.000 A 
ATOM     25  C   UNL     1       1.095   8.445  21.369  0.00  0.00    +0.000 A 
ATOM     26  C   UNL     1       1.813   7.631  20.505  0.00  0.00    +0.000 A 
ATOM     27  C   UNL     1       1.888   7.980  19.159  0.00  0.00    +0.000 A 
ATOM     28  C   UNL     1       1.236   9.141  18.624  0.00  0.00    +0.000 A 
BRANCH  27  29
ATOM     29  N   UNL     1       2.653   7.087  18.263  0.00  0.00    +0.000 N 
ATOM     30  O   UNL     1       3.490   7.586  17.519  0.00  0.00    +0.000 OA
ATOM     31  O   UNL     1       2.418   5.870  18.307  0.00  0.00    +0.000 OA
ENDBRANCH  27  29
ENDBRANCH  15  23
TORSDOF 3
ENDMDL
MODEL 7
REMARK VINA RESULT:      -6.9      1.902      2.244
REMARK  Name = 
REMARK  3 active torsions:
REMARK  status: ('A' for Active; 'I' for Inactive)
REMARK    1  A    between atoms: C_2  and  C_3
REMARK    2  A    between atoms: C_21  and  C_22
REMARK    3  A    between atoms: C_26  and  N_27
REMARK                            x       y       z     vdW  Elec       q    Type
REMARK                         _______ _______ _______ _____ _____    ______ ____
ROOT
ATOM      1  O   UNL     1       2.557  11.754  18.468  0.00  0.00    +0.000 OA
ATOM      2  C   UNL     1       1.730  12.643  18.682  0.00  0.00    +0.000 C 
ATOM      3  N   UNL     1       0.387  12.359  18.963  0.00  0.00    +0.000 N 
ATOM      4  C   UNL     1      -0.667  13.377  19.275  0.00  0.00    +0.000 C 
ATOM      5  C   UNL     1      -2.019  12.851  19.912  0.00  0.00    +0.000 C 
ATOM      6  C   UNL     1      -2.497  11.636  19.159  0.00  0.00    +0.000 A 
ATOM      7  C   UNL     1      -1.551  10.971  18.382  0.00  0.00    +0.000 A 
ATOM      8  N   UNL     1      -2.106  11.217  17.115  0.00  0.00    +0.000 N 
ATOM      9  C   UNL     1      -3.486  11.489  17.253  0.00  0.00    +0.000 A 
ATOM     10  C   UNL     1      -4.503  11.903  16.370  0.00  0.00    +0.000 A 
ATOM     11  C   UNL     1      -5.824  11.971  16.869  0.00  0.00    +0.000 A 
ATOM     12  C   UNL     1      -6.121  11.635  18.192  0.00  0.00    +0.000 A 
ATOM     13  C   UNL     1      -5.084  11.390  19.085  0.00  0.00    +0.000 A 
ATOM     14  C   UNL     1      -3.760  11.370  18.612  0.00  0.00    +0.000 A 
ATOM     15  C   UNL     1      -0.105  10.960  18.910  0.00  0.00    +0.000 C 
ATOM     16  H   UNL     1      -1.589  11.360  16.257  0.00  0.00    +0.000 HD
ENDROOT
BRANCH   2  17
ATOM     17  C   UNL     1       2.283  14.040  18.615  0.00  0.00    +0.000 A 
ATOM     18  C   UNL     1       2.793  14.612  17.447  0.00  0.00    +0.000 A 
ATOM     19  C   UNL     1       3.472  15.839  17.484  0.00  0.00    +0.000 A 
ATOM     20  C   UNL     1       3.679  16.496  18.693  0.00  0.00    +0.000 A 
ATOM     21  C   UNL     1       3.171  15.948  19.868  0.00  0.00    +0.000 A 
ATOM     22  C   UNL     1       2.475  14.732  19.826  0.00  0.00    +0.000 A 
ENDBRANCH   2  17
BRANCH  15  23
ATOM     23  C   UNL     1       0.767   9.732  19.271  0.00  0.00    +0.000 A 
ATOM     24  C   UNL     1       0.727   9.306  20.638  0.00  0.00    +0.000 A 
ATOM     25  C   UNL     1       1.365   8.166  21.120  0.00  0.00    +0.000 A 
ATOM     26  C   UNL     1       2.089   7.372  20.242  0.00  0.00    +0.000 A 
ATOM     27  C   UNL     1       2.182   7.759  18.907  0.00  0.00    +0.000 A 
ATOM     28  C   UNL     1       1.539   8.936  18.397  0.00  0.00    +0.000 A 
BRANCH  27  29
ATOM     29  N   UNL     1       2.954   6.888  17.995  0.00  0.00    +0.000 N 
ATOM     30  O   UNL     1       2.655   5.701  17.931  0.00  0.00    +0.000 OA
ATOM     31  O   UNL     1       3.868   7.399  17.330  0.00  0.00    +0.000 OA
ENDBRANCH  27  29
ENDBRANCH  15  23
TORSDOF 3
ENDMDL
MODEL 8
REMARK VINA RESULT:      -6.9      0.752      1.186
REMARK  Name = 
REMARK  3 active torsions:
REMARK  status: ('A' for Active; 'I' for Inactive)
REMARK    1  A    between atoms: C_2  and  C_3
REMARK    2  A    between atoms: C_21  and  C_22
REMARK    3  A    between atoms: C_26  and  N_27
REMARK                            x       y       z     vdW  Elec       q    Type
REMARK                         _______ _______ _______ _____ _____    ______ ____
ROOT
ATOM      1  O   UNL     1       0.993  13.331  19.185  0.00  0.00    +0.000 OA
ATOM      2  C   UNL     1       0.125  14.126  19.550  0.00  0.00    +0.000 C 
ATOM      3  N   UNL     1      -1.124  13.699  20.024  0.00  0.00    +0.000 N 
ATOM      4  C   UNL     1      -2.213  14.597  20.525  0.00  0.00    +0.000 C 
ATOM      5  C   UNL     1      -3.390  13.924  21.344  0.00  0.00    +0.000 C 
ATOM      6  C   UNL     1      -3.855  12.678  20.635  0.00  0.00    +0.000 A 
ATOM      7  C   UNL     1      -2.979  12.127  19.702  0.00  0.00    +0.000 A 
ATOM      8  N   UNL     1      -3.746  12.334  18.543  0.00  0.00    +0.000 N 
ATOM      9  C   UNL     1      -5.107  12.459  18.898  0.00  0.00    +0.000 A 
ATOM     10  C   UNL     1      -6.286  12.778  18.194  0.00  0.00    +0.000 A 
ATOM     11  C   UNL     1      -7.514  12.702  18.891  0.00  0.00    +0.000 A 
ATOM     12  C   UNL     1      -7.566  12.315  20.232  0.00  0.00    +0.000 A 
ATOM     13  C   UNL     1      -6.385  12.165  20.949  0.00  0.00    +0.000 A 
ATOM     14  C   UNL     1      -5.154  12.291  20.279  0.00  0.00    +0.000 A 
ATOM     15  C   UNL     1      -1.475  12.258  20.002  0.00  0.00    +0.000 C 
ATOM     16  H   UNL     1      -3.385  12.543  17.621  0.00  0.00    +0.000 HD
ENDROOT
BRANCH   2  17
ATOM     17  C   UNL     1       0.518  15.574  19.444  0.00  0.00    +0.000 A 
ATOM     18  C   UNL     1       1.242  16.250  20.428  0.00  0.00    +0.000 A 
ATOM     19  C   UNL     1       1.411  17.642  20.369  0.00  0.00    +0.000 A 
ATOM     20  C   UNL     1       0.833  18.380  19.340  0.00  0.00    +0.000 A 
ATOM     21  C   UNL     1       0.115  17.724  18.344  0.00  0.00    +0.000 A 
ATOM     22  C   UNL     1      -0.035  16.332  18.395  0.00  0.00    +0.000 A 
ENDBRANCH   2  17
BRANCH  15  23
ATOM     23  C   UNL     1      -0.439  11.122  20.188  0.00  0.00    +0.000 A 
ATOM     24  C   UNL     1      -0.269  10.629  21.522  0.00  0.00    +0.000 A 
ATOM     25  C   UNL     1       0.540   9.548  21.859  0.00  0.00    +0.000 A 
ATOM     26  C   UNL     1       1.237   8.885  20.858  0.00  0.00    +0.000 A 
ATOM     27  C   UNL     1       1.127   9.343  19.547  0.00  0.00    +0.000 A 
ATOM     28  C   UNL     1       0.305  10.462  19.186  0.00  0.00    +0.000 A 
BRANCH  27  29
ATOM     29  N   UNL     1       1.874   8.610  18.503  0.00  0.00    +0.000 N 
ATOM     30  O   UNL     1       2.066   9.165  17.426  0.00  0.00    +0.000 OA
ATOM     31  O   UNL     1       2.280   7.467  18.764  0.00  0.00    +0.000 OA
ENDBRANCH  27  29
ENDBRANCH  15  23
TORSDOF 3
ENDMDL
MODEL 9
REMARK VINA RESULT:      -6.9      2.639      6.929
REMARK  Name = 
REMARK  3 active torsions:
REMARK  status: ('A' for Active; 'I' for Inactive)
REMARK    1  A    between atoms: C_2  and  C_3
REMARK    2  A    between atoms: C_21  and  C_22
REMARK    3  A    between atoms: C_26  and  N_27
REMARK                            x       y       z     vdW  Elec       q    Type
REMARK                         _______ _______ _______ _____ _____    ______ ____
ROOT
ATOM      1  O   UNL     1      -1.684  10.413  19.004  0.00  0.00    +0.000 OA
ATOM      2  C   UNL     1      -0.600  10.812  19.435  0.00  0.00    +0.000 C 
ATOM      3  N   UNL     1      -0.442  12.094  19.981  0.00  0.00    +0.000 N 
ATOM      4  C   UNL     1       0.826  12.637  20.563  0.00  0.00    +0.000 C 
ATOM      5  C   UNL     1       0.718  13.949  21.445  0.00  0.00    +0.000 C 
ATOM      6  C   UNL     1      -0.158  14.958  20.750  0.00  0.00    +0.000 A 
ATOM      7  C   UNL     1      -1.004  14.471  19.755  0.00  0.00    +0.000 A 
ATOM      8  N   UNL     1      -0.428  15.121  18.651  0.00  0.00    +0.000 N 
ATOM      9  C   UNL     1       0.278  16.261  19.093  0.00  0.00    +0.000 A 
ATOM     10  C   UNL     1       1.120  17.205  18.470  0.00  0.00    +0.000 A 
ATOM     11  C   UNL     1       1.572  18.299  19.242  0.00  0.00    +0.000 A 
ATOM     12  C   UNL     1       1.195  18.452  20.579  0.00  0.00    +0.000 A 
ATOM     13  C   UNL     1       0.503  17.429  21.216  0.00  0.00    +0.000 A 
ATOM     14  C   UNL     1       0.092  16.309  20.471  0.00  0.00    +0.000 A 
ATOM     15  C   UNL     1      -1.572  13.055  19.961  0.00  0.00    +0.000 C 
ATOM     16  H   UNL     1      -0.365  14.751  17.710  0.00  0.00    +0.000 HD
ENDROOT
BRANCH   2  17
ATOM     17  C   UNL     1       0.521   9.817  19.324  0.00  0.00    +0.000 A 
ATOM     18  C   UNL     1       1.168   9.515  18.124  0.00  0.00    +0.000 A 
ATOM     19  C   UNL     1       2.069   8.442  18.042  0.00  0.00    +0.000 A 
ATOM     20  C   UNL     1       2.312   7.638  19.151  0.00  0.00    +0.000 A 
ATOM     21  C   UNL     1       1.686   7.927  20.360  0.00  0.00    +0.000 A 
ATOM     22  C   UNL     1       0.802   9.011  20.445  0.00  0.00    +0.000 A 
ENDBRANCH   2  17
BRANCH  15  23
ATOM     23  C   UNL     1      -3.058  12.632  20.064  0.00  0.00    +0.000 A 
ATOM     24  C   UNL     1      -3.667  12.762  21.354  0.00  0.00    +0.000 A 
ATOM     25  C   UNL     1      -5.015  12.526  21.610  0.00  0.00    +0.000 A 
ATOM     26  C   UNL     1      -5.845  12.141  20.567  0.00  0.00    +0.000 A 
ATOM     27  C   UNL     1      -5.296  11.974  19.298  0.00  0.00    +0.000 A 
ATOM     28  C   UNL     1      -3.906  12.203  19.021  0.00  0.00    +0.000 A 
BRANCH  27  29
ATOM     29  N   UNL     1      -6.208  11.571  18.205  0.00  0.00    +0.000 N 
ATOM     30  O   UNL     1      -7.000  10.659  18.414  0.00  0.00    +0.000 OA
ATOM     31  O   UNL     1      -6.135  12.180  17.127  0.00  0.00    +0.000 OA
ENDBRANCH  27  29
ENDBRANCH  15  23
TORSDOF 3
ENDMDL
