MODEL 1
REMARK VINA RESULT:      -7.7      0.000      0.000
REMARK  Name = 
REMARK  7 active torsions:
REMARK  status: ('A' for Active; 'I' for Inactive)
REMARK    1  A    between atoms: C_1  and  C_2
REMARK    2  A    between atoms: C_2  and  C_3
REMARK    3  A    between atoms: C_2  and  N_10
REMARK    4  A    between atoms: C_3  and  N_4
REMARK    5  A    between atoms: N_13  and  C_14
REMARK    6  A    between atoms: C_14  and  C_15
REMARK    7  A    between atoms: C_20  and  N_21
REMARK                            x       y       z     vdW  Elec       q    Type
REMARK                         _______ _______ _______ _____ _____    ______ ____
ROOT
ATOM      1  N   UNL     1       3.275   3.419  19.920  0.00  0.00    +0.000 N 
ATOM      2  C   UNL     1       4.176   2.729  19.206  0.00  0.00    +0.000 C 
ATOM      3  O   UNL     1       4.611   1.677  19.682  0.00  0.00    +0.000 OA
ATOM      4  N   UNL     1       4.633   3.131  18.015  0.00  0.00    +0.000 N 
ATOM      5  H   UNL     1       2.997   2.908  20.751  0.00  0.00    +0.000 HD
ATOM      6  H   UNL     1       5.313   2.470  17.644  0.00  0.00    +0.000 HD
ENDROOT
BRANCH   1   8
ATOM      7  C   UNL     1       1.053   4.408  20.063  0.00  0.00    +0.000 C 
ATOM      8  C   UNL     1       2.485   4.595  19.574  0.00  0.00    +0.000 C 
BRANCH   8   9
ATOM      9  C   UNL     1       3.083   5.943  20.016  0.00  0.00    +0.000 C 
BRANCH   9  10
ATOM     10  N   UNL     1       2.475   7.116  19.390  0.00  0.00    +0.000 N 
ATOM     11  C   UNL     1       2.487   7.346  17.965  0.00  0.00    +0.000 C 
ATOM     12  C   UNL     1       2.191   8.824  17.852  0.00  0.00    +0.000 C 
ATOM     13  C   UNL     1       1.272   9.098  19.036  0.00  0.00    +0.000 C 
ATOM     14  C   UNL     1       1.703   8.062  20.052  0.00  0.00    +0.000 C 
ATOM     15  O   UNL     1       1.407   8.070  21.236  0.00  0.00    +0.000 OA
ENDBRANCH   9  10
ENDBRANCH   8   9
ENDBRANCH   1   8
BRANCH   4  16
ATOM     16  C   UNL     1       4.362   4.278  17.150  0.00  0.00    +0.000 C 
BRANCH  16  17
ATOM     17  C   UNL     1       5.308   4.408  15.962  0.00  0.00    +0.000 A 
ATOM     18  C   UNL     1       4.913   3.817  14.738  0.00  0.00    +0.000 A 
ATOM     19  C   UNL     1       5.727   3.844  13.608  0.00  0.00    +0.000 A 
ATOM     20  C   UNL     1       6.953   4.489  13.656  0.00  0.00    +0.000 A 
ATOM     21  C   UNL     1       7.382   5.070  14.849  0.00  0.00    +0.000 A 
ATOM     22  C   UNL     1       6.588   5.029  16.015  0.00  0.00    +0.000 A 
BRANCH  22  23
ATOM     23  N   UNL     1       7.158   5.556  17.220  0.00  0.00    +0.000 N 
ATOM     24  C   UNL     1       7.445   6.882  17.502  0.00  0.00    +0.000 A 
ATOM     25  C   UNL     1       8.038   6.928  18.741  0.00  0.00    +0.000 A 
ATOM     26  C   UNL     1       8.062   5.593  19.158  0.00  0.00    +0.000 A 
ATOM     27  N   UNL     1       7.530   4.764  18.259  0.00  0.00    +0.000 NA
ENDBRANCH  22  23
ENDBRANCH  16  17
ENDBRANCH   4  16
TORSDOF 6
ENDMDL
MODEL 2
REMARK VINA RESULT:      -7.5      0.945      1.218
REMARK  Name = 
REMARK  7 active torsions:
REMARK  status: ('A' for Active; 'I' for Inactive)
REMARK    1  A    between atoms: C_1  and  C_2
REMARK    2  A    between atoms: C_2  and  C_3
REMARK    3  A    between atoms: C_2  and  N_10
REMARK    4  A    between atoms: C_3  and  N_4
REMARK    5  A    between atoms: N_13  and  C_14
REMARK    6  A    between atoms: C_14  and  C_15
REMARK    7  A    between atoms: C_20  and  N_21
REMARK                            x       y       z     vdW  Elec       q    Type
REMARK                         _______ _______ _______ _____ _____    ______ ____
ROOT
ATOM      1  N   UNL     1       3.272   2.978  20.173  0.00  0.00    +0.000 N 
ATOM      2  C   UNL     1       4.545   2.727  19.838  0.00  0.00    +0.000 C 
ATOM      3  O   UNL     1       5.113   1.776  20.382  0.00  0.00    +0.000 OA
ATOM      4  N   UNL     1       5.231   3.464  18.957  0.00  0.00    +0.000 N 
ATOM      5  H   UNL     1       2.907   2.260  20.790  0.00  0.00    +0.000 HD
ATOM      6  H   UNL     1       6.181   3.111  18.849  0.00  0.00    +0.000 HD
ENDROOT
BRANCH   1   8
ATOM      7  C   UNL     1       1.013   3.182  19.282  0.00  0.00    +0.000 C 
ATOM      8  C   UNL     1       2.307   3.918  19.614  0.00  0.00    +0.000 C 
BRANCH   8   9
ATOM      9  C   UNL     1       2.061   5.185  20.451  0.00  0.00    +0.000 C 
BRANCH   9  10
ATOM     10  N   UNL     1       2.094   6.435  19.694  0.00  0.00    +0.000 N 
ATOM     11  C   UNL     1       2.268   6.485  18.262  0.00  0.00    +0.000 C 
ATOM     12  C   UNL     1       2.699   7.913  18.017  0.00  0.00    +0.000 C 
ATOM     13  C   UNL     1       1.967   8.699  19.098  0.00  0.00    +0.000 C 
ATOM     14  C   UNL     1       1.826   7.692  20.218  0.00  0.00    +0.000 C 
ATOM     15  O   UNL     1       1.521   7.958  21.370  0.00  0.00    +0.000 OA
ENDBRANCH   9  10
ENDBRANCH   8   9
ENDBRANCH   1   8
BRANCH   4  16
ATOM     16  C   UNL     1       4.914   4.626  18.129  0.00  0.00    +0.000 C 
BRANCH  16  17
ATOM     17  C   UNL     1       5.533   4.595  16.737  0.00  0.00    +0.000 A 
ATOM     18  C   UNL     1       5.043   3.634  15.819  0.00  0.00    +0.000 A 
ATOM     19  C   UNL     1       5.574   3.498  14.539  0.00  0.00    +0.000 A 
ATOM     20  C   UNL     1       6.594   4.339  14.122  0.00  0.00    +0.000 A 
ATOM     21  C   UNL     1       7.112   5.288  15.003  0.00  0.00    +0.000 A 
ATOM     22  C   UNL     1       6.611   5.423  16.315  0.00  0.00    +0.000 A 
BRANCH  22  23
ATOM     23  N   UNL     1       7.277   6.349  17.183  0.00  0.00    +0.000 N 
ATOM     24  C   UNL     1       7.812   6.090  18.435  0.00  0.00    +0.000 A 
ATOM     25  C   UNL     1       8.296   7.274  18.938  0.00  0.00    +0.000 A 
ATOM     26  C   UNL     1       8.033   8.206  17.929  0.00  0.00    +0.000 A 
ATOM     27  N   UNL     1       7.431   7.662  16.870  0.00  0.00    +0.000 NA
ENDBRANCH  22  23
ENDBRANCH  16  17
ENDBRANCH   4  16
TORSDOF 6
ENDMDL
MODEL 3
REMARK VINA RESULT:      -7.4      0.975      1.243
REMARK  Name = 
REMARK  7 active torsions:
REMARK  status: ('A' for Active; 'I' for Inactive)
REMARK    1  A    between atoms: C_1  and  C_2
REMARK    2  A    between atoms: C_2  and  C_3
REMARK    3  A    between atoms: C_2  and  N_10
REMARK    4  A    between atoms: C_3  and  N_4
REMARK    5  A    between atoms: N_13  and  C_14
REMARK    6  A    between atoms: C_14  and  C_15
REMARK    7  A    between atoms: C_20  and  N_21
REMARK                            x       y       z     vdW  Elec       q    Type
REMARK                         _______ _______ _______ _____ _____    ______ ____
ROOT
ATOM      1  N   UNL     1       3.517   3.957  19.833  0.00  0.00    +0.000 N 
ATOM      2  C   UNL     1       4.385   3.156  19.197  0.00  0.00    +0.000 C 
ATOM      3  O   UNL     1       4.894   2.230  19.833  0.00  0.00    +0.000 OA
ATOM      4  N   UNL     1       4.733   3.322  17.916  0.00  0.00    +0.000 N 
ATOM      5  H   UNL     1       3.323   3.617  20.769  0.00  0.00    +0.000 HD
ATOM      6  H   UNL     1       5.406   2.614  17.628  0.00  0.00    +0.000 HD
ENDROOT
BRANCH   1   8
ATOM      7  C   UNL     1       1.250   4.483  19.112  0.00  0.00    +0.000 C 
ATOM      8  C   UNL     1       2.660   5.023  19.328  0.00  0.00    +0.000 C 
BRANCH   8   9
ATOM      9  C   UNL     1       2.668   6.321  20.155  0.00  0.00    +0.000 C 
BRANCH   9  10
ATOM     10  N   UNL     1       2.276   7.519  19.416  0.00  0.00    +0.000 N 
ATOM     11  C   UNL     1       1.377   8.516  19.947  0.00  0.00    +0.000 C 
ATOM     12  C   UNL     1       0.921   9.261  18.714  0.00  0.00    +0.000 C 
ATOM     13  C   UNL     1       2.132   9.204  17.791  0.00  0.00    +0.000 C 
ATOM     14  C   UNL     1       2.813   7.916  18.199  0.00  0.00    +0.000 C 
ATOM     15  O   UNL     1       3.685   7.347  17.560  0.00  0.00    +0.000 OA
ENDBRANCH   9  10
ENDBRANCH   8   9
ENDBRANCH   1   8
BRANCH   4  16
ATOM     16  C   UNL     1       4.354   4.267  16.867  0.00  0.00    +0.000 C 
BRANCH  16  17
ATOM     17  C   UNL     1       5.362   4.382  15.730  0.00  0.00    +0.000 A 
ATOM     18  C   UNL     1       5.032   3.778  14.493  0.00  0.00    +0.000 A 
ATOM     19  C   UNL     1       5.904   3.791  13.408  0.00  0.00    +0.000 A 
ATOM     20  C   UNL     1       7.126   4.436  13.514  0.00  0.00    +0.000 A 
ATOM     21  C   UNL     1       7.493   5.030  14.721  0.00  0.00    +0.000 A 
ATOM     22  C   UNL     1       6.638   5.003  15.843  0.00  0.00    +0.000 A 
BRANCH  22  23
ATOM     23  N   UNL     1       7.143   5.543  17.071  0.00  0.00    +0.000 N 
ATOM     24  C   UNL     1       7.397   6.875  17.359  0.00  0.00    +0.000 A 
ATOM     25  C   UNL     1       7.932   6.935  18.624  0.00  0.00    +0.000 A 
ATOM     26  C   UNL     1       7.958   5.602  19.047  0.00  0.00    +0.000 A 
ATOM     27  N   UNL     1       7.480   4.762  18.129  0.00  0.00    +0.000 NA
ENDBRANCH  22  23
ENDBRANCH  16  17
ENDBRANCH   4  16
TORSDOF 6
ENDMDL
MODEL 4
REMARK VINA RESULT:      -7.4      2.426      5.900
REMARK  Name = 
REMARK  7 active torsions:
REMARK  status: ('A' for Active; 'I' for Inactive)
REMARK    1  A    between atoms: C_1  and  C_2
REMARK    2  A    between atoms: C_2  and  C_3
REMARK    3  A    between atoms: C_2  and  N_10
REMARK    4  A    between atoms: C_3  and  N_4
REMARK    5  A    between atoms: N_13  and  C_14
REMARK    6  A    between atoms: C_14  and  C_15
REMARK    7  A    between atoms: C_20  and  N_21
REMARK                            x       y       z     vdW  Elec       q    Type
REMARK                         _______ _______ _______ _____ _____    ______ ____
ROOT
ATOM      1  N   UNL     1       7.824   5.766  17.447  0.00  0.00    +0.000 N 
ATOM      2  C   UNL     1       7.765   4.655  18.196  0.00  0.00    +0.000 C 
ATOM      3  O   UNL     1       8.725   3.881  18.164  0.00  0.00    +0.000 OA
ATOM      4  N   UNL     1       6.713   4.341  18.961  0.00  0.00    +0.000 N 
ATOM      5  H   UNL     1       8.733   5.863  17.007  0.00  0.00    +0.000 HD
ATOM      6  H   UNL     1       6.866   3.456  19.443  0.00  0.00    +0.000 HD
ENDROOT
BRANCH   1   8
ATOM      7  C   UNL     1       7.755   8.201  17.468  0.00  0.00    +0.000 C 
ATOM      8  C   UNL     1       6.933   6.919  17.382  0.00  0.00    +0.000 C 
BRANCH   8   9
ATOM      9  C   UNL     1       5.955   6.929  16.194  0.00  0.00    +0.000 C 
BRANCH   9  10
ATOM     10  N   UNL     1       5.843   5.657  15.484  0.00  0.00    +0.000 N 
ATOM     11  C   UNL     1       4.653   4.839  15.511  0.00  0.00    +0.000 C 
ATOM     12  C   UNL     1       5.155   3.485  15.065  0.00  0.00    +0.000 C 
ATOM     13  C   UNL     1       6.277   3.821  14.090  0.00  0.00    +0.000 C 
ATOM     14  C   UNL     1       6.787   5.152  14.600  0.00  0.00    +0.000 C 
ATOM     15  O   UNL     1       7.840   5.675  14.272  0.00  0.00    +0.000 OA
ENDBRANCH   9  10
ENDBRANCH   8   9
ENDBRANCH   1   8
BRANCH   4  16
ATOM     16  C   UNL     1       5.435   4.985  19.257  0.00  0.00    +0.000 C 
BRANCH  16  17
ATOM     17  C   UNL     1       4.212   4.163  18.867  0.00  0.00    +0.000 A 
ATOM     18  C   UNL     1       4.407   2.795  18.563  0.00  0.00    +0.000 A 
ATOM     19  C   UNL     1       3.360   1.972  18.155  0.00  0.00    +0.000 A 
ATOM     20  C   UNL     1       2.076   2.484  18.065  0.00  0.00    +0.000 A 
ATOM     21  C   UNL     1       1.847   3.831  18.343  0.00  0.00    +0.000 A 
ATOM     22  C   UNL     1       2.897   4.691  18.728  0.00  0.00    +0.000 A 
BRANCH  22  23
ATOM     23  N   UNL     1       2.587   6.081  18.887  0.00  0.00    +0.000 N 
ATOM     24  C   UNL     1       2.089   6.706  20.019  0.00  0.00    +0.000 A 
ATOM     25  C   UNL     1       1.879   8.028  19.711  0.00  0.00    +0.000 A 
ATOM     26  C   UNL     1       2.287   8.137  18.378  0.00  0.00    +0.000 A 
ATOM     27  N   UNL     1       2.721   6.979  17.877  0.00  0.00    +0.000 NA
ENDBRANCH  22  23
ENDBRANCH  16  17
ENDBRANCH   4  16
TORSDOF 6
ENDMDL
MODEL 5
REMARK VINA RESULT:      -7.1      1.972      5.969
REMARK  Name = 
REMARK  7 active torsions:
REMARK  status: ('A' for Active; 'I' for Inactive)
REMARK    1  A    between atoms: C_1  and  C_2
REMARK    2  A    between atoms: C_2  and  C_3
REMARK    3  A    between atoms: C_2  and  N_10
REMARK    4  A    between atoms: C_3  and  N_4
REMARK    5  A    between atoms: N_13  and  C_14
REMARK    6  A    between atoms: C_14  and  C_15
REMARK    7  A    between atoms: C_20  and  N_21
REMARK                            x       y       z     vdW  Elec       q    Type
REMARK                         _______ _______ _______ _____ _____    ______ ____
ROOT
ATOM      1  N   UNL     1       5.957   3.647  18.968  0.00  0.00    +0.000 N 
ATOM      2  C   UNL     1       4.752   3.074  19.103  0.00  0.00    +0.000 C 
ATOM      3  O   UNL     1       4.660   2.077  19.824  0.00  0.00    +0.000 OA
ATOM      4  N   UNL     1       3.653   3.520  18.483  0.00  0.00    +0.000 N 
ATOM      5  H   UNL     1       6.639   3.213  19.581  0.00  0.00    +0.000 HD
ATOM      6  H   UNL     1       2.846   2.943  18.713  0.00  0.00    +0.000 HD
ENDROOT
BRANCH   1   8
ATOM      7  C   UNL     1       6.965   5.832  19.349  0.00  0.00    +0.000 C 
ATOM      8  C   UNL     1       6.352   4.891  18.317  0.00  0.00    +0.000 C 
BRANCH   8   9
ATOM      9  C   UNL     1       7.242   4.727  17.072  0.00  0.00    +0.000 C 
BRANCH   9  10
ATOM     10  N   UNL     1       6.514   4.630  15.809  0.00  0.00    +0.000 N 
ATOM     11  C   UNL     1       6.296   3.381  15.118  0.00  0.00    +0.000 C 
ATOM     12  C   UNL     1       5.950   3.820  13.714  0.00  0.00    +0.000 C 
ATOM     13  C   UNL     1       5.223   5.143  13.920  0.00  0.00    +0.000 C 
ATOM     14  C   UNL     1       5.834   5.674  15.198  0.00  0.00    +0.000 C 
ATOM     15  O   UNL     1       5.728   6.820  15.607  0.00  0.00    +0.000 OA
ENDBRANCH   9  10
ENDBRANCH   8   9
ENDBRANCH   1   8
BRANCH   4  16
ATOM     16  C   UNL     1       3.369   4.637  17.584  0.00  0.00    +0.000 C 
BRANCH  16  17
ATOM     17  C   UNL     1       2.814   5.876  18.275  0.00  0.00    +0.000 A 
ATOM     18  C   UNL     1       3.096   7.137  17.696  0.00  0.00    +0.000 A 
ATOM     19  C   UNL     1       2.670   8.329  18.277  0.00  0.00    +0.000 A 
ATOM     20  C   UNL     1       1.921   8.299  19.442  0.00  0.00    +0.000 A 
ATOM     21  C   UNL     1       1.634   7.077  20.049  0.00  0.00    +0.000 A 
ATOM     22  C   UNL     1       2.082   5.858  19.496  0.00  0.00    +0.000 A 
BRANCH  22  23
ATOM     23  N   UNL     1       1.834   4.663  20.247  0.00  0.00    +0.000 N 
ATOM     24  C   UNL     1       2.383   4.311  21.470  0.00  0.00    +0.000 A 
ATOM     25  C   UNL     1       1.921   3.057  21.791  0.00  0.00    +0.000 A 
ATOM     26  C   UNL     1       1.083   2.718  20.724  0.00  0.00    +0.000 A 
ATOM     27  N   UNL     1       1.017   3.675  19.798  0.00  0.00    +0.000 NA
ENDBRANCH  22  23
ENDBRANCH  16  17
ENDBRANCH   4  16
TORSDOF 6
ENDMDL
MODEL 6
REMARK VINA RESULT:      -7.0      1.139      3.044
REMARK  Name = 
REMARK  7 active torsions:
REMARK  status: ('A' for Active; 'I' for Inactive)
REMARK    1  A    between atoms: C_1  and  C_2
REMARK    2  A    between atoms: C_2  and  C_3
REMARK    3  A    between atoms: C_2  and  N_10
REMARK    4  A    between atoms: C_3  and  N_4
REMARK    5  A    between atoms: N_13  and  C_14
REMARK    6  A    between atoms: C_14  and  C_15
REMARK    7  A    between atoms: C_20  and  N_21
REMARK                            x       y       z     vdW  Elec       q    Type
REMARK                         _______ _______ _______ _____ _____    ______ ____
ROOT
ATOM      1  N   UNL     1       3.309   2.980  20.509  0.00  0.00    +0.000 N 
ATOM      2  C   UNL     1       4.425   2.341  20.130  0.00  0.00    +0.000 C 
ATOM      3  O   UNL     1       4.813   1.392  20.817  0.00  0.00    +0.000 OA
ATOM      4  N   UNL     1       5.141   2.689  19.055  0.00  0.00    +0.000 N 
ATOM      5  H   UNL     1       2.869   2.514  21.296  0.00  0.00    +0.000 HD
ATOM      6  H   UNL     1       5.952   2.082  18.946  0.00  0.00    +0.000 HD
ENDROOT
BRANCH   1   8
ATOM      7  C   UNL     1       1.098   3.547  19.657  0.00  0.00    +0.000 C 
ATOM      8  C   UNL     1       2.535   4.021  19.843  0.00  0.00    +0.000 C 
BRANCH   8   9
ATOM      9  C   UNL     1       2.611   5.415  20.492  0.00  0.00    +0.000 C 
BRANCH   9  10
ATOM     10  N   UNL     1       2.476   6.532  19.559  0.00  0.00    +0.000 N 
ATOM     11  C   UNL     1       2.802   6.433  18.156  0.00  0.00    +0.000 C 
ATOM     12  C   UNL     1       2.958   7.876  17.735  0.00  0.00    +0.000 C 
ATOM     13  C   UNL     1       1.960   8.617  18.617  0.00  0.00    +0.000 C 
ATOM     14  C   UNL     1       1.898   7.757  19.861  0.00  0.00    +0.000 C 
ATOM     15  O   UNL     1       1.413   8.098  20.929  0.00  0.00    +0.000 OA
ENDBRANCH   9  10
ENDBRANCH   8   9
ENDBRANCH   1   8
BRANCH   4  16
ATOM     16  C   UNL     1       5.006   3.718  18.025  0.00  0.00    +0.000 C 
BRANCH  16  17
ATOM     17  C   UNL     1       6.065   4.812  18.085  0.00  0.00    +0.000 A 
ATOM     18  C   UNL     1       6.359   5.376  19.350  0.00  0.00    +0.000 A 
ATOM     19  C   UNL     1       7.279   6.410  19.501  0.00  0.00    +0.000 A 
ATOM     20  C   UNL     1       7.959   6.895  18.396  0.00  0.00    +0.000 A 
ATOM     21  C   UNL     1       7.686   6.374  17.132  0.00  0.00    +0.000 A 
ATOM     22  C   UNL     1       6.735   5.348  16.949  0.00  0.00    +0.000 A 
BRANCH  22  23
ATOM     23  N   UNL     1       6.442   4.951  15.603  0.00  0.00    +0.000 N 
ATOM     24  C   UNL     1       5.282   4.353  15.139  0.00  0.00    +0.000 A 
ATOM     25  C   UNL     1       5.453   4.088  13.802  0.00  0.00    +0.000 A 
ATOM     26  C   UNL     1       6.736   4.568  13.520  0.00  0.00    +0.000 A 
ATOM     27  N   UNL     1       7.334   5.095  14.589  0.00  0.00    +0.000 NA
ENDBRANCH  22  23
ENDBRANCH  16  17
ENDBRANCH   4  16
TORSDOF 6
ENDMDL
MODEL 7
REMARK VINA RESULT:      -7.0      2.408      6.680
REMARK  Name = 
REMARK  7 active torsions:
REMARK  status: ('A' for Active; 'I' for Inactive)
REMARK    1  A    between atoms: C_1  and  C_2
REMARK    2  A    between atoms: C_2  and  C_3
REMARK    3  A    between atoms: C_2  and  N_10
REMARK    4  A    between atoms: C_3  and  N_4
REMARK    5  A    between atoms: N_13  and  C_14
REMARK    6  A    between atoms: C_14  and  C_15
REMARK    7  A    between atoms: C_20  and  N_21
REMARK                            x       y       z     vdW  Elec       q    Type
REMARK                         _______ _______ _______ _____ _____    ______ ____
ROOT
ATOM      1  N   UNL     1       7.414   5.606  18.135  0.00  0.00    +0.000 N 
ATOM      2  C   UNL     1       6.960   5.279  19.353  0.00  0.00    +0.000 C 
ATOM      3  O   UNL     1       7.703   5.469  20.320  0.00  0.00    +0.000 OA
ATOM      4  N   UNL     1       5.751   4.747  19.567  0.00  0.00    +0.000 N 
ATOM      5  H   UNL     1       8.315   6.070  18.192  0.00  0.00    +0.000 HD
ATOM      6  H   UNL     1       5.604   4.567  20.559  0.00  0.00    +0.000 HD
ENDROOT
BRANCH   1   8
ATOM      7  C   UNL     1       5.858   6.878  16.758  0.00  0.00    +0.000 C 
ATOM      8  C   UNL     1       6.738   5.636  16.843  0.00  0.00    +0.000 C 
BRANCH   8   9
ATOM      9  C   UNL     1       7.656   5.484  15.616  0.00  0.00    +0.000 C 
BRANCH   9  10
ATOM     10  N   UNL     1       7.027   4.854  14.457  0.00  0.00    +0.000 N 
ATOM     11  C   UNL     1       5.819   4.068  14.544  0.00  0.00    +0.000 C 
ATOM     12  C   UNL     1       5.831   3.275  13.257  0.00  0.00    +0.000 C 
ATOM     13  C   UNL     1       6.504   4.213  12.263  0.00  0.00    +0.000 C 
ATOM     14  C   UNL     1       7.418   5.043  13.138  0.00  0.00    +0.000 C 
ATOM     15  O   UNL     1       8.326   5.752  12.735  0.00  0.00    +0.000 OA
ENDBRANCH   9  10
ENDBRANCH   8   9
ENDBRANCH   1   8
BRANCH   4  16
ATOM     16  C   UNL     1       4.624   4.391  18.708  0.00  0.00    +0.000 C 
BRANCH  16  17
ATOM     17  C   UNL     1       3.363   3.983  19.461  0.00  0.00    +0.000 A 
ATOM     18  C   UNL     1       3.244   2.632  19.864  0.00  0.00    +0.000 A 
ATOM     19  C   UNL     1       2.112   2.153  20.518  0.00  0.00    +0.000 A 
ATOM     20  C   UNL     1       1.072   3.018  20.819  0.00  0.00    +0.000 A 
ATOM     21  C   UNL     1       1.147   4.353  20.426  0.00  0.00    +0.000 A 
ATOM     22  C   UNL     1       2.270   4.854  19.734  0.00  0.00    +0.000 A 
BRANCH  22  23
ATOM     23  N   UNL     1       2.212   6.210  19.274  0.00  0.00    +0.000 N 
ATOM     24  C   UNL     1       2.417   6.668  17.983  0.00  0.00    +0.000 A 
ATOM     25  C   UNL     1       2.329   8.039  18.005  0.00  0.00    +0.000 A 
ATOM     26  C   UNL     1       2.053   8.342  19.342  0.00  0.00    +0.000 A 
ATOM     27  N   UNL     1       1.972   7.254  20.109  0.00  0.00    +0.000 NA
ENDBRANCH  22  23
ENDBRANCH  16  17
ENDBRANCH   4  16
TORSDOF 6
ENDMDL
MODEL 8
REMARK VINA RESULT:      -6.9      2.392      6.736
REMARK  Name = 
REMARK  7 active torsions:
REMARK  status: ('A' for Active; 'I' for Inactive)
REMARK    1  A    between atoms: C_1  and  C_2
REMARK    2  A    between atoms: C_2  and  C_3
REMARK    3  A    between atoms: C_2  and  N_10
REMARK    4  A    between atoms: C_3  and  N_4
REMARK    5  A    between atoms: N_13  and  C_14
REMARK    6  A    between atoms: C_14  and  C_15
REMARK    7  A    between atoms: C_20  and  N_21
REMARK                            x       y       z     vdW  Elec       q    Type
REMARK                         _______ _______ _______ _____ _____    ______ ____
ROOT
ATOM      1  N   UNL     1       6.612   5.632  17.338  0.00  0.00    +0.000 N 
ATOM      2  C   UNL     1       6.605   5.476  18.669  0.00  0.00    +0.000 C 
ATOM      3  O   UNL     1       7.408   6.134  19.336  0.00  0.00    +0.000 OA
ATOM      4  N   UNL     1       5.781   4.634  19.305  0.00  0.00    +0.000 N 
ATOM      5  H   UNL     1       7.247   6.373  17.059  0.00  0.00    +0.000 HD
ATOM      6  H   UNL     1       5.939   4.661  20.311  0.00  0.00    +0.000 HD
ENDROOT
BRANCH   1   8
ATOM      7  C   UNL     1       5.322   6.246  15.364  0.00  0.00    +0.000 C 
ATOM      8  C   UNL     1       5.711   5.117  16.314  0.00  0.00    +0.000 C 
BRANCH   8   9
ATOM      9  C   UNL     1       6.210   3.868  15.565  0.00  0.00    +0.000 C 
BRANCH   9  10
ATOM     10  N   UNL     1       6.446   4.066  14.136  0.00  0.00    +0.000 N 
ATOM     11  C   UNL     1       5.590   3.516  13.111  0.00  0.00    +0.000 C 
ATOM     12  C   UNL     1       6.456   3.572  11.873  0.00  0.00    +0.000 C 
ATOM     13  C   UNL     1       7.311   4.814  12.089  0.00  0.00    +0.000 C 
ATOM     14  C   UNL     1       7.412   4.904  13.596  0.00  0.00    +0.000 C 
ATOM     15  O   UNL     1       8.205   5.602  14.209  0.00  0.00    +0.000 OA
ENDBRANCH   9  10
ENDBRANCH   8   9
ENDBRANCH   1   8
BRANCH   4  16
ATOM     16  C   UNL     1       4.723   3.721  18.877  0.00  0.00    +0.000 C 
BRANCH  16  17
ATOM     17  C   UNL     1       3.568   3.590  19.863  0.00  0.00    +0.000 A 
ATOM     18  C   UNL     1       3.468   2.389  20.606  0.00  0.00    +0.000 A 
ATOM     19  C   UNL     1       2.425   2.158  21.499  0.00  0.00    +0.000 A 
ATOM     20  C   UNL     1       1.462   3.133  21.702  0.00  0.00    +0.000 A 
ATOM     21  C   UNL     1       1.519   4.323  20.978  0.00  0.00    +0.000 A 
ATOM     22  C   UNL     1       2.549   4.567  20.045  0.00  0.00    +0.000 A 
BRANCH  22  23
ATOM     23  N   UNL     1       2.466   5.770  19.270  0.00  0.00    +0.000 N 
ATOM     24  C   UNL     1       2.432   5.878  17.889  0.00  0.00    +0.000 A 
ATOM     25  C   UNL     1       2.417   7.215  17.572  0.00  0.00    +0.000 A 
ATOM     26  C   UNL     1       2.426   7.859  18.813  0.00  0.00    +0.000 A 
ATOM     27  N   UNL     1       2.446   7.004  19.836  0.00  0.00    +0.000 NA
ENDBRANCH  22  23
ENDBRANCH  16  17
ENDBRANCH   4  16
TORSDOF 6
ENDMDL
MODEL 9
REMARK VINA RESULT:      -6.9      2.825      4.950
REMARK  Name = 
REMARK  7 active torsions:
REMARK  status: ('A' for Active; 'I' for Inactive)
REMARK    1  A    between atoms: C_1  and  C_2
REMARK    2  A    between atoms: C_2  and  C_3
REMARK    3  A    between atoms: C_2  and  N_10
REMARK    4  A    between atoms: C_3  and  N_4
REMARK    5  A    between atoms: N_13  and  C_14
REMARK    6  A    between atoms: C_14  and  C_15
REMARK    7  A    between atoms: C_20  and  N_21
REMARK                            x       y       z     vdW  Elec       q    Type
REMARK                         _______ _______ _______ _____ _____    ______ ____
ROOT
ATOM      1  N   UNL     1       1.245   9.115  19.473  0.00  0.00    +0.000 N 
ATOM      2  C   UNL     1       1.994   8.639  18.468  0.00  0.00    +0.000 C 
ATOM      3  O   UNL     1       2.154   9.352  17.473  0.00  0.00    +0.000 OA
ATOM      4  N   UNL     1       2.563   7.428  18.486  0.00  0.00    +0.000 N 
ATOM      5  H   UNL     1       0.976  10.078  19.304  0.00  0.00    +0.000 HD
ATOM      6  H   UNL     1       3.083   7.258  17.626  0.00  0.00    +0.000 HD
ENDROOT
BRANCH   1   8
ATOM      7  C   UNL     1       2.016   9.161  21.783  0.00  0.00    +0.000 C 
ATOM      8  C   UNL     1       0.996   8.584  20.808  0.00  0.00    +0.000 C 
BRANCH   8   9
ATOM      9  C   UNL     1      -0.450   8.735  21.316  0.00  0.00    +0.000 C 
BRANCH   9  10
ATOM     10  N   UNL     1      -0.800  10.078  21.773  0.00  0.00    +0.000 N 
ATOM     11  C   UNL     1      -0.906  10.435  23.168  0.00  0.00    +0.000 C 
ATOM     12  C   UNL     1      -1.716  11.711  23.136  0.00  0.00    +0.000 C 
ATOM     13  C   UNL     1      -1.300  12.369  21.826  0.00  0.00    +0.000 C 
ATOM     14  C   UNL     1      -0.934  11.189  20.951  0.00  0.00    +0.000 C 
ATOM     15  O   UNL     1      -0.780  11.231  19.741  0.00  0.00    +0.000 OA
ENDBRANCH   9  10
ENDBRANCH   8   9
ENDBRANCH   1   8
BRANCH   4  16
ATOM     16  C   UNL     1       2.608   6.334  19.454  0.00  0.00    +0.000 C 
BRANCH  16  17
ATOM     17  C   UNL     1       2.711   4.947  18.831  0.00  0.00    +0.000 A 
ATOM     18  C   UNL     1       1.551   4.135  18.834  0.00  0.00    +0.000 A 
ATOM     19  C   UNL     1       1.556   2.837  18.328  0.00  0.00    +0.000 A 
ATOM     20  C   UNL     1       2.715   2.318  17.774  0.00  0.00    +0.000 A 
ATOM     21  C   UNL     1       3.881   3.083  17.765  0.00  0.00    +0.000 A 
ATOM     22  C   UNL     1       3.908   4.388  18.300  0.00  0.00    +0.000 A 
BRANCH  22  23
ATOM     23  N   UNL     1       5.175   5.057  18.346  0.00  0.00    +0.000 N 
ATOM     24  C   UNL     1       5.721   5.887  17.380  0.00  0.00    +0.000 A 
ATOM     25  C   UNL     1       6.975   6.256  17.805  0.00  0.00    +0.000 A 
ATOM     26  C   UNL     1       7.115   5.625  19.045  0.00  0.00    +0.000 A 
ATOM     27  N   UNL     1       6.040   4.911  19.383  0.00  0.00    +0.000 NA
ENDBRANCH  22  23
ENDBRANCH  16  17
ENDBRANCH   4  16
TORSDOF 6
ENDMDL
