MODEL 1
REMARK VINA RESULT:      -8.4      0.000      0.000
REMARK  Name = 
REMARK  8 active torsions:
REMARK  status: ('A' for Active; 'I' for Inactive)
REMARK    1  A    between atoms: C_1  and  N_2
REMARK    2  A    between atoms: C_5  and  O_6
REMARK    3  A    between atoms: O_6  and  C_7
REMARK    4  A    between atoms: C_9  and  N_10
REMARK    5  A    between atoms: C_13  and  C_14
REMARK    6  A    between atoms: N_21  and  C_22
REMARK    7  A    between atoms: C_22  and  C_23
REMARK    8  A    between atoms: C_25  and  C_26
REMARK                            x       y       z     vdW  Elec       q    Type
REMARK                         _______ _______ _______ _____ _____    ______ ____
ROOT
ATOM      1  C   UNL     1       1.262   9.038  19.390  0.00  0.00    +0.000 A 
ATOM      2  C   UNL     1       0.589   9.298  18.227  0.00  0.00    +0.000 A 
ATOM      3  C   UNL     1      -0.342  10.315  18.279  0.00  0.00    +0.000 A 
ATOM      4  N   UNL     1      -0.484  11.062  19.394  0.00  0.00    +0.000 NA
ATOM      5  C   UNL     1       0.220  10.731  20.479  0.00  0.00    +0.000 A 
ATOM      6  N   UNL     1       0.069  11.419  21.668  0.00  0.00    +0.000 N 
ATOM      7  N   UNL     1       1.061   9.707  20.529  0.00  0.00    +0.000 NA
ATOM      8  H   UNL     1      -0.392  10.781  22.307  0.00  0.00    +0.000 HD
ENDROOT
BRANCH   3   9
ATOM      9  N   UNL     1      -1.167  10.542  17.151  0.00  0.00    +0.000 N 
ATOM     10  C   UNL     1      -2.468  10.916  17.126  0.00  0.00    +0.000 A 
ATOM     11  C   UNL     1      -3.174  11.568  18.160  0.00  0.00    +0.000 A 
ATOM     12  C   UNL     1      -4.485  11.579  17.757  0.00  0.00    +0.000 A 
ATOM     13  N   UNL     1      -4.487  11.054  16.501  0.00  0.00    +0.000 N 
ATOM     14  N   UNL     1      -3.269  10.648  16.089  0.00  0.00    +0.000 NA
ATOM     15  H   UNL     1      -0.889  10.010  16.338  0.00  0.00    +0.000 HD
ATOM     16  H   UNL     1      -5.276  10.920  15.883  0.00  0.00    +0.000 HD
BRANCH  12  17
ATOM     17  C   UNL     1      -5.644  12.045  18.607  0.00  0.00    +0.000 C 
ATOM     18  C   UNL     1      -7.058  11.741  18.182  0.00  0.00    +0.000 C 
ATOM     19  C   UNL     1      -6.461  10.994  19.321  0.00  0.00    +0.000 C 
ENDBRANCH  12  17
ENDBRANCH   3   9
BRANCH   1  20
ATOM     20  O   UNL     1       2.217   8.045  19.356  0.00  0.00    +0.000 OA
BRANCH  20  25
ATOM     21  C   UNL     1       1.832   2.427  19.185  0.00  0.00    +0.000 C 
ATOM     22  N   UNL     1       2.210   3.832  19.338  0.00  0.00    +0.000 NA
ATOM     23  C   UNL     1       2.089   4.535  18.055  0.00  0.00    +0.000 C 
ATOM     24  C   UNL     1       2.510   5.993  18.188  0.00  0.00    +0.000 C 
ATOM     25  C   UNL     1       1.689   6.710  19.261  0.00  0.00    +0.000 C 
ATOM     26  C   UNL     1       1.811   5.936  20.579  0.00  0.00    +0.000 C 
ATOM     27  C   UNL     1       1.402   4.476  20.384  0.00  0.00    +0.000 C 
ENDBRANCH  20  25
ENDBRANCH   1  20
BRANCH   6  28
ATOM     28  C   UNL     1      -0.556  12.726  21.614  0.00  0.00    +0.000 C 
BRANCH  28  29
ATOM     29  C   UNL     1      -1.888  12.708  22.276  0.00  0.00    +0.000 A 
ATOM     30  C   UNL     1      -2.979  13.539  22.222  0.00  0.00    +0.000 A 
ATOM     31  C   UNL     1      -3.910  12.982  23.137  0.00  0.00    +0.000 A 
ATOM     32  N   UNL     1      -3.387  11.888  23.718  0.00  0.00    +0.000 NA
ATOM     33  O   UNL     1      -2.129  11.716  23.170  0.00  0.00    +0.000 OA
BRANCH  31  34
ATOM     34  C   UNL     1      -5.256  13.464  23.448  0.00  0.00    +0.000 A 
ATOM     35  C   UNL     1      -6.285  12.556  23.744  0.00  0.00    +0.000 A 
ATOM     36  C   UNL     1      -7.566  13.011  24.065  0.00  0.00    +0.000 A 
ATOM     37  C   UNL     1      -7.836  14.377  24.088  0.00  0.00    +0.000 A 
ATOM     38  C   UNL     1      -6.826  15.290  23.787  0.00  0.00    +0.000 A 
ATOM     39  C   UNL     1      -5.542  14.836  23.470  0.00  0.00    +0.000 A 
ENDBRANCH  31  34
ENDBRANCH  28  29
ENDBRANCH   6  28
TORSDOF 7
ENDMDL
MODEL 2
REMARK VINA RESULT:      -8.4      1.983      9.209
REMARK  Name = 
REMARK  8 active torsions:
REMARK  status: ('A' for Active; 'I' for Inactive)
REMARK    1  A    between atoms: C_1  and  N_2
REMARK    2  A    between atoms: C_5  and  O_6
REMARK    3  A    between atoms: O_6  and  C_7
REMARK    4  A    between atoms: C_9  and  N_10
REMARK    5  A    between atoms: C_13  and  C_14
REMARK    6  A    between atoms: N_21  and  C_22
REMARK    7  A    between atoms: C_22  and  C_23
REMARK    8  A    between atoms: C_25  and  C_26
REMARK                            x       y       z     vdW  Elec       q    Type
REMARK                         _______ _______ _______ _____ _____    ______ ____
ROOT
ATOM      1  C   UNL     1      -0.793  11.168  20.869  0.00  0.00    +0.000 A 
ATOM      2  C   UNL     1      -1.748  11.534  19.958  0.00  0.00    +0.000 A 
ATOM      3  C   UNL     1      -1.440  11.307  18.632  0.00  0.00    +0.000 A 
ATOM      4  N   UNL     1      -0.303  10.666  18.290  0.00  0.00    +0.000 NA
ATOM      5  C   UNL     1       0.566  10.346  19.252  0.00  0.00    +0.000 A 
ATOM      6  N   UNL     1       1.775   9.746  18.955  0.00  0.00    +0.000 N 
ATOM      7  N   UNL     1       0.378  10.619  20.536  0.00  0.00    +0.000 NA
ATOM      8  H   UNL     1       2.489  10.440  19.143  0.00  0.00    +0.000 HD
ENDROOT
BRANCH   3   9
ATOM      9  N   UNL     1      -2.322  11.788  17.635  0.00  0.00    +0.000 N 
ATOM     10  C   UNL     1      -3.674  11.736  17.616  0.00  0.00    +0.000 A 
ATOM     11  C   UNL     1      -4.524  11.591  18.735  0.00  0.00    +0.000 A 
ATOM     12  C   UNL     1      -5.781  11.412  18.217  0.00  0.00    +0.000 A 
ATOM     13  N   UNL     1      -5.649  11.562  16.871  0.00  0.00    +0.000 N 
ATOM     14  N   UNL     1      -4.375  11.768  16.478  0.00  0.00    +0.000 NA
ATOM     15  H   UNL     1      -1.910  11.806  16.711  0.00  0.00    +0.000 HD
ATOM     16  H   UNL     1      -6.372  11.513  16.165  0.00  0.00    +0.000 HD
BRANCH  12  17
ATOM     17  C   UNL     1      -7.007  11.068  19.031  0.00  0.00    +0.000 C 
ATOM     18  C   UNL     1      -6.966  11.175  20.535  0.00  0.00    +0.000 C 
ATOM     19  C   UNL     1      -7.714  12.194  19.749  0.00  0.00    +0.000 C 
ENDBRANCH  12  17
ENDBRANCH   3   9
BRANCH   1  20
ATOM     20  O   UNL     1      -1.090  11.358  22.201  0.00  0.00    +0.000 OA
BRANCH  20  25
ATOM     21  C   UNL     1      -3.591  15.598  24.941  0.00  0.00    +0.000 C 
ATOM     22  N   UNL     1      -2.808  14.445  24.496  0.00  0.00    +0.000 NA
ATOM     23  C   UNL     1      -3.692  13.409  23.948  0.00  0.00    +0.000 C 
ATOM     24  C   UNL     1      -2.896  12.186  23.510  0.00  0.00    +0.000 C 
ATOM     25  C   UNL     1      -1.825  12.562  22.484  0.00  0.00    +0.000 C 
ATOM     26  C   UNL     1      -0.938  13.665  23.074  0.00  0.00    +0.000 C 
ATOM     27  C   UNL     1      -1.787  14.855  23.521  0.00  0.00    +0.000 C 
ENDBRANCH  20  25
ENDBRANCH   1  20
BRANCH   6  28
ATOM     28  C   UNL     1       1.913   9.120  17.654  0.00  0.00    +0.000 C 
BRANCH  28  29
ATOM     29  C   UNL     1       2.586   7.799  17.767  0.00  0.00    +0.000 A 
ATOM     30  C   UNL     1       2.153   6.550  18.137  0.00  0.00    +0.000 A 
ATOM     31  C   UNL     1       3.310   5.729  18.080  0.00  0.00    +0.000 A 
ATOM     32  N   UNL     1       4.377   6.461  17.714  0.00  0.00    +0.000 NA
ATOM     33  O   UNL     1       3.918   7.750  17.512  0.00  0.00    +0.000 OA
BRANCH  31  34
ATOM     34  C   UNL     1       3.404   4.295  18.355  0.00  0.00    +0.000 A 
ATOM     35  C   UNL     1       4.173   3.828  19.432  0.00  0.00    +0.000 A 
ATOM     36  C   UNL     1       4.248   2.462  19.714  0.00  0.00    +0.000 A 
ATOM     37  C   UNL     1       3.560   1.547  18.920  0.00  0.00    +0.000 A 
ATOM     38  C   UNL     1       2.800   1.996  17.841  0.00  0.00    +0.000 A 
ATOM     39  C   UNL     1       2.721   3.363  17.561  0.00  0.00    +0.000 A 
ENDBRANCH  31  34
ENDBRANCH  28  29
ENDBRANCH   6  28
TORSDOF 7
ENDMDL
MODEL 3
REMARK VINA RESULT:      -8.3      1.619      9.104
REMARK  Name = 
REMARK  8 active torsions:
REMARK  status: ('A' for Active; 'I' for Inactive)
REMARK    1  A    between atoms: C_1  and  N_2
REMARK    2  A    between atoms: C_5  and  O_6
REMARK    3  A    between atoms: O_6  and  C_7
REMARK    4  A    between atoms: C_9  and  N_10
REMARK    5  A    between atoms: C_13  and  C_14
REMARK    6  A    between atoms: N_21  and  C_22
REMARK    7  A    between atoms: C_22  and  C_23
REMARK    8  A    between atoms: C_25  and  C_26
REMARK                            x       y       z     vdW  Elec       q    Type
REMARK                         _______ _______ _______ _____ _____    ______ ____
ROOT
ATOM      1  C   UNL     1      -0.678  12.114  20.724  0.00  0.00    +0.000 A 
ATOM      2  C   UNL     1      -1.687  12.225  19.806  0.00  0.00    +0.000 A 
ATOM      3  C   UNL     1      -1.436  11.689  18.560  0.00  0.00    +0.000 A 
ATOM      4  N   UNL     1      -0.295  11.008  18.321  0.00  0.00    +0.000 NA
ATOM      5  C   UNL     1       0.629  10.952  19.283  0.00  0.00    +0.000 A 
ATOM      6  N   UNL     1       1.842  10.323  19.074  0.00  0.00    +0.000 N 
ATOM      7  N   UNL     1       0.494  11.526  20.471  0.00  0.00    +0.000 NA
ATOM      8  H   UNL     1       2.540  11.059  19.049  0.00  0.00    +0.000 HD
ENDROOT
BRANCH   3   9
ATOM      9  N   UNL     1      -2.382  11.892  17.527  0.00  0.00    +0.000 N 
ATOM     10  C   UNL     1      -3.727  11.754  17.582  0.00  0.00    +0.000 A 
ATOM     11  C   UNL     1      -4.528  11.796  18.744  0.00  0.00    +0.000 A 
ATOM     12  C   UNL     1      -5.786  11.434  18.334  0.00  0.00    +0.000 A 
ATOM     13  N   UNL     1      -5.708  11.304  16.981  0.00  0.00    +0.000 N 
ATOM     14  N   UNL     1      -4.465  11.501  16.496  0.00  0.00    +0.000 NA
ATOM     15  H   UNL     1      -2.002  11.739  16.602  0.00  0.00    +0.000 HD
ATOM     16  H   UNL     1      -6.447  11.062  16.335  0.00  0.00    +0.000 HD
BRANCH  12  17
ATOM     17  C   UNL     1      -6.957  11.195  19.257  0.00  0.00    +0.000 C 
ATOM     18  C   UNL     1      -6.877  11.623  20.701  0.00  0.00    +0.000 C 
ATOM     19  C   UNL     1      -7.721  12.401  19.753  0.00  0.00    +0.000 C 
ENDBRANCH  12  17
ENDBRANCH   3   9
BRANCH   1  20
ATOM     20  O   UNL     1      -0.917  12.617  21.986  0.00  0.00    +0.000 OA
BRANCH  20  25
ATOM     21  C   UNL     1      -5.156  15.656  24.114  0.00  0.00    +0.000 C 
ATOM     22  N   UNL     1      -3.921  14.924  23.827  0.00  0.00    +0.000 NA
ATOM     23  C   UNL     1      -4.224  13.528  23.489  0.00  0.00    +0.000 C 
ATOM     24  C   UNL     1      -2.947  12.741  23.219  0.00  0.00    +0.000 C 
ATOM     25  C   UNL     1      -2.125  13.388  22.103  0.00  0.00    +0.000 C 
ATOM     26  C   UNL     1      -1.852  14.852  22.471  0.00  0.00    +0.000 C 
ATOM     27  C   UNL     1      -3.162  15.586  22.757  0.00  0.00    +0.000 C 
ENDBRANCH  20  25
ENDBRANCH   1  20
BRANCH   6  28
ATOM     28  C   UNL     1       1.939   9.403  17.958  0.00  0.00    +0.000 C 
BRANCH  28  29
ATOM     29  C   UNL     1       2.172   8.013  18.433  0.00  0.00    +0.000 A 
ATOM     30  C   UNL     1       2.500   6.842  17.796  0.00  0.00    +0.000 A 
ATOM     31  C   UNL     1       2.523   5.861  18.822  0.00  0.00    +0.000 A 
ATOM     32  N   UNL     1       2.205   6.420  20.002  0.00  0.00    +0.000 NA
ATOM     33  O   UNL     1       1.995   7.765  19.755  0.00  0.00    +0.000 OA
BRANCH  31  34
ATOM     34  C   UNL     1       2.843   4.439  18.692  0.00  0.00    +0.000 A 
ATOM     35  C   UNL     1       3.846   3.862  19.488  0.00  0.00    +0.000 A 
ATOM     36  C   UNL     1       4.140   2.500  19.385  0.00  0.00    +0.000 A 
ATOM     37  C   UNL     1       3.441   1.701  18.484  0.00  0.00    +0.000 A 
ATOM     38  C   UNL     1       2.450   2.263  17.681  0.00  0.00    +0.000 A 
ATOM     39  C   UNL     1       2.151   3.625  17.786  0.00  0.00    +0.000 A 
ENDBRANCH  31  34
ENDBRANCH  28  29
ENDBRANCH   6  28
TORSDOF 7
ENDMDL
MODEL 4
REMARK VINA RESULT:      -8.3      4.181     12.284
REMARK  Name = 
REMARK  8 active torsions:
REMARK  status: ('A' for Active; 'I' for Inactive)
REMARK    1  A    between atoms: C_1  and  N_2
REMARK    2  A    between atoms: C_5  and  O_6
REMARK    3  A    between atoms: O_6  and  C_7
REMARK    4  A    between atoms: C_9  and  N_10
REMARK    5  A    between atoms: C_13  and  C_14
REMARK    6  A    between atoms: N_21  and  C_22
REMARK    7  A    between atoms: C_22  and  C_23
REMARK    8  A    between atoms: C_25  and  C_26
REMARK                            x       y       z     vdW  Elec       q    Type
REMARK                         _______ _______ _______ _____ _____    ______ ____
ROOT
ATOM      1  C   UNL     1       1.655   8.961  18.536  0.00  0.00    +0.000 A 
ATOM      2  C   UNL     1       1.469   8.141  19.616  0.00  0.00    +0.000 A 
ATOM      3  C   UNL     1       2.324   7.063  19.714  0.00  0.00    +0.000 A 
ATOM      4  N   UNL     1       3.342   6.909  18.840  0.00  0.00    +0.000 NA
ATOM      5  C   UNL     1       3.442   7.765  17.820  0.00  0.00    +0.000 A 
ATOM      6  N   UNL     1       4.425   7.619  16.858  0.00  0.00    +0.000 N 
ATOM      7  N   UNL     1       2.599   8.766  17.610  0.00  0.00    +0.000 NA
ATOM      8  H   UNL     1       3.948   7.338  16.008  0.00  0.00    +0.000 HD
ENDROOT
BRANCH   3   9
ATOM      9  N   UNL     1       2.097   6.102  20.728  0.00  0.00    +0.000 N 
ATOM     10  C   UNL     1       2.089   4.753  20.619  0.00  0.00    +0.000 A 
ATOM     11  C   UNL     1       2.709   3.989  19.606  0.00  0.00    +0.000 A 
ATOM     12  C   UNL     1       2.284   2.701  19.809  0.00  0.00    +0.000 A 
ATOM     13  N   UNL     1       1.548   2.733  20.953  0.00  0.00    +0.000 N 
ATOM     14  N   UNL     1       1.419   3.971  21.472  0.00  0.00    +0.000 NA
ATOM     15  H   UNL     1       1.515   6.445  21.481  0.00  0.00    +0.000 HD
ATOM     16  H   UNL     1       1.088   1.962  21.420  0.00  0.00    +0.000 HD
BRANCH  12  17
ATOM     17  C   UNL     1       2.570   1.543  18.880  0.00  0.00    +0.000 C 
ATOM     18  C   UNL     1       3.178   1.799  17.524  0.00  0.00    +0.000 C 
ATOM     19  C   UNL     1       4.016   1.205  18.601  0.00  0.00    +0.000 C 
ENDBRANCH  12  17
ENDBRANCH   3   9
BRANCH   1  20
ATOM     20  O   UNL     1       0.832  10.061  18.432  0.00  0.00    +0.000 OA
BRANCH  20  25
ATOM     21  C   UNL     1      -0.170  14.217  22.101  0.00  0.00    +0.000 C 
ATOM     22  N   UNL     1      -0.033  13.328  20.947  0.00  0.00    +0.000 NA
ATOM     23  C   UNL     1       1.371  12.937  20.770  0.00  0.00    +0.000 C 
ATOM     24  C   UNL     1       1.539  12.037  19.552  0.00  0.00    +0.000 C 
ATOM     25  C   UNL     1       0.655  10.794  19.657  0.00  0.00    +0.000 C 
ATOM     26  C   UNL     1      -0.798  11.234  19.872  0.00  0.00    +0.000 C 
ATOM     27  C   UNL     1      -0.906  12.154  21.088  0.00  0.00    +0.000 C 
ENDBRANCH  20  25
ENDBRANCH   1  20
BRANCH   6  28
ATOM     28  C   UNL     1       5.563   6.781  17.181  0.00  0.00    +0.000 C 
BRANCH  28  29
ATOM     29  C   UNL     1       5.999   5.996  15.996  0.00  0.00    +0.000 A 
ATOM     30  C   UNL     1       5.336   5.191  15.103  0.00  0.00    +0.000 A 
ATOM     31  C   UNL     1       6.344   4.698  14.235  0.00  0.00    +0.000 A 
ATOM     32  N   UNL     1       7.546   5.171  14.608  0.00  0.00    +0.000 NA
ATOM     33  O   UNL     1       7.323   5.987  15.702  0.00  0.00    +0.000 OA
BRANCH  31  34
ATOM     34  C   UNL     1       6.177   3.812  13.082  0.00  0.00    +0.000 A 
ATOM     35  C   UNL     1       7.299   3.317  12.399  0.00  0.00    +0.000 A 
ATOM     36  C   UNL     1       7.147   2.452  11.313  0.00  0.00    +0.000 A 
ATOM     37  C   UNL     1       5.873   2.078  10.892  0.00  0.00    +0.000 A 
ATOM     38  C   UNL     1       4.750   2.569  11.555  0.00  0.00    +0.000 A 
ATOM     39  C   UNL     1       4.901   3.431  12.646  0.00  0.00    +0.000 A 
ENDBRANCH  31  34
ENDBRANCH  28  29
ENDBRANCH   6  28
TORSDOF 7
ENDMDL
MODEL 5
REMARK VINA RESULT:      -8.2      3.041      8.964
REMARK  Name = 
REMARK  8 active torsions:
REMARK  status: ('A' for Active; 'I' for Inactive)
REMARK    1  A    between atoms: C_1  and  N_2
REMARK    2  A    between atoms: C_5  and  O_6
REMARK    3  A    between atoms: O_6  and  C_7
REMARK    4  A    between atoms: C_9  and  N_10
REMARK    5  A    between atoms: C_13  and  C_14
REMARK    6  A    between atoms: N_21  and  C_22
REMARK    7  A    between atoms: C_22  and  C_23
REMARK    8  A    between atoms: C_25  and  C_26
REMARK                            x       y       z     vdW  Elec       q    Type
REMARK                         _______ _______ _______ _____ _____    ______ ____
ROOT
ATOM      1  C   UNL     1       0.689  12.684  20.336  0.00  0.00    +0.000 A 
ATOM      2  C   UNL     1      -0.025  12.511  19.181  0.00  0.00    +0.000 A 
ATOM      3  C   UNL     1      -0.258  11.205  18.802  0.00  0.00    +0.000 A 
ATOM      4  N   UNL     1       0.116  10.180  19.598  0.00  0.00    +0.000 NA
ATOM      5  C   UNL     1       0.806  10.452  20.708  0.00  0.00    +0.000 A 
ATOM      6  N   UNL     1       1.271   9.440  21.527  0.00  0.00    +0.000 N 
ATOM      7  N   UNL     1       1.148  11.677  21.082  0.00  0.00    +0.000 NA
ATOM      8  H   UNL     1       2.280   9.434  21.423  0.00  0.00    +0.000 HD
ENDROOT
BRANCH   3   9
ATOM      9  N   UNL     1      -0.870  10.956  17.550  0.00  0.00    +0.000 N 
ATOM     10  C   UNL     1      -2.187  10.969  17.242  0.00  0.00    +0.000 A 
ATOM     11  C   UNL     1      -3.209  11.633  17.956  0.00  0.00    +0.000 A 
ATOM     12  C   UNL     1      -4.384  11.219  17.383  0.00  0.00    +0.000 A 
ATOM     13  N   UNL     1      -4.022  10.444  16.323  0.00  0.00    +0.000 N 
ATOM     14  N   UNL     1      -2.688  10.281  16.211  0.00  0.00    +0.000 NA
ATOM     15  H   UNL     1      -0.326  10.345  16.954  0.00  0.00    +0.000 HD
ATOM     16  H   UNL     1      -4.624   9.978  15.657  0.00  0.00    +0.000 HD
BRANCH  12  17
ATOM     17  C   UNL     1      -5.762  11.551  17.905  0.00  0.00    +0.000 C 
ATOM     18  C   UNL     1      -5.980  12.809  18.707  0.00  0.00    +0.000 C 
ATOM     19  C   UNL     1      -6.475  12.740  17.305  0.00  0.00    +0.000 C 
ENDBRANCH  12  17
ENDBRANCH   3   9
BRANCH   1  20
ATOM     20  O   UNL     1       0.910  13.981  20.750  0.00  0.00    +0.000 OA
BRANCH  20  25
ATOM     21  C   UNL     1       5.365  17.371  20.115  0.00  0.00    +0.000 C 
ATOM     22  N   UNL     1       4.073  16.739  20.387  0.00  0.00    +0.000 NA
ATOM     23  C   UNL     1       3.536  16.130  19.164  0.00  0.00    +0.000 C 
ATOM     24  C   UNL     1       2.174  15.496  19.421  0.00  0.00    +0.000 C 
ATOM     25  C   UNL     1       2.252  14.454  20.539  0.00  0.00    +0.000 C 
ATOM     26  C   UNL     1       2.844  15.113  21.791  0.00  0.00    +0.000 C 
ATOM     27  C   UNL     1       4.194  15.755  21.472  0.00  0.00    +0.000 C 
ENDBRANCH  20  25
ENDBRANCH   1  20
BRANCH   6  28
ATOM     28  C   UNL     1       0.672   8.128  21.381  0.00  0.00    +0.000 C 
BRANCH  28  29
ATOM     29  C   UNL     1       1.521   7.245  20.538  0.00  0.00    +0.000 A 
ATOM     30  C   UNL     1       2.243   7.450  19.389  0.00  0.00    +0.000 A 
ATOM     31  C   UNL     1       2.791   6.181  19.069  0.00  0.00    +0.000 A 
ATOM     32  N   UNL     1       2.396   5.267  19.972  0.00  0.00    +0.000 NA
ATOM     33  O   UNL     1       1.611   5.938  20.892  0.00  0.00    +0.000 OA
BRANCH  31  34
ATOM     34  C   UNL     1       3.667   5.842  17.947  0.00  0.00    +0.000 A 
ATOM     35  C   UNL     1       4.341   6.852  17.242  0.00  0.00    +0.000 A 
ATOM     36  C   UNL     1       5.197   6.533  16.185  0.00  0.00    +0.000 A 
ATOM     37  C   UNL     1       5.384   5.203  15.816  0.00  0.00    +0.000 A 
ATOM     38  C   UNL     1       4.714   4.191  16.501  0.00  0.00    +0.000 A 
ATOM     39  C   UNL     1       3.861   4.508  17.562  0.00  0.00    +0.000 A 
ENDBRANCH  31  34
ENDBRANCH  28  29
ENDBRANCH   6  28
TORSDOF 7
ENDMDL
MODEL 6
REMARK VINA RESULT:      -8.2      3.003      9.510
REMARK  Name = 
REMARK  8 active torsions:
REMARK  status: ('A' for Active; 'I' for Inactive)
REMARK    1  A    between atoms: C_1  and  N_2
REMARK    2  A    between atoms: C_5  and  O_6
REMARK    3  A    between atoms: O_6  and  C_7
REMARK    4  A    between atoms: C_9  and  N_10
REMARK    5  A    between atoms: C_13  and  C_14
REMARK    6  A    between atoms: N_21  and  C_22
REMARK    7  A    between atoms: C_22  and  C_23
REMARK    8  A    between atoms: C_25  and  C_26
REMARK                            x       y       z     vdW  Elec       q    Type
REMARK                         _______ _______ _______ _____ _____    ______ ____
ROOT
ATOM      1  C   UNL     1       0.816  11.519  20.978  0.00  0.00    +0.000 A 
ATOM      2  C   UNL     1       0.071  11.571  19.831  0.00  0.00    +0.000 A 
ATOM      3  C   UNL     1      -0.089  10.378  19.157  0.00  0.00    +0.000 A 
ATOM      4  N   UNL     1       0.383   9.225  19.676  0.00  0.00    +0.000 NA
ATOM      5  C   UNL     1       1.096   9.277  20.804  0.00  0.00    +0.000 A 
ATOM      6  N   UNL     1       1.659   8.137  21.348  0.00  0.00    +0.000 N 
ATOM      7  N   UNL     1       1.370  10.400  21.453  0.00  0.00    +0.000 NA
ATOM      8  H   UNL     1       2.661   8.230  21.223  0.00  0.00    +0.000 HD
ENDROOT
BRANCH   3   9
ATOM      9  N   UNL     1      -0.730  10.389  17.895  0.00  0.00    +0.000 N 
ATOM     10  C   UNL     1      -2.003  10.742  17.603  0.00  0.00    +0.000 A 
ATOM     11  C   UNL     1      -2.844  11.568  18.381  0.00  0.00    +0.000 A 
ATOM     12  C   UNL     1      -4.077  11.497  17.788  0.00  0.00    +0.000 A 
ATOM     13  N   UNL     1      -3.901  10.749  16.664  0.00  0.00    +0.000 N 
ATOM     14  N   UNL     1      -2.644  10.283  16.523  0.00  0.00    +0.000 NA
ATOM     15  H   UNL     1      -0.343   9.717  17.244  0.00  0.00    +0.000 HD
ATOM     16  H   UNL     1      -4.591  10.499  15.968  0.00  0.00    +0.000 HD
BRANCH  12  17
ATOM     17  C   UNL     1      -5.341  12.104  18.351  0.00  0.00    +0.000 C 
ATOM     18  C   UNL     1      -6.687  11.599  17.895  0.00  0.00    +0.000 C 
ATOM     19  C   UNL     1      -6.194  11.242  19.253  0.00  0.00    +0.000 C 
ENDBRANCH  12  17
ENDBRANCH   3   9
BRANCH   1  20
ATOM     20  O   UNL     1       0.966  12.693  21.685  0.00  0.00    +0.000 OA
BRANCH  20  25
ATOM     21  C   UNL     1       2.069  17.963  20.027  0.00  0.00    +0.000 C 
ATOM     22  N   UNL     1       1.925  16.678  20.712  0.00  0.00    +0.000 NA
ATOM     23  C   UNL     1       0.508  16.303  20.796  0.00  0.00    +0.000 C 
ATOM     24  C   UNL     1       0.335  14.982  21.536  0.00  0.00    +0.000 C 
ATOM     25  C   UNL     1       1.138  13.865  20.868  0.00  0.00    +0.000 C 
ATOM     26  C   UNL     1       2.605  14.299  20.767  0.00  0.00    +0.000 C 
ATOM     27  C   UNL     1       2.719  15.639  20.041  0.00  0.00    +0.000 C 
ENDBRANCH  20  25
ENDBRANCH   1  20
BRANCH   6  28
ATOM     28  C   UNL     1       1.143   6.856  20.906  0.00  0.00    +0.000 C 
BRANCH  28  29
ATOM     29  C   UNL     1       2.204   6.057  20.238  0.00  0.00    +0.000 A 
ATOM     30  C   UNL     1       3.145   6.351  19.283  0.00  0.00    +0.000 A 
ATOM     31  C   UNL     1       3.821   5.126  19.044  0.00  0.00    +0.000 A 
ATOM     32  N   UNL     1       3.292   4.152  19.805  0.00  0.00    +0.000 NA
ATOM     33  O   UNL     1       2.289   4.740  20.554  0.00  0.00    +0.000 OA
BRANCH  31  34
ATOM     34  C   UNL     1       4.937   4.884  18.130  0.00  0.00    +0.000 A 
ATOM     35  C   UNL     1       4.706   4.352  16.852  0.00  0.00    +0.000 A 
ATOM     36  C   UNL     1       5.765   4.140  15.966  0.00  0.00    +0.000 A 
ATOM     37  C   UNL     1       7.068   4.452  16.349  0.00  0.00    +0.000 A 
ATOM     38  C   UNL     1       7.313   4.972  17.618  0.00  0.00    +0.000 A 
ATOM     39  C   UNL     1       6.253   5.189  18.504  0.00  0.00    +0.000 A 
ENDBRANCH  31  34
ENDBRANCH  28  29
ENDBRANCH   6  28
TORSDOF 7
ENDMDL
MODEL 7
REMARK VINA RESULT:      -8.2      1.708      8.824
REMARK  Name = 
REMARK  8 active torsions:
REMARK  status: ('A' for Active; 'I' for Inactive)
REMARK    1  A    between atoms: C_1  and  N_2
REMARK    2  A    between atoms: C_5  and  O_6
REMARK    3  A    between atoms: O_6  and  C_7
REMARK    4  A    between atoms: C_9  and  N_10
REMARK    5  A    between atoms: C_13  and  C_14
REMARK    6  A    between atoms: N_21  and  C_22
REMARK    7  A    between atoms: C_22  and  C_23
REMARK    8  A    between atoms: C_25  and  C_26
REMARK                            x       y       z     vdW  Elec       q    Type
REMARK                         _______ _______ _______ _____ _____    ______ ____
ROOT
ATOM      1  C   UNL     1      -0.555  11.949  20.657  0.00  0.00    +0.000 A 
ATOM      2  C   UNL     1      -1.561  12.102  19.742  0.00  0.00    +0.000 A 
ATOM      3  C   UNL     1      -1.303  11.627  18.472  0.00  0.00    +0.000 A 
ATOM      4  N   UNL     1      -0.159  10.963  18.205  0.00  0.00    +0.000 NA
ATOM      5  C   UNL     1       0.762  10.863  19.167  0.00  0.00    +0.000 A 
ATOM      6  N   UNL     1       1.979  10.250  18.932  0.00  0.00    +0.000 N 
ATOM      7  N   UNL     1       0.620  11.379  20.380  0.00  0.00    +0.000 NA
ATOM      8  H   UNL     1       2.674  10.989  18.946  0.00  0.00    +0.000 HD
ENDROOT
BRANCH   3   9
ATOM      9  N   UNL     1      -2.245  11.877  17.446  0.00  0.00    +0.000 N 
ATOM     10  C   UNL     1      -3.586  11.697  17.476  0.00  0.00    +0.000 A 
ATOM     11  C   UNL     1      -4.398  11.633  18.630  0.00  0.00    +0.000 A 
ATOM     12  C   UNL     1      -5.641  11.266  18.182  0.00  0.00    +0.000 A 
ATOM     13  N   UNL     1      -5.548  11.235  16.824  0.00  0.00    +0.000 N 
ATOM     14  N   UNL     1      -4.307  11.502  16.367  0.00  0.00    +0.000 NA
ATOM     15  H   UNL     1      -1.853  11.802  16.516  0.00  0.00    +0.000 HD
ATOM     16  H   UNL     1      -6.274  11.019  16.154  0.00  0.00    +0.000 HD
BRANCH  12  17
ATOM     17  C   UNL     1      -6.813  10.927  19.073  0.00  0.00    +0.000 C 
ATOM     18  C   UNL     1      -6.801  11.343  20.522  0.00  0.00    +0.000 C 
ATOM     19  C   UNL     1      -7.678  12.066  19.562  0.00  0.00    +0.000 C 
ENDBRANCH  12  17
ENDBRANCH   3   9
BRANCH   1  20
ATOM     20  O   UNL     1      -0.801  12.389  21.941  0.00  0.00    +0.000 OA
BRANCH  20  25
ATOM     21  C   UNL     1      -4.931  15.521  24.147  0.00  0.00    +0.000 C 
ATOM     22  N   UNL     1      -3.729  14.743  23.846  0.00  0.00    +0.000 NA
ATOM     23  C   UNL     1      -4.095  13.387  23.418  0.00  0.00    +0.000 C 
ATOM     24  C   UNL     1      -2.854  12.550  23.132  0.00  0.00    +0.000 C 
ATOM     25  C   UNL     1      -1.970  13.216  22.075  0.00  0.00    +0.000 C 
ATOM     26  C   UNL     1      -1.631  14.639  22.537  0.00  0.00    +0.000 C 
ATOM     27  C   UNL     1      -2.908  15.424  22.835  0.00  0.00    +0.000 C 
ENDBRANCH  20  25
ENDBRANCH   1  20
BRANCH   6  28
ATOM     28  C   UNL     1       2.084   9.385  17.773  0.00  0.00    +0.000 C 
BRANCH  28  29
ATOM     29  C   UNL     1       2.501   8.014  18.169  0.00  0.00    +0.000 A 
ATOM     30  C   UNL     1       2.103   7.159  19.166  0.00  0.00    +0.000 A 
ATOM     31  C   UNL     1       2.936   6.018  19.025  0.00  0.00    +0.000 A 
ATOM     32  N   UNL     1       3.796   6.198  18.008  0.00  0.00    +0.000 NA
ATOM     33  O   UNL     1       3.514   7.442  17.471  0.00  0.00    +0.000 OA
BRANCH  31  34
ATOM     34  C   UNL     1       2.915   4.792  19.822  0.00  0.00    +0.000 A 
ATOM     35  C   UNL     1       3.809   3.747  19.541  0.00  0.00    +0.000 A 
ATOM     36  C   UNL     1       3.810   2.583  20.313  0.00  0.00    +0.000 A 
ATOM     37  C   UNL     1       2.914   2.446  21.371  0.00  0.00    +0.000 A 
ATOM     38  C   UNL     1       2.014   3.472  21.656  0.00  0.00    +0.000 A 
ATOM     39  C   UNL     1       2.016   4.640  20.887  0.00  0.00    +0.000 A 
ENDBRANCH  31  34
ENDBRANCH  28  29
ENDBRANCH   6  28
TORSDOF 7
ENDMDL
MODEL 8
REMARK VINA RESULT:      -8.1      1.793      8.696
REMARK  Name = 
REMARK  8 active torsions:
REMARK  status: ('A' for Active; 'I' for Inactive)
REMARK    1  A    between atoms: C_1  and  N_2
REMARK    2  A    between atoms: C_5  and  O_6
REMARK    3  A    between atoms: O_6  and  C_7
REMARK    4  A    between atoms: C_9  and  N_10
REMARK    5  A    between atoms: C_13  and  C_14
REMARK    6  A    between atoms: N_21  and  C_22
REMARK    7  A    between atoms: C_22  and  C_23
REMARK    8  A    between atoms: C_25  and  C_26
REMARK                            x       y       z     vdW  Elec       q    Type
REMARK                         _______ _______ _______ _____ _____    ______ ____
ROOT
ATOM      1  C   UNL     1      -1.034  11.567  20.930  0.00  0.00    +0.000 A 
ATOM      2  C   UNL     1      -1.993  11.744  19.969  0.00  0.00    +0.000 A 
ATOM      3  C   UNL     1      -1.590  11.545  18.665  0.00  0.00    +0.000 A 
ATOM      4  N   UNL     1      -0.346  11.100  18.390  0.00  0.00    +0.000 NA
ATOM      5  C   UNL     1       0.518  10.955  19.397  0.00  0.00    +0.000 A 
ATOM      6  N   UNL     1       1.825  10.564  19.168  0.00  0.00    +0.000 N 
ATOM      7  N   UNL     1       0.227  11.219  20.663  0.00  0.00    +0.000 NA
ATOM      8  H   UNL     1       2.401  11.375  19.366  0.00  0.00    +0.000 HD
ENDROOT
BRANCH   3   9
ATOM      9  N   UNL     1      -2.494  11.846  17.618  0.00  0.00    +0.000 N 
ATOM     10  C   UNL     1      -3.846  11.791  17.636  0.00  0.00    +0.000 A 
ATOM     11  C   UNL     1      -4.673  11.842  18.780  0.00  0.00    +0.000 A 
ATOM     12  C   UNL     1      -5.940  11.576  18.327  0.00  0.00    +0.000 A 
ATOM     13  N   UNL     1      -5.835  11.491  16.972  0.00  0.00    +0.000 N 
ATOM     14  N   UNL     1      -4.570  11.626  16.524  0.00  0.00    +0.000 NA
ATOM     15  H   UNL     1      -2.101  11.703  16.697  0.00  0.00    +0.000 HD
ATOM     16  H   UNL     1      -6.571  11.320  16.300  0.00  0.00    +0.000 HD
BRANCH  12  17
ATOM     17  C   UNL     1      -7.148  11.379  19.213  0.00  0.00    +0.000 C 
ATOM     18  C   UNL     1      -7.016  11.523  20.708  0.00  0.00    +0.000 C 
ATOM     19  C   UNL     1      -7.702  12.589  19.928  0.00  0.00    +0.000 C 
ENDBRANCH  12  17
ENDBRANCH   3   9
BRANCH   1  20
ATOM     20  O   UNL     1      -1.420  11.732  22.243  0.00  0.00    +0.000 OA
BRANCH  20  25
ATOM     21  C   UNL     1      -3.721  16.099  24.958  0.00  0.00    +0.000 C 
ATOM     22  N   UNL     1      -3.001  14.902  24.523  0.00  0.00    +0.000 NA
ATOM     23  C   UNL     1      -3.934  13.932  23.936  0.00  0.00    +0.000 C 
ATOM     24  C   UNL     1      -3.208  12.664  23.507  0.00  0.00    +0.000 C 
ATOM     25  C   UNL     1      -2.083  12.979  22.518  0.00  0.00    +0.000 C 
ATOM     26  C   UNL     1      -1.144  14.015  23.148  0.00  0.00    +0.000 C 
ATOM     27  C   UNL     1      -1.927  15.253  23.584  0.00  0.00    +0.000 C 
ENDBRANCH  20  25
ENDBRANCH   1  20
BRANCH   6  28
ATOM     28  C   UNL     1       2.127   9.944  17.893  0.00  0.00    +0.000 C 
BRANCH  28  29
ATOM     29  C   UNL     1       2.335   8.479  18.049  0.00  0.00    +0.000 A 
ATOM     30  C   UNL     1       1.652   7.498  18.724  0.00  0.00    +0.000 A 
ATOM     31  C   UNL     1       2.404   6.314  18.508  0.00  0.00    +0.000 A 
ATOM     32  N   UNL     1       3.487   6.585  17.760  0.00  0.00    +0.000 NA
ATOM     33  O   UNL     1       3.435   7.936  17.469  0.00  0.00    +0.000 OA
BRANCH  31  34
ATOM     34  C   UNL     1       2.104   4.964  18.988  0.00  0.00    +0.000 A 
ATOM     35  C   UNL     1       2.032   4.700  20.365  0.00  0.00    +0.000 A 
ATOM     36  C   UNL     1       1.724   3.419  20.829  0.00  0.00    +0.000 A 
ATOM     37  C   UNL     1       1.490   2.386  19.924  0.00  0.00    +0.000 A 
ATOM     38  C   UNL     1       1.567   2.632  18.554  0.00  0.00    +0.000 A 
ATOM     39  C   UNL     1       1.871   3.915  18.088  0.00  0.00    +0.000 A 
ENDBRANCH  31  34
ENDBRANCH  28  29
ENDBRANCH   6  28
TORSDOF 7
ENDMDL
MODEL 9
REMARK VINA RESULT:      -8.1      2.242      9.416
REMARK  Name = 
REMARK  8 active torsions:
REMARK  status: ('A' for Active; 'I' for Inactive)
REMARK    1  A    between atoms: C_1  and  N_2
REMARK    2  A    between atoms: C_5  and  O_6
REMARK    3  A    between atoms: O_6  and  C_7
REMARK    4  A    between atoms: C_9  and  N_10
REMARK    5  A    between atoms: C_13  and  C_14
REMARK    6  A    between atoms: N_21  and  C_22
REMARK    7  A    between atoms: C_22  and  C_23
REMARK    8  A    between atoms: C_25  and  C_26
REMARK                            x       y       z     vdW  Elec       q    Type
REMARK                         _______ _______ _______ _____ _____    ______ ____
ROOT
ATOM      1  C   UNL     1       0.063  12.660  21.155  0.00  0.00    +0.000 A 
ATOM      2  C   UNL     1      -0.624  12.732  19.974  0.00  0.00    +0.000 A 
ATOM      3  C   UNL     1      -0.621  11.590  19.200  0.00  0.00    +0.000 A 
ATOM      4  N   UNL     1      -0.055  10.452  19.655  0.00  0.00    +0.000 NA
ATOM      5  C   UNL     1       0.591  10.481  20.823  0.00  0.00    +0.000 A 
ATOM      6  N   UNL     1       1.244   9.364  21.308  0.00  0.00    +0.000 N 
ATOM      7  N   UNL     1       0.709  11.568  21.573  0.00  0.00    +0.000 NA
ATOM      8  H   UNL     1       2.236   9.569  21.251  0.00  0.00    +0.000 HD
ENDROOT
BRANCH   3   9
ATOM      9  N   UNL     1      -1.196  11.640  17.907  0.00  0.00    +0.000 N 
ATOM     10  C   UNL     1      -2.492  11.473  17.558  0.00  0.00    +0.000 A 
ATOM     11  C   UNL     1      -3.615  11.634  18.399  0.00  0.00    +0.000 A 
ATOM     12  C   UNL     1      -4.686  11.191  17.667  0.00  0.00    +0.000 A 
ATOM     13  N   UNL     1      -4.192  10.901  16.432  0.00  0.00    +0.000 N 
ATOM     14  N   UNL     1      -2.858  11.071  16.336  0.00  0.00    +0.000 NA
ATOM     15  H   UNL     1      -0.548  11.387  17.172  0.00  0.00    +0.000 HD
ATOM     16  H   UNL     1      -4.696  10.561  15.623  0.00  0.00    +0.000 HD
BRANCH  12  17
ATOM     17  C   UNL     1      -6.090  11.034  18.203  0.00  0.00    +0.000 C 
ATOM     18  C   UNL     1      -6.527  11.820  19.413  0.00  0.00    +0.000 C 
ATOM     19  C   UNL     1      -7.031  12.208  18.068  0.00  0.00    +0.000 C 
ENDBRANCH  12  17
ENDBRANCH   3   9
BRANCH   1  20
ATOM     20  O   UNL     1       0.051  13.780  21.960  0.00  0.00    +0.000 OA
BRANCH  20  25
ATOM     21  C   UNL     1      -4.236  16.282  24.623  0.00  0.00    +0.000 C 
ATOM     22  N   UNL     1      -2.951  15.789  24.125  0.00  0.00    +0.000 NA
ATOM     23  C   UNL     1      -2.910  14.324  24.188  0.00  0.00    +0.000 C 
ATOM     24  C   UNL     1      -1.566  13.793  23.705  0.00  0.00    +0.000 C 
ATOM     25  C   UNL     1      -1.263  14.269  22.283  0.00  0.00    +0.000 C 
ATOM     26  C   UNL     1      -1.343  15.800  22.244  0.00  0.00    +0.000 C 
ATOM     27  C   UNL     1      -2.699  16.279  22.763  0.00  0.00    +0.000 C 
ENDBRANCH  20  25
ENDBRANCH   1  20
BRANCH   6  28
ATOM     28  C   UNL     1       0.891   8.078  20.738  0.00  0.00    +0.000 C 
BRANCH  28  29
ATOM     29  C   UNL     1       1.832   7.702  19.649  0.00  0.00    +0.000 A 
ATOM     30  C   UNL     1       2.627   6.606  19.428  0.00  0.00    +0.000 A 
ATOM     31  C   UNL     1       3.321   6.892  18.223  0.00  0.00    +0.000 A 
ATOM     32  N   UNL     1       2.968   8.107  17.766  0.00  0.00    +0.000 NA
ATOM     33  O   UNL     1       2.033   8.604  18.655  0.00  0.00    +0.000 OA
BRANCH  31  34
ATOM     34  C   UNL     1       4.282   6.042  17.521  0.00  0.00    +0.000 A 
ATOM     35  C   UNL     1       5.482   6.582  17.031  0.00  0.00    +0.000 A 
ATOM     36  C   UNL     1       6.415   5.771  16.380  0.00  0.00    +0.000 A 
ATOM     37  C   UNL     1       6.157   4.413  16.205  0.00  0.00    +0.000 A 
ATOM     38  C   UNL     1       4.965   3.866  16.677  0.00  0.00    +0.000 A 
ATOM     39  C   UNL     1       4.033   4.676  17.334  0.00  0.00    +0.000 A 
ENDBRANCH  31  34
ENDBRANCH  28  29
ENDBRANCH   6  28
TORSDOF 7
ENDMDL
