MODEL 1
REMARK VINA RESULT:      -9.7      0.000      0.000
REMARK  Name = 
REMARK  5 active torsions:
REMARK  status: ('A' for Active; 'I' for Inactive)
REMARK    1  A    between atoms: C_1  and  C_2
REMARK    2  A    between atoms: C_6  and  C_7
REMARK    3  A    between atoms: N_9  and  C_10
REMARK    4  A    between atoms: C_16  and  C_17
REMARK    5  A    between atoms: C_18  and  C_19
REMARK                            x       y       z     vdW  Elec       q    Type
REMARK                         _______ _______ _______ _____ _____    ______ ____
ROOT
ATOM      1  C   UNL     1       3.102   3.868  18.471  0.00  0.00    +0.000 C 
ATOM      2  C   UNL     1       1.836   3.026  18.157  0.00  0.00    +0.000 C 
ATOM      3  C   UNL     1       0.952   2.878  19.404  0.00  0.00    +0.000 C 
ATOM      4  C   UNL     1       1.745   2.156  20.501  0.00  0.00    +0.000 C 
ATOM      5  C   UNL     1       3.004   2.964  20.855  0.00  0.00    +0.000 C 
ATOM      6  C   UNL     1       2.577   4.349  21.369  0.00  0.00    +0.000 C 
ATOM      7  C   UNL     1       1.795   5.096  20.271  0.00  0.00    +0.000 C 
ATOM      8  C   UNL     1       0.542   4.276  19.894  0.00  0.00    +0.000 C 
ATOM      9  C   UNL     1       2.687   5.252  19.025  0.00  0.00    +0.000 C 
ATOM     10  C   UNL     1       3.880   3.131  19.596  0.00  0.00    +0.000 C 
ENDROOT
BRANCH   1  13
ATOM     11  C   UNL     1       5.212   4.574  17.294  0.00  0.00    +0.000 C 
ATOM     12  O   UNL     1       5.764   5.017  18.297  0.00  0.00    +0.000 OA
ATOM     13  N   UNL     1       3.946   4.015  17.280  0.00  0.00    +0.000 N 
ATOM     14  H   UNL     1       3.640   3.639  16.386  0.00  0.00    +0.000 HD
BRANCH  11  20
ATOM     15  C   UNL     1       5.477   3.333  12.582  0.00  0.00    +0.000 C 
ATOM     16  C   UNL     1       6.041   4.055  13.764  0.00  0.00    +0.000 A 
ATOM     17  C   UNL     1       7.218   4.797  13.657  0.00  0.00    +0.000 A 
ATOM     18  N   UNL     1       7.766   5.467  14.697  0.00  0.00    +0.000 NA
ATOM     19  C   UNL     1       7.087   5.364  15.867  0.00  0.00    +0.000 A 
ATOM     20  C   UNL     1       5.914   4.632  15.984  0.00  0.00    +0.000 A 
ATOM     21  N   UNL     1       5.366   3.953  14.938  0.00  0.00    +0.000 NA
ENDBRANCH  11  20
ENDBRANCH   1  13
BRANCH   7  22
ATOM     22  C   UNL     1       1.374   6.469  20.771  0.00  0.00    +0.000 C 
ATOM     23  C   UNL     1       1.012   7.646  21.199  0.00  0.00    +0.000 C 
BRANCH  23  24
ATOM     24  C   UNL     1       0.557   8.927  21.635  0.00  0.00    +0.000 A 
ATOM     25  C   UNL     1      -0.371   9.041  22.666  0.00  0.00    +0.000 A 
ATOM     26  C   UNL     1      -0.843  10.302  23.026  0.00  0.00    +0.000 A 
ATOM     27  C   UNL     1      -0.361  11.406  22.338  0.00  0.00    +0.000 A 
ATOM     28  N   UNL     1       0.553  11.333  21.346  0.00  0.00    +0.000 NA
ATOM     29  C   UNL     1       0.993  10.092  21.019  0.00  0.00    +0.000 A 
ENDBRANCH  23  24
ENDBRANCH   7  22
TORSDOF 4
ENDMDL
MODEL 2
REMARK VINA RESULT:      -8.8      1.608      8.202
REMARK  Name = 
REMARK  5 active torsions:
REMARK  status: ('A' for Active; 'I' for Inactive)
REMARK    1  A    between atoms: C_1  and  C_2
REMARK    2  A    between atoms: C_6  and  C_7
REMARK    3  A    between atoms: N_9  and  C_10
REMARK    4  A    between atoms: C_16  and  C_17
REMARK    5  A    between atoms: C_18  and  C_19
REMARK                            x       y       z     vdW  Elec       q    Type
REMARK                         _______ _______ _______ _____ _____    ______ ____
ROOT
ATOM      1  C   UNL     1       1.861   5.067  20.307  0.00  0.00    +0.000 C 
ATOM      2  C   UNL     1       2.624   4.274  21.402  0.00  0.00    +0.000 C 
ATOM      3  C   UNL     1       3.075   2.904  20.876  0.00  0.00    +0.000 C 
ATOM      4  C   UNL     1       1.839   2.089  20.471  0.00  0.00    +0.000 C 
ATOM      5  C   UNL     1       1.059   2.832  19.373  0.00  0.00    +0.000 C 
ATOM      6  C   UNL     1       1.971   3.010  18.149  0.00  0.00    +0.000 C 
ATOM      7  C   UNL     1       3.209   3.843  18.534  0.00  0.00    +0.000 C 
ATOM      8  C   UNL     1       3.983   3.113  19.653  0.00  0.00    +0.000 C 
ATOM      9  C   UNL     1       2.755   5.220  19.053  0.00  0.00    +0.000 C 
ATOM     10  C   UNL     1       0.627   4.218  19.898  0.00  0.00    +0.000 C 
ENDROOT
BRANCH   1  13
ATOM     11  C   UNL     1       1.674   7.572  20.147  0.00  0.00    +0.000 C 
ATOM     12  O   UNL     1       2.278   7.667  19.083  0.00  0.00    +0.000 OA
ATOM     13  N   UNL     1       1.435   6.379  20.806  0.00  0.00    +0.000 N 
ATOM     14  H   UNL     1       0.873   6.447  21.651  0.00  0.00    +0.000 HD
BRANCH  11  20
ATOM     15  C   UNL     1      -0.296  12.026  19.853  0.00  0.00    +0.000 C 
ATOM     16  C   UNL     1       0.227  10.894  20.679  0.00  0.00    +0.000 A 
ATOM     17  C   UNL     1       0.229  10.964  22.073  0.00  0.00    +0.000 A 
ATOM     18  N   UNL     1       0.691   9.965  22.861  0.00  0.00    +0.000 NA
ATOM     19  C   UNL     1       1.159   8.880  22.196  0.00  0.00    +0.000 A 
ATOM     20  C   UNL     1       1.159   8.799  20.811  0.00  0.00    +0.000 A 
ATOM     21  N   UNL     1       0.699   9.807  20.017  0.00  0.00    +0.000 NA
ENDBRANCH  11  20
ENDBRANCH   1  13
BRANCH   7  22
ATOM     22  C   UNL     1       4.113   4.027  17.325  0.00  0.00    +0.000 C 
ATOM     23  C   UNL     1       4.889   4.185  16.290  0.00  0.00    +0.000 C 
BRANCH  23  24
ATOM     24  C   UNL     1       5.759   4.417  15.181  0.00  0.00    +0.000 A 
ATOM     25  C   UNL     1       5.532   3.797  13.955  0.00  0.00    +0.000 A 
ATOM     26  C   UNL     1       6.435   3.994  12.912  0.00  0.00    +0.000 A 
ATOM     27  C   UNL     1       7.532   4.812  13.137  0.00  0.00    +0.000 A 
ATOM     28  N   UNL     1       7.771   5.443  14.307  0.00  0.00    +0.000 NA
ATOM     29  C   UNL     1       6.875   5.232  15.303  0.00  0.00    +0.000 A 
ENDBRANCH  23  24
ENDBRANCH   7  22
TORSDOF 4
ENDMDL
MODEL 3
REMARK VINA RESULT:      -8.8      1.582      8.306
REMARK  Name = 
REMARK  5 active torsions:
REMARK  status: ('A' for Active; 'I' for Inactive)
REMARK    1  A    between atoms: C_1  and  C_2
REMARK    2  A    between atoms: C_6  and  C_7
REMARK    3  A    between atoms: N_9  and  C_10
REMARK    4  A    between atoms: C_16  and  C_17
REMARK    5  A    between atoms: C_18  and  C_19
REMARK                            x       y       z     vdW  Elec       q    Type
REMARK                         _______ _______ _______ _____ _____    ______ ____
ROOT
ATOM      1  C   UNL     1       2.127   4.835  19.676  0.00  0.00    +0.000 C 
ATOM      2  C   UNL     1       2.966   4.142  20.783  0.00  0.00    +0.000 C 
ATOM      3  C   UNL     1       3.519   2.796  20.293  0.00  0.00    +0.000 C 
ATOM      4  C   UNL     1       2.349   1.872  19.932  0.00  0.00    +0.000 C 
ATOM      5  C   UNL     1       1.497   2.513  18.825  0.00  0.00    +0.000 C 
ATOM      6  C   UNL     1       2.375   2.724  17.581  0.00  0.00    +0.000 C 
ATOM      7  C   UNL     1       3.546   3.667  17.920  0.00  0.00    +0.000 C 
ATOM      8  C   UNL     1       4.391   3.038  19.050  0.00  0.00    +0.000 C 
ATOM      9  C   UNL     1       2.989   5.019  18.403  0.00  0.00    +0.000 C 
ATOM     10  C   UNL     1       0.961   3.876  19.312  0.00  0.00    +0.000 C 
ENDROOT
BRANCH   1  13
ATOM     11  C   UNL     1       1.999   7.348  19.632  0.00  0.00    +0.000 C 
ATOM     12  O   UNL     1       2.840   7.494  18.749  0.00  0.00    +0.000 OA
ATOM     13  N   UNL     1       1.603   6.123  20.140  0.00  0.00    +0.000 N 
ATOM     14  H   UNL     1       0.856   6.153  20.830  0.00  0.00    +0.000 HD
BRANCH  11  20
ATOM     15  C   UNL     1      -0.075   9.565  23.452  0.00  0.00    +0.000 C 
ATOM     16  C   UNL     1       0.375   9.595  22.026  0.00  0.00    +0.000 A 
ATOM     17  C   UNL     1       0.203  10.737  21.243  0.00  0.00    +0.000 A 
ATOM     18  N   UNL     1       0.595  10.811  19.949  0.00  0.00    +0.000 NA
ATOM     19  C   UNL     1       1.170   9.684  19.459  0.00  0.00    +0.000 A 
ATOM     20  C   UNL     1       1.348   8.544  20.230  0.00  0.00    +0.000 A 
ATOM     21  N   UNL     1       0.949   8.468  21.530  0.00  0.00    +0.000 NA
ENDBRANCH  11  20
ENDBRANCH   1  13
BRANCH   7  22
ATOM     22  C   UNL     1       4.417   3.883  16.693  0.00  0.00    +0.000 C 
ATOM     23  C   UNL     1       5.163   4.069  15.641  0.00  0.00    +0.000 C 
BRANCH  23  24
ATOM     24  C   UNL     1       6.001   4.333  14.514  0.00  0.00    +0.000 A 
ATOM     25  C   UNL     1       5.796   3.675  13.304  0.00  0.00    +0.000 A 
ATOM     26  C   UNL     1       6.669   3.907  12.244  0.00  0.00    +0.000 A 
ATOM     27  C   UNL     1       7.716   4.796  12.435  0.00  0.00    +0.000 A 
ATOM     28  N   UNL     1       7.932   5.464  13.589  0.00  0.00    +0.000 NA
ATOM     29  C   UNL     1       7.066   5.218  14.603  0.00  0.00    +0.000 A 
ENDBRANCH  23  24
ENDBRANCH   7  22
TORSDOF 4
ENDMDL
MODEL 4
REMARK VINA RESULT:      -8.5      0.960      1.147
REMARK  Name = 
REMARK  5 active torsions:
REMARK  status: ('A' for Active; 'I' for Inactive)
REMARK    1  A    between atoms: C_1  and  C_2
REMARK    2  A    between atoms: C_6  and  C_7
REMARK    3  A    between atoms: N_9  and  C_10
REMARK    4  A    between atoms: C_16  and  C_17
REMARK    5  A    between atoms: C_18  and  C_19
REMARK                            x       y       z     vdW  Elec       q    Type
REMARK                         _______ _______ _______ _____ _____    ______ ____
ROOT
ATOM      1  C   UNL     1       3.316   4.307  18.522  0.00  0.00    +0.000 C 
ATOM      2  C   UNL     1       2.157   3.389  18.050  0.00  0.00    +0.000 C 
ATOM      3  C   UNL     1       1.178   3.104  19.199  0.00  0.00    +0.000 C 
ATOM      4  C   UNL     1       1.925   2.385  20.330  0.00  0.00    +0.000 C 
ATOM      5  C   UNL     1       3.077   3.267  20.840  0.00  0.00    +0.000 C 
ATOM      6  C   UNL     1       2.494   4.584  21.377  0.00  0.00    +0.000 C 
ATOM      7  C   UNL     1       1.756   5.329  20.248  0.00  0.00    +0.000 C 
ATOM      8  C   UNL     1       0.613   4.437  19.715  0.00  0.00    +0.000 C 
ATOM      9  C   UNL     1       2.741   5.622  19.101  0.00  0.00    +0.000 C 
ATOM     10  C   UNL     1       4.046   3.570  19.678  0.00  0.00    +0.000 C 
ENDROOT
BRANCH   1  13
ATOM     11  C   UNL     1       4.914   3.606  16.707  0.00  0.00    +0.000 C 
ATOM     12  O   UNL     1       4.808   2.401  16.916  0.00  0.00    +0.000 OA
ATOM     13  N   UNL     1       4.249   4.585  17.425  0.00  0.00    +0.000 N 
ATOM     14  H   UNL     1       4.391   5.540  17.104  0.00  0.00    +0.000 HD
BRANCH  11  20
ATOM     15  C   UNL     1       6.407   3.451  12.065  0.00  0.00    +0.000 C 
ATOM     16  C   UNL     1       6.520   4.022  13.442  0.00  0.00    +0.000 A 
ATOM     17  C   UNL     1       7.457   5.015  13.732  0.00  0.00    +0.000 A 
ATOM     18  N   UNL     1       7.595   5.562  14.963  0.00  0.00    +0.000 NA
ATOM     19  C   UNL     1       6.753   5.072  15.906  0.00  0.00    +0.000 A 
ATOM     20  C   UNL     1       5.816   4.087  15.628  0.00  0.00    +0.000 A 
ATOM     21  N   UNL     1       5.681   3.532  14.391  0.00  0.00    +0.000 NA
ENDBRANCH  11  20
ENDBRANCH   1  13
BRANCH   7  22
ATOM     22  C   UNL     1       1.180   6.636  20.771  0.00  0.00    +0.000 C 
ATOM     23  C   UNL     1       0.687   7.756  21.219  0.00  0.00    +0.000 C 
BRANCH  23  24
ATOM     24  C   UNL     1       0.165   9.013  21.652  0.00  0.00    +0.000 A 
ATOM     25  C   UNL     1      -0.197   9.990  20.728  0.00  0.00    +0.000 A 
ATOM     26  C   UNL     1      -0.643  11.229  21.184  0.00  0.00    +0.000 A 
ATOM     27  C   UNL     1      -0.715  11.441  22.552  0.00  0.00    +0.000 A 
ATOM     28  N   UNL     1      -0.391  10.508  23.474  0.00  0.00    +0.000 NA
ATOM     29  C   UNL     1       0.040   9.313  23.001  0.00  0.00    +0.000 A 
ENDBRANCH  23  24
ENDBRANCH   7  22
TORSDOF 4
ENDMDL
MODEL 5
REMARK VINA RESULT:      -8.3      1.803      8.289
REMARK  Name = 
REMARK  5 active torsions:
REMARK  status: ('A' for Active; 'I' for Inactive)
REMARK    1  A    between atoms: C_1  and  C_2
REMARK    2  A    between atoms: C_6  and  C_7
REMARK    3  A    between atoms: N_9  and  C_10
REMARK    4  A    between atoms: C_16  and  C_17
REMARK    5  A    between atoms: C_18  and  C_19
REMARK                            x       y       z     vdW  Elec       q    Type
REMARK                         _______ _______ _______ _____ _____    ______ ____
ROOT
ATOM      1  C   UNL     1       2.320   4.981  19.723  0.00  0.00    +0.000 C 
ATOM      2  C   UNL     1       3.087   4.160  20.793  0.00  0.00    +0.000 C 
ATOM      3  C   UNL     1       3.501   2.787  20.242  0.00  0.00    +0.000 C 
ATOM      4  C   UNL     1       2.242   2.003  19.849  0.00  0.00    +0.000 C 
ATOM      5  C   UNL     1       1.457   2.774  18.776  0.00  0.00    +0.000 C 
ATOM      6  C   UNL     1       2.349   2.950  17.537  0.00  0.00    +0.000 C 
ATOM      7  C   UNL     1       3.610   3.754  17.909  0.00  0.00    +0.000 C 
ATOM      8  C   UNL     1       4.390   2.994  19.005  0.00  0.00    +0.000 C 
ATOM      9  C   UNL     1       3.194   5.133  18.453  0.00  0.00    +0.000 C 
ATOM     10  C   UNL     1       1.062   4.162  19.325  0.00  0.00    +0.000 C 
ENDROOT
BRANCH   1  13
ATOM     11  C   UNL     1       1.880   7.448  19.482  0.00  0.00    +0.000 C 
ATOM     12  O   UNL     1       2.169   7.503  18.290  0.00  0.00    +0.000 OA
ATOM     13  N   UNL     1       1.929   6.295  20.245  0.00  0.00    +0.000 N 
ATOM     14  H   UNL     1       1.608   6.388  21.206  0.00  0.00    +0.000 HD
BRANCH  11  20
ATOM     15  C   UNL     1       0.397  12.095  19.361  0.00  0.00    +0.000 C 
ATOM     16  C   UNL     1       0.752  10.869  20.142  0.00  0.00    +0.000 A 
ATOM     17  C   UNL     1       0.680  10.860  21.536  0.00  0.00    +0.000 A 
ATOM     18  N   UNL     1       0.990   9.776  22.284  0.00  0.00    +0.000 NA
ATOM     19  C   UNL     1       1.383   8.686  21.578  0.00  0.00    +0.000 A 
ATOM     20  C   UNL     1       1.455   8.683  20.192  0.00  0.00    +0.000 A 
ATOM     21  N   UNL     1       1.149   9.777  19.440  0.00  0.00    +0.000 NA
ENDBRANCH  11  20
ENDBRANCH   1  13
BRANCH   7  22
ATOM     22  C   UNL     1       4.496   3.935  16.687  0.00  0.00    +0.000 C 
ATOM     23  C   UNL     1       5.254   4.090  15.638  0.00  0.00    +0.000 C 
BRANCH  23  24
ATOM     24  C   UNL     1       6.041   4.223  14.454  0.00  0.00    +0.000 A 
ATOM     25  C   UNL     1       7.132   5.088  14.416  0.00  0.00    +0.000 A 
ATOM     26  C   UNL     1       7.841   5.243  13.226  0.00  0.00    +0.000 A 
ATOM     27  C   UNL     1       7.431   4.520  12.117  0.00  0.00    +0.000 A 
ATOM     28  N   UNL     1       6.390   3.659  12.124  0.00  0.00    +0.000 NA
ATOM     29  C   UNL     1       5.720   3.529  13.296  0.00  0.00    +0.000 A 
ENDBRANCH  23  24
ENDBRANCH   7  22
TORSDOF 4
ENDMDL
MODEL 6
REMARK VINA RESULT:      -8.3      1.278      1.990
REMARK  Name = 
REMARK  5 active torsions:
REMARK  status: ('A' for Active; 'I' for Inactive)
REMARK    1  A    between atoms: C_1  and  C_2
REMARK    2  A    between atoms: C_6  and  C_7
REMARK    3  A    between atoms: N_9  and  C_10
REMARK    4  A    between atoms: C_16  and  C_17
REMARK    5  A    between atoms: C_18  and  C_19
REMARK                            x       y       z     vdW  Elec       q    Type
REMARK                         _______ _______ _______ _____ _____    ______ ____
ROOT
ATOM      1  C   UNL     1       3.736   3.769  17.473  0.00  0.00    +0.000 C 
ATOM      2  C   UNL     1       2.498   2.841  17.353  0.00  0.00    +0.000 C 
ATOM      3  C   UNL     1       1.745   2.753  18.688  0.00  0.00    +0.000 C 
ATOM      4  C   UNL     1       2.678   2.168  19.756  0.00  0.00    +0.000 C 
ATOM      5  C   UNL     1       3.915   3.067  19.919  0.00  0.00    +0.000 C 
ATOM      6  C   UNL     1       3.457   4.466  20.361  0.00  0.00    +0.000 C 
ATOM      7  C   UNL     1       2.533   5.077  19.290  0.00  0.00    +0.000 C 
ATOM      8  C   UNL     1       1.301   4.165  19.104  0.00  0.00    +0.000 C 
ATOM      9  C   UNL     1       3.294   5.173  17.954  0.00  0.00    +0.000 C 
ATOM     10  C   UNL     1       4.658   3.171  18.570  0.00  0.00    +0.000 C 
ENDROOT
BRANCH   1  13
ATOM     11  C   UNL     1       5.679   4.485  16.041  0.00  0.00    +0.000 C 
ATOM     12  O   UNL     1       6.292   5.043  16.945  0.00  0.00    +0.000 OA
ATOM     13  N   UNL     1       4.454   3.859  16.197  0.00  0.00    +0.000 N 
ATOM     14  H   UNL     1       4.090   3.391  15.371  0.00  0.00    +0.000 HD
BRANCH  11  20
ATOM     15  C   UNL     1       8.988   6.060  12.820  0.00  0.00    +0.000 C 
ATOM     16  C   UNL     1       7.808   5.201  13.148  0.00  0.00    +0.000 A 
ATOM     17  C   UNL     1       7.236   4.369  12.185  0.00  0.00    +0.000 A 
ATOM     18  N   UNL     1       6.169   3.574  12.437  0.00  0.00    +0.000 NA
ATOM     19  C   UNL     1       5.687   3.645  13.702  0.00  0.00    +0.000 A 
ATOM     20  C   UNL     1       6.250   4.467  14.668  0.00  0.00    +0.000 A 
ATOM     21  N   UNL     1       7.320   5.271  14.414  0.00  0.00    +0.000 NA
ENDBRANCH  11  20
ENDBRANCH   1  13
BRANCH   7  22
ATOM     22  C   UNL     1       2.080   6.464  19.718  0.00  0.00    +0.000 C 
ATOM     23  C   UNL     1       1.692   7.653  20.085  0.00  0.00    +0.000 C 
BRANCH  23  24
ATOM     24  C   UNL     1       1.227   8.958  20.431  0.00  0.00    +0.000 A 
ATOM     25  C   UNL     1       0.940   9.898  19.444  0.00  0.00    +0.000 A 
ATOM     26  C   UNL     1       0.549  11.183  19.817  0.00  0.00    +0.000 A 
ATOM     27  C   UNL     1       0.457  11.477  21.168  0.00  0.00    +0.000 A 
ATOM     28  N   UNL     1       0.709  10.584  22.150  0.00  0.00    +0.000 NA
ATOM     29  C   UNL     1       1.087   9.342  21.757  0.00  0.00    +0.000 A 
ENDBRANCH  23  24
ENDBRANCH   7  22
TORSDOF 4
ENDMDL
MODEL 7
REMARK VINA RESULT:      -8.1      7.731     11.967
REMARK  Name = 
REMARK  5 active torsions:
REMARK  status: ('A' for Active; 'I' for Inactive)
REMARK    1  A    between atoms: C_1  and  C_2
REMARK    2  A    between atoms: C_6  and  C_7
REMARK    3  A    between atoms: N_9  and  C_10
REMARK    4  A    between atoms: C_16  and  C_17
REMARK    5  A    between atoms: C_18  and  C_19
REMARK                            x       y       z     vdW  Elec       q    Type
REMARK                         _______ _______ _______ _____ _____    ______ ____
ROOT
ATOM      1  C   UNL     1       9.776  12.981  20.371  0.00  0.00    +0.000 C 
ATOM      2  C   UNL     1       9.055  13.997  19.447  0.00  0.00    +0.000 C 
ATOM      3  C   UNL     1       9.215  13.608  17.970  0.00  0.00    +0.000 C 
ATOM      4  C   UNL     1      10.706  13.609  17.608  0.00  0.00    +0.000 C 
ATOM      5  C   UNL     1      11.460  12.602  18.491  0.00  0.00    +0.000 C 
ATOM      6  C   UNL     1      10.882  11.198  18.249  0.00  0.00    +0.000 C 
ATOM      7  C   UNL     1       9.388  11.174  18.626  0.00  0.00    +0.000 C 
ATOM      8  C   UNL     1       8.630  12.202  17.758  0.00  0.00    +0.000 C 
ATOM      9  C   UNL     1       9.230  11.556  20.110  0.00  0.00    +0.000 C 
ATOM     10  C   UNL     1      11.278  12.983  19.976  0.00  0.00    +0.000 C 
ENDROOT
BRANCH   1  13
ATOM     11  C   UNL     1       8.396  13.528  22.404  0.00  0.00    +0.000 C 
ATOM     12  O   UNL     1       7.310  13.415  21.843  0.00  0.00    +0.000 OA
ATOM     13  N   UNL     1       9.619  13.347  21.782  0.00  0.00    +0.000 N 
ATOM     14  H   UNL     1      10.435  13.419  22.386  0.00  0.00    +0.000 HD
BRANCH  11  20
ATOM     15  C   UNL     1       7.357  12.505  27.060  0.00  0.00    +0.000 C 
ATOM     16  C   UNL     1       7.961  13.415  26.039  0.00  0.00    +0.000 A 
ATOM     17  C   UNL     1       8.584  14.606  26.417  0.00  0.00    +0.000 A 
ATOM     18  N   UNL     1       9.145  15.460  25.529  0.00  0.00    +0.000 NA
ATOM     19  C   UNL     1       9.057  15.077  24.231  0.00  0.00    +0.000 A 
ATOM     20  C   UNL     1       8.443  13.894  23.844  0.00  0.00    +0.000 A 
ATOM     21  N   UNL     1       7.873  13.037  24.737  0.00  0.00    +0.000 NA
ENDBRANCH  11  20
ENDBRANCH   1  13
BRANCH   7  22
ATOM     22  C   UNL     1       8.811   9.787  18.393  0.00  0.00    +0.000 C 
ATOM     23  C   UNL     1       8.316   8.598  18.193  0.00  0.00    +0.000 C 
BRANCH  23  24
ATOM     24  C   UNL     1       7.725   7.309  18.019  0.00  0.00    +0.000 A 
ATOM     25  C   UNL     1       6.842   7.067  16.970  0.00  0.00    +0.000 A 
ATOM     26  C   UNL     1       6.233   5.818  16.865  0.00  0.00    +0.000 A 
ATOM     27  C   UNL     1       6.536   4.855  17.815  0.00  0.00    +0.000 A 
ATOM     28  N   UNL     1       7.401   5.051  18.834  0.00  0.00    +0.000 NA
ATOM     29  C   UNL     1       7.978   6.276  18.910  0.00  0.00    +0.000 A 
ENDBRANCH  23  24
ENDBRANCH   7  22
TORSDOF 4
ENDMDL
MODEL 8
REMARK VINA RESULT:      -8.0      7.768     11.997
REMARK  Name = 
REMARK  5 active torsions:
REMARK  status: ('A' for Active; 'I' for Inactive)
REMARK    1  A    between atoms: C_1  and  C_2
REMARK    2  A    between atoms: C_6  and  C_7
REMARK    3  A    between atoms: N_9  and  C_10
REMARK    4  A    between atoms: C_16  and  C_17
REMARK    5  A    between atoms: C_18  and  C_19
REMARK                            x       y       z     vdW  Elec       q    Type
REMARK                         _______ _______ _______ _____ _____    ______ ____
ROOT
ATOM      1  C   UNL     1       9.783  12.724  20.430  0.00  0.00    +0.000 C 
ATOM      2  C   UNL     1       9.061  13.766  19.535  0.00  0.00    +0.000 C 
ATOM      3  C   UNL     1       9.179  13.392  18.050  0.00  0.00    +0.000 C 
ATOM      4  C   UNL     1      10.661  13.368  17.653  0.00  0.00    +0.000 C 
ATOM      5  C   UNL     1      11.415  12.335  18.507  0.00  0.00    +0.000 C 
ATOM      6  C   UNL     1      10.804  10.946  18.262  0.00  0.00    +0.000 C 
ATOM      7  C   UNL     1       9.319  10.947  18.674  0.00  0.00    +0.000 C 
ATOM      8  C   UNL     1       8.562  12.000  17.836  0.00  0.00    +0.000 C 
ATOM      9  C   UNL     1       9.203  11.314  20.165  0.00  0.00    +0.000 C 
ATOM     10  C   UNL     1      11.276  12.701  20.000  0.00  0.00    +0.000 C 
ENDROOT
BRANCH   1  13
ATOM     11  C   UNL     1       8.468  13.359  22.480  0.00  0.00    +0.000 C 
ATOM     12  O   UNL     1       7.374  13.358  21.924  0.00  0.00    +0.000 OA
ATOM     13  N   UNL     1       9.667  13.077  21.849  0.00  0.00    +0.000 N 
ATOM     14  H   UNL     1      10.488  13.061  22.449  0.00  0.00    +0.000 HD
BRANCH  11  20
ATOM     15  C   UNL     1       9.491  16.545  26.032  0.00  0.00    +0.000 C 
ATOM     16  C   UNL     1       9.030  15.188  25.603  0.00  0.00    +0.000 A 
ATOM     17  C   UNL     1       8.668  14.223  26.544  0.00  0.00    +0.000 A 
ATOM     18  N   UNL     1       8.245  12.983  26.205  0.00  0.00    +0.000 NA
ATOM     19  C   UNL     1       8.200  12.738  24.872  0.00  0.00    +0.000 A 
ATOM     20  C   UNL     1       8.555  13.691  23.927  0.00  0.00    +0.000 A 
ATOM     21  N   UNL     1       8.987  14.937  24.269  0.00  0.00    +0.000 NA
ENDBRANCH  11  20
ENDBRANCH   1  13
BRANCH   7  22
ATOM     22  C   UNL     1       8.709   9.574  18.438  0.00  0.00    +0.000 C 
ATOM     23  C   UNL     1       8.186   8.398  18.236  0.00  0.00    +0.000 C 
BRANCH  23  24
ATOM     24  C   UNL     1       7.594   7.129  17.952  0.00  0.00    +0.000 A 
ATOM     25  C   UNL     1       6.632   6.999  16.954  0.00  0.00    +0.000 A 
ATOM     26  C   UNL     1       6.028   5.761  16.744  0.00  0.00    +0.000 A 
ATOM     27  C   UNL     1       6.415   4.696  17.543  0.00  0.00    +0.000 A 
ATOM     28  N   UNL     1       7.357   4.783  18.507  0.00  0.00    +0.000 NA
ATOM     29  C   UNL     1       7.927   6.001  18.687  0.00  0.00    +0.000 A 
ENDBRANCH  23  24
ENDBRANCH   7  22
TORSDOF 4
ENDMDL
MODEL 9
REMARK VINA RESULT:      -8.0      7.281     11.644
REMARK  Name = 
REMARK  5 active torsions:
REMARK  status: ('A' for Active; 'I' for Inactive)
REMARK    1  A    between atoms: C_1  and  C_2
REMARK    2  A    between atoms: C_6  and  C_7
REMARK    3  A    between atoms: N_9  and  C_10
REMARK    4  A    between atoms: C_16  and  C_17
REMARK    5  A    between atoms: C_18  and  C_19
REMARK                            x       y       z     vdW  Elec       q    Type
REMARK                         _______ _______ _______ _____ _____    ______ ____
ROOT
ATOM      1  C   UNL     1       9.210  13.600  19.303  0.00  0.00    +0.000 C 
ATOM      2  C   UNL     1      10.048  13.977  18.053  0.00  0.00    +0.000 C 
ATOM      3  C   UNL     1      11.131  12.923  17.777  0.00  0.00    +0.000 C 
ATOM      4  C   UNL     1      12.077  12.847  18.982  0.00  0.00    +0.000 C 
ATOM      5  C   UNL     1      11.289  12.460  20.244  0.00  0.00    +0.000 C 
ATOM      6  C   UNL     1      10.642  11.083  20.023  0.00  0.00    +0.000 C 
ATOM      7  C   UNL     1       9.672  11.146  18.827  0.00  0.00    +0.000 C 
ATOM      8  C   UNL     1      10.455  11.559  17.562  0.00  0.00    +0.000 C 
ATOM      9  C   UNL     1       8.582  12.198  19.109  0.00  0.00    +0.000 C 
ATOM     10  C   UNL     1      10.188  13.509  20.505  0.00  0.00    +0.000 C 
ENDROOT
BRANCH   1  13
ATOM     11  C   UNL     1       7.060  14.793  18.762  0.00  0.00    +0.000 C 
ATOM     12  O   UNL     1       6.825  14.155  17.740  0.00  0.00    +0.000 OA
ATOM     13  N   UNL     1       8.172  14.602  19.564  0.00  0.00    +0.000 N 
ATOM     14  H   UNL     1       8.206  15.166  20.410  0.00  0.00    +0.000 HD
BRANCH  11  20
ATOM     15  C   UNL     1       2.514  16.266  19.749  0.00  0.00    +0.000 C 
ATOM     16  C   UNL     1       3.979  16.555  19.667  0.00  0.00    +0.000 A 
ATOM     17  C   UNL     1       4.482  17.813  20.003  0.00  0.00    +0.000 A 
ATOM     18  N   UNL     1       5.799  18.120  19.945  0.00  0.00    +0.000 NA
ATOM     19  C   UNL     1       6.606  17.112  19.530  0.00  0.00    +0.000 A 
ATOM     20  C   UNL     1       6.117  15.857  19.196  0.00  0.00    +0.000 A 
ATOM     21  N   UNL     1       4.790  15.549  19.249  0.00  0.00    +0.000 NA
ENDBRANCH  11  20
ENDBRANCH   1  13
BRANCH   7  22
ATOM     22  C   UNL     1       9.024   9.789  18.605  0.00  0.00    +0.000 C 
ATOM     23  C   UNL     1       8.470   8.625  18.415  0.00  0.00    +0.000 C 
BRANCH  23  24
ATOM     24  C   UNL     1       7.876   7.355  18.140  0.00  0.00    +0.000 A 
ATOM     25  C   UNL     1       7.078   7.170  17.014  0.00  0.00    +0.000 A 
ATOM     26  C   UNL     1       6.462   5.937  16.808  0.00  0.00    +0.000 A 
ATOM     27  C   UNL     1       6.673   4.932  17.739  0.00  0.00    +0.000 A 
ATOM     28  N   UNL     1       7.455   5.072  18.831  0.00  0.00    +0.000 NA
ATOM     29  C   UNL     1       8.041   6.283  19.005  0.00  0.00    +0.000 A 
ENDBRANCH  23  24
ENDBRANCH   7  22
TORSDOF 4
ENDMDL
