MODEL 1
REMARK VINA RESULT:      -9.1      0.000      0.000
REMARK  Name = 
REMARK  7 active torsions:
REMARK  status: ('A' for Active; 'I' for Inactive)
REMARK    1  A    between atoms: C_1  and  C_2
REMARK    2  A    between atoms: C_2  and  C_4
REMARK    3  A    between atoms: C_7  and  S_8
REMARK    4  A    between atoms: S_8  and  N_11
REMARK    5  A    between atoms: N_11  and  C_12
REMARK    6  A    between atoms: C_15  and  C_16
REMARK    7  A    between atoms: C_22  and  C_23
REMARK                            x       y       z     vdW  Elec       q    Type
REMARK                         _______ _______ _______ _____ _____    ______ ____
ROOT
ATOM      1  C   UNL     1       2.511   5.659  19.244  0.00  0.00    +0.000 A 
ATOM      2  C   UNL     1       2.596   6.909  18.635  0.00  0.00    +0.000 A 
ATOM      3  C   UNL     1       2.027   8.028  19.248  0.00  0.00    +0.000 A 
ATOM      4  C   UNL     1       1.373   7.903  20.482  0.00  0.00    +0.000 A 
ATOM      5  C   UNL     1       1.313   6.645  21.099  0.00  0.00    +0.000 A 
ATOM      6  C   UNL     1       1.866   5.522  20.472  0.00  0.00    +0.000 A 
ENDROOT
BRANCH   4   7
ATOM      7  C   UNL     1       0.759   9.083  21.167  0.00  0.00    +0.000 A 
ATOM      8  C   UNL     1      -0.003   8.789  22.425  0.00  0.00    +0.000 A 
ATOM      9  C   UNL     1      -0.593   9.810  23.055  0.00  0.00    +0.000 A 
ATOM     10  C   UNL     1      -0.462  11.109  22.531  0.00  0.00    +0.000 A 
ATOM     11  N   UNL     1      -0.918  12.273  22.926  0.00  0.00    +0.000 NA
ATOM     12  N   UNL     1      -0.469  13.223  22.038  0.00  0.00    +0.000 NA
ATOM     13  C   UNL     1       0.253  12.611  21.117  0.00  0.00    +0.000 A 
ATOM     14  C   UNL     1       0.930  13.240  19.966  0.00  0.00    +0.000 C 
ATOM     15  N   UNL     1       0.290  11.261  21.384  0.00  0.00    +0.000 N 
ATOM     16  N   UNL     1       0.925  10.276  20.667  0.00  0.00    +0.000 NA
ENDBRANCH   4   7
BRANCH   1  17
ATOM     17  N   UNL     1       3.157   4.554  18.632  0.00  0.00    +0.000 N 
ATOM     18  H   UNL     1       2.636   3.685  18.531  0.00  0.00    +0.000 HD
BRANCH  17  19
ATOM     19  S   UNL     1       4.802   4.302  18.945  0.00  0.00    +0.000 S 
ATOM     20  O   UNL     1       4.999   2.953  19.422  0.00  0.00    +0.000 OA
ATOM     21  O   UNL     1       5.249   5.448  19.712  0.00  0.00    +0.000 OA
BRANCH  19  25
ATOM     22  C   UNL     1       6.717   4.677  14.805  0.00  0.00    +0.000 A 
ATOM     23  C   UNL     1       7.467   4.937  15.961  0.00  0.00    +0.000 A 
ATOM     24  C   UNL     1       6.888   4.802  17.224  0.00  0.00    +0.000 A 
ATOM     25  C   UNL     1       5.546   4.428  17.330  0.00  0.00    +0.000 A 
ATOM     26  C   UNL     1       4.796   4.134  16.184  0.00  0.00    +0.000 A 
ATOM     27  C   UNL     1       5.382   4.266  14.919  0.00  0.00    +0.000 A 
BRANCH  22  29
ATOM     28  C   UNL     1       6.905   4.070  12.306  0.00  0.00    +0.000 C 
ATOM     29  C   UNL     1       7.376   4.878  13.485  0.00  0.00    +0.000 C 
ATOM     30  O   UNL     1       8.304   5.679  13.390  0.00  0.00    +0.000 OA
ENDBRANCH  22  29
ENDBRANCH  19  25
ENDBRANCH  17  19
ENDBRANCH   1  17
TORSDOF 5
ENDMDL
MODEL 2
REMARK VINA RESULT:      -9.1      0.892      1.771
REMARK  Name = 
REMARK  7 active torsions:
REMARK  status: ('A' for Active; 'I' for Inactive)
REMARK    1  A    between atoms: C_1  and  C_2
REMARK    2  A    between atoms: C_2  and  C_4
REMARK    3  A    between atoms: C_7  and  S_8
REMARK    4  A    between atoms: S_8  and  N_11
REMARK    5  A    between atoms: N_11  and  C_12
REMARK    6  A    between atoms: C_15  and  C_16
REMARK    7  A    between atoms: C_22  and  C_23
REMARK                            x       y       z     vdW  Elec       q    Type
REMARK                         _______ _______ _______ _____ _____    ______ ____
ROOT
ATOM      1  C   UNL     1       2.672   5.778  18.994  0.00  0.00    +0.000 A 
ATOM      2  C   UNL     1       2.724   6.727  17.976  0.00  0.00    +0.000 A 
ATOM      3  C   UNL     1       2.225   8.014  18.191  0.00  0.00    +0.000 A 
ATOM      4  C   UNL     1       1.675   8.361  19.433  0.00  0.00    +0.000 A 
ATOM      5  C   UNL     1       1.648   7.405  20.460  0.00  0.00    +0.000 A 
ATOM      6  C   UNL     1       2.130   6.110  20.234  0.00  0.00    +0.000 A 
ENDROOT
BRANCH   4   7
ATOM      7  C   UNL     1       1.138   9.732  19.698  0.00  0.00    +0.000 A 
ATOM      8  C   UNL     1       1.456  10.773  18.666  0.00  0.00    +0.000 A 
ATOM      9  C   UNL     1       1.021  12.020  18.877  0.00  0.00    +0.000 A 
ATOM     10  C   UNL     1       0.273  12.299  20.035  0.00  0.00    +0.000 A 
ATOM     11  N   UNL     1      -0.272  13.402  20.492  0.00  0.00    +0.000 NA
ATOM     12  N   UNL     1      -0.905  13.098  21.674  0.00  0.00    +0.000 NA
ATOM     13  C   UNL     1      -0.729  11.811  21.912  0.00  0.00    +0.000 A 
ATOM     14  C   UNL     1      -1.235  11.051  23.072  0.00  0.00    +0.000 C 
ATOM     15  N   UNL     1       0.016  11.254  20.897  0.00  0.00    +0.000 N 
ATOM     16  N   UNL     1       0.425   9.948  20.768  0.00  0.00    +0.000 NA
ENDBRANCH   4   7
BRANCH   1  17
ATOM     17  N   UNL     1       3.248   4.501  18.768  0.00  0.00    +0.000 N 
ATOM     18  H   UNL     1       2.706   3.675  19.018  0.00  0.00    +0.000 HD
BRANCH  17  19
ATOM     19  S   UNL     1       4.909   4.302  19.035  0.00  0.00    +0.000 S 
ATOM     20  O   UNL     1       5.159   2.972  19.538  0.00  0.00    +0.000 OA
ATOM     21  O   UNL     1       5.346   5.479  19.758  0.00  0.00    +0.000 OA
BRANCH  19  25
ATOM     22  C   UNL     1       6.685   4.626  14.829  0.00  0.00    +0.000 A 
ATOM     23  C   UNL     1       7.485   4.853  15.957  0.00  0.00    +0.000 A 
ATOM     24  C   UNL     1       6.947   4.734  17.240  0.00  0.00    +0.000 A 
ATOM     25  C   UNL     1       5.598   4.408  17.394  0.00  0.00    +0.000 A 
ATOM     26  C   UNL     1       4.797   4.146  16.276  0.00  0.00    +0.000 A 
ATOM     27  C   UNL     1       5.341   4.263  14.990  0.00  0.00    +0.000 A 
BRANCH  22  29
ATOM     28  C   UNL     1       6.823   3.956  12.343  0.00  0.00    +0.000 C 
ATOM     29  C   UNL     1       7.302   4.809  13.486  0.00  0.00    +0.000 C 
ATOM     30  O   UNL     1       8.205   5.632  13.345  0.00  0.00    +0.000 OA
ENDBRANCH  22  29
ENDBRANCH  19  25
ENDBRANCH  17  19
ENDBRANCH   1  17
TORSDOF 5
ENDMDL
MODEL 3
REMARK VINA RESULT:      -9.0      0.434      1.343
REMARK  Name = 
REMARK  7 active torsions:
REMARK  status: ('A' for Active; 'I' for Inactive)
REMARK    1  A    between atoms: C_1  and  C_2
REMARK    2  A    between atoms: C_2  and  C_4
REMARK    3  A    between atoms: C_7  and  S_8
REMARK    4  A    between atoms: S_8  and  N_11
REMARK    5  A    between atoms: N_11  and  C_12
REMARK    6  A    between atoms: C_15  and  C_16
REMARK    7  A    between atoms: C_22  and  C_23
REMARK                            x       y       z     vdW  Elec       q    Type
REMARK                         _______ _______ _______ _____ _____    ______ ____
ROOT
ATOM      1  C   UNL     1       2.681   5.799  19.248  0.00  0.00    +0.000 A 
ATOM      2  C   UNL     1       2.027   5.709  20.474  0.00  0.00    +0.000 A 
ATOM      3  C   UNL     1       1.417   6.837  21.028  0.00  0.00    +0.000 A 
ATOM      4  C   UNL     1       1.453   8.065  20.353  0.00  0.00    +0.000 A 
ATOM      5  C   UNL     1       2.094   8.140  19.107  0.00  0.00    +0.000 A 
ATOM      6  C   UNL     1       2.722   7.013  18.564  0.00  0.00    +0.000 A 
ENDROOT
BRANCH   4   7
ATOM      7  C   UNL     1       0.805   9.290  20.916  0.00  0.00    +0.000 A 
ATOM      8  C   UNL     1       0.219   9.151  22.289  0.00  0.00    +0.000 A 
ATOM      9  C   UNL     1      -0.396  10.214  22.820  0.00  0.00    +0.000 A 
ATOM     10  C   UNL     1      -0.453  11.412  22.086  0.00  0.00    +0.000 A 
ATOM     11  N   UNL     1      -0.976  12.587  22.347  0.00  0.00    +0.000 NA
ATOM     12  N   UNL     1      -0.723  13.407  21.272  0.00  0.00    +0.000 NA
ATOM     13  C   UNL     1      -0.050  12.709  20.376  0.00  0.00    +0.000 A 
ATOM     14  C   UNL     1       0.431  13.188  19.065  0.00  0.00    +0.000 C 
ATOM     15  N   UNL     1       0.150  11.430  20.844  0.00  0.00    +0.000 N 
ATOM     16  N   UNL     1       0.796  10.392  20.218  0.00  0.00    +0.000 NA
ENDBRANCH   4   7
BRANCH   1  17
ATOM     17  N   UNL     1       3.231   4.622  18.679  0.00  0.00    +0.000 N 
ATOM     18  H   UNL     1       2.662   3.777  18.672  0.00  0.00    +0.000 HD
BRANCH  17  19
ATOM     19  S   UNL     1       4.878   4.304  18.909  0.00  0.00    +0.000 S 
ATOM     20  O   UNL     1       5.048   2.936  19.342  0.00  0.00    +0.000 OA
ATOM     21  O   UNL     1       5.401   5.412  19.682  0.00  0.00    +0.000 OA
BRANCH  19  25
ATOM     22  C   UNL     1       6.604   4.618  14.681  0.00  0.00    +0.000 A 
ATOM     23  C   UNL     1       5.278   4.206  14.878  0.00  0.00    +0.000 A 
ATOM     24  C   UNL     1       4.747   4.130  16.167  0.00  0.00    +0.000 A 
ATOM     25  C   UNL     1       5.552   4.447  17.264  0.00  0.00    +0.000 A 
ATOM     26  C   UNL     1       6.866   4.891  17.078  0.00  0.00    +0.000 A 
ATOM     27  C   UNL     1       7.395   4.970  15.783  0.00  0.00    +0.000 A 
BRANCH  22  29
ATOM     28  C   UNL     1       6.609   3.632  12.298  0.00  0.00    +0.000 C 
ATOM     29  C   UNL     1       7.129   4.640  13.288  0.00  0.00    +0.000 C 
ATOM     30  O   UNL     1       7.991   5.461  12.981  0.00  0.00    +0.000 OA
ENDBRANCH  22  29
ENDBRANCH  19  25
ENDBRANCH  17  19
ENDBRANCH   1  17
TORSDOF 5
ENDMDL
MODEL 4
REMARK VINA RESULT:      -8.9      1.841      2.291
REMARK  Name = 
REMARK  7 active torsions:
REMARK  status: ('A' for Active; 'I' for Inactive)
REMARK    1  A    between atoms: C_1  and  C_2
REMARK    2  A    between atoms: C_2  and  C_4
REMARK    3  A    between atoms: C_7  and  S_8
REMARK    4  A    between atoms: S_8  and  N_11
REMARK    5  A    between atoms: N_11  and  C_12
REMARK    6  A    between atoms: C_15  and  C_16
REMARK    7  A    between atoms: C_22  and  C_23
REMARK                            x       y       z     vdW  Elec       q    Type
REMARK                         _______ _______ _______ _____ _____    ______ ____
ROOT
ATOM      1  C   UNL     1       2.820   6.134  18.862  0.00  0.00    +0.000 A 
ATOM      2  C   UNL     1       2.232   6.612  20.030  0.00  0.00    +0.000 A 
ATOM      3  C   UNL     1       1.691   7.900  20.066  0.00  0.00    +0.000 A 
ATOM      4  C   UNL     1       1.731   8.716  18.927  0.00  0.00    +0.000 A 
ATOM      5  C   UNL     1       2.304   8.217  17.748  0.00  0.00    +0.000 A 
ATOM      6  C   UNL     1       2.864   6.934  17.721  0.00  0.00    +0.000 A 
ENDROOT
BRANCH   4   7
ATOM      7  C   UNL     1       1.155  10.097  18.930  0.00  0.00    +0.000 A 
ATOM      8  C   UNL     1      -0.319  10.194  19.189  0.00  0.00    +0.000 A 
ATOM      9  C   UNL     1      -0.881  11.407  19.173  0.00  0.00    +0.000 A 
ATOM     10  C   UNL     1      -0.074  12.535  18.935  0.00  0.00    +0.000 A 
ATOM     11  N   UNL     1      -0.344  13.817  18.865  0.00  0.00    +0.000 NA
ATOM     12  N   UNL     1       0.837  14.480  18.621  0.00  0.00    +0.000 NA
ATOM     13  C   UNL     1       1.802  13.582  18.548  0.00  0.00    +0.000 A 
ATOM     14  C   UNL     1       3.233  13.844  18.299  0.00  0.00    +0.000 C 
ATOM     15  N   UNL     1       1.275  12.325  18.741  0.00  0.00    +0.000 N 
ATOM     16  N   UNL     1       1.938  11.121  18.734  0.00  0.00    +0.000 NA
ENDBRANCH   4   7
BRANCH   1  17
ATOM     17  N   UNL     1       3.299   4.798  18.835  0.00  0.00    +0.000 N 
ATOM     18  H   UNL     1       2.725   4.071  19.258  0.00  0.00    +0.000 HD
BRANCH  17  19
ATOM     19  S   UNL     1       4.958   4.528  19.038  0.00  0.00    +0.000 S 
ATOM     20  O   UNL     1       5.167   3.209  19.588  0.00  0.00    +0.000 OA
ATOM     21  O   UNL     1       5.485   5.711  19.689  0.00  0.00    +0.000 OA
BRANCH  19  25
ATOM     22  C   UNL     1       6.540   4.586  14.743  0.00  0.00    +0.000 A 
ATOM     23  C   UNL     1       7.266   5.196  15.775  0.00  0.00    +0.000 A 
ATOM     24  C   UNL     1       6.793   5.160  17.089  0.00  0.00    +0.000 A 
ATOM     25  C   UNL     1       5.577   4.530  17.365  0.00  0.00    +0.000 A 
ATOM     26  C   UNL     1       4.859   3.890  16.349  0.00  0.00    +0.000 A 
ATOM     27  C   UNL     1       5.339   3.925  15.033  0.00  0.00    +0.000 A 
BRANCH  22  29
ATOM     28  C   UNL     1       6.595   3.716  12.316  0.00  0.00    +0.000 C 
ATOM     29  C   UNL     1       7.072   4.693  13.356  0.00  0.00    +0.000 C 
ATOM     30  O   UNL     1       7.906   5.559  13.096  0.00  0.00    +0.000 OA
ENDBRANCH  22  29
ENDBRANCH  19  25
ENDBRANCH  17  19
ENDBRANCH   1  17
TORSDOF 5
ENDMDL
MODEL 5
REMARK VINA RESULT:      -8.8      4.456     10.610
REMARK  Name = 
REMARK  7 active torsions:
REMARK  status: ('A' for Active; 'I' for Inactive)
REMARK    1  A    between atoms: C_1  and  C_2
REMARK    2  A    between atoms: C_2  and  C_4
REMARK    3  A    between atoms: C_7  and  S_8
REMARK    4  A    between atoms: S_8  and  N_11
REMARK    5  A    between atoms: N_11  and  C_12
REMARK    6  A    between atoms: C_15  and  C_16
REMARK    7  A    between atoms: C_22  and  C_23
REMARK                            x       y       z     vdW  Elec       q    Type
REMARK                         _______ _______ _______ _____ _____    ______ ____
ROOT
ATOM      1  C   UNL     1       1.286  10.221  19.191  0.00  0.00    +0.000 A 
ATOM      2  C   UNL     1       1.840   9.886  17.957  0.00  0.00    +0.000 A 
ATOM      3  C   UNL     1       2.308   8.590  17.728  0.00  0.00    +0.000 A 
ATOM      4  C   UNL     1       2.218   7.616  18.732  0.00  0.00    +0.000 A 
ATOM      5  C   UNL     1       1.637   7.957  19.963  0.00  0.00    +0.000 A 
ATOM      6  C   UNL     1       1.187   9.261  20.197  0.00  0.00    +0.000 A 
ENDROOT
BRANCH   4   7
ATOM      7  C   UNL     1       2.704   6.218  18.516  0.00  0.00    +0.000 A 
ATOM      8  C   UNL     1       3.763   6.045  17.469  0.00  0.00    +0.000 A 
ATOM      9  C   UNL     1       4.206   4.807  17.222  0.00  0.00    +0.000 A 
ATOM     10  C   UNL     1       3.681   3.731  17.959  0.00  0.00    +0.000 A 
ATOM     11  N   UNL     1       3.922   2.441  17.935  0.00  0.00    +0.000 NA
ATOM     12  N   UNL     1       3.128   1.849  18.889  0.00  0.00    +0.000 NA
ATOM     13  C   UNL     1       2.418   2.796  19.475  0.00  0.00    +0.000 A 
ATOM     14  C   UNL     1       1.431   2.617  20.558  0.00  0.00    +0.000 C 
ATOM     15  N   UNL     1       2.732   4.016  18.919  0.00  0.00    +0.000 N 
ATOM     16  N   UNL     1       2.214   5.248  19.238  0.00  0.00    +0.000 NA
ENDBRANCH   4   7
BRANCH   1  17
ATOM     17  N   UNL     1       0.757  11.525  19.371  0.00  0.00    +0.000 N 
ATOM     18  H   UNL     1       1.024  12.043  20.207  0.00  0.00    +0.000 HD
BRANCH  17  19
ATOM     19  S   UNL     1      -0.839  11.826  18.893  0.00  0.00    +0.000 S 
ATOM     20  O   UNL     1      -1.386  10.642  18.273  0.00  0.00    +0.000 OA
ATOM     21  O   UNL     1      -0.822  13.101  18.204  0.00  0.00    +0.000 OA
BRANCH  19  25
ATOM     22  C   UNL     1      -3.012  12.522  22.860  0.00  0.00    +0.000 A 
ATOM     23  C   UNL     1      -3.642  12.820  21.644  0.00  0.00    +0.000 A 
ATOM     24  C   UNL     1      -2.986  12.589  20.433  0.00  0.00    +0.000 A 
ATOM     25  C   UNL     1      -1.686  12.076  20.442  0.00  0.00    +0.000 A 
ATOM     26  C   UNL     1      -1.060  11.743  21.649  0.00  0.00    +0.000 A 
ATOM     27  C   UNL     1      -1.723  11.974  22.861  0.00  0.00    +0.000 A 
BRANCH  22  29
ATOM     28  C   UNL     1      -3.488  14.142  24.810  0.00  0.00    +0.000 C 
ATOM     29  C   UNL     1      -3.745  12.829  24.120  0.00  0.00    +0.000 C 
ATOM     30  O   UNL     1      -4.523  11.997  24.583  0.00  0.00    +0.000 OA
ENDBRANCH  22  29
ENDBRANCH  19  25
ENDBRANCH  17  19
ENDBRANCH   1  17
TORSDOF 5
ENDMDL
MODEL 6
REMARK VINA RESULT:      -8.7      2.093      2.636
REMARK  Name = 
REMARK  7 active torsions:
REMARK  status: ('A' for Active; 'I' for Inactive)
REMARK    1  A    between atoms: C_1  and  C_2
REMARK    2  A    between atoms: C_2  and  C_4
REMARK    3  A    between atoms: C_7  and  S_8
REMARK    4  A    between atoms: S_8  and  N_11
REMARK    5  A    between atoms: N_11  and  C_12
REMARK    6  A    between atoms: C_15  and  C_16
REMARK    7  A    between atoms: C_22  and  C_23
REMARK                            x       y       z     vdW  Elec       q    Type
REMARK                         _______ _______ _______ _____ _____    ______ ____
ROOT
ATOM      1  C   UNL     1       2.257   7.483  19.775  0.00  0.00    +0.000 A 
ATOM      2  C   UNL     1       2.070   8.335  18.690  0.00  0.00    +0.000 A 
ATOM      3  C   UNL     1       1.116   9.354  18.754  0.00  0.00    +0.000 A 
ATOM      4  C   UNL     1       0.345   9.529  19.912  0.00  0.00    +0.000 A 
ATOM      5  C   UNL     1       0.556   8.680  21.008  0.00  0.00    +0.000 A 
ATOM      6  C   UNL     1       1.499   7.647  20.933  0.00  0.00    +0.000 A 
ENDROOT
BRANCH   4   7
ATOM      7  C   UNL     1      -0.681  10.613  20.015  0.00  0.00    +0.000 A 
ATOM      8  C   UNL     1      -1.581  10.782  18.828  0.00  0.00    +0.000 A 
ATOM      9  C   UNL     1      -2.494  11.759  18.865  0.00  0.00    +0.000 A 
ATOM     10  C   UNL     1      -2.586  12.568  20.012  0.00  0.00    +0.000 A 
ATOM     11  N   UNL     1      -3.367  13.576  20.323  0.00  0.00    +0.000 NA
ATOM     12  N   UNL     1      -3.031  13.990  21.591  0.00  0.00    +0.000 NA
ATOM     13  C   UNL     1      -2.048  13.222  22.024  0.00  0.00    +0.000 A 
ATOM     14  C   UNL     1      -1.373  13.309  23.334  0.00  0.00    +0.000 C 
ATOM     15  N   UNL     1      -1.725  12.298  21.055  0.00  0.00    +0.000 N 
ATOM     16  N   UNL     1      -0.756  11.326  21.105  0.00  0.00    +0.000 NA
ENDBRANCH   4   7
BRANCH   1  17
ATOM     17  N   UNL     1       3.280   6.502  19.706  0.00  0.00    +0.000 N 
ATOM     18  H   UNL     1       4.234   6.811  19.525  0.00  0.00    +0.000 HD
BRANCH  17  19
ATOM     19  S   UNL     1       2.926   5.010  18.988  0.00  0.00    +0.000 S 
ATOM     20  O   UNL     1       1.566   5.021  18.502  0.00  0.00    +0.000 OA
ATOM     21  O   UNL     1       3.390   3.995  19.913  0.00  0.00    +0.000 OA
BRANCH  19  25
ATOM     22  C   UNL     1       5.756   4.887  15.393  0.00  0.00    +0.000 A 
ATOM     23  C   UNL     1       5.285   3.698  15.968  0.00  0.00    +0.000 A 
ATOM     24  C   UNL     1       4.406   3.737  17.052  0.00  0.00    +0.000 A 
ATOM     25  C   UNL     1       4.013   4.971  17.576  0.00  0.00    +0.000 A 
ATOM     26  C   UNL     1       4.450   6.165  16.991  0.00  0.00    +0.000 A 
ATOM     27  C   UNL     1       5.329   6.122  15.901  0.00  0.00    +0.000 A 
BRANCH  22  29
ATOM     28  C   UNL     1       6.421   3.846  13.130  0.00  0.00    +0.000 C 
ATOM     29  C   UNL     1       6.724   4.784  14.267  0.00  0.00    +0.000 C 
ATOM     30  O   UNL     1       7.760   5.446  14.300  0.00  0.00    +0.000 OA
ENDBRANCH  22  29
ENDBRANCH  19  25
ENDBRANCH  17  19
ENDBRANCH   1  17
TORSDOF 5
ENDMDL
MODEL 7
REMARK VINA RESULT:      -8.7      4.510     10.607
REMARK  Name = 
REMARK  7 active torsions:
REMARK  status: ('A' for Active; 'I' for Inactive)
REMARK    1  A    between atoms: C_1  and  C_2
REMARK    2  A    between atoms: C_2  and  C_4
REMARK    3  A    between atoms: C_7  and  S_8
REMARK    4  A    between atoms: S_8  and  N_11
REMARK    5  A    between atoms: N_11  and  C_12
REMARK    6  A    between atoms: C_15  and  C_16
REMARK    7  A    between atoms: C_22  and  C_23
REMARK                            x       y       z     vdW  Elec       q    Type
REMARK                         _______ _______ _______ _____ _____    ______ ____
ROOT
ATOM      1  C   UNL     1       1.115  10.119  19.147  0.00  0.00    +0.000 A 
ATOM      2  C   UNL     1       1.076   9.271  20.250  0.00  0.00    +0.000 A 
ATOM      3  C   UNL     1       1.626   7.990  20.169  0.00  0.00    +0.000 A 
ATOM      4  C   UNL     1       2.227   7.551  18.981  0.00  0.00    +0.000 A 
ATOM      5  C   UNL     1       2.283   8.421  17.882  0.00  0.00    +0.000 A 
ATOM      6  C   UNL     1       1.712   9.697  17.960  0.00  0.00    +0.000 A 
ENDROOT
BRANCH   4   7
ATOM      7  C   UNL     1       2.831   6.187  18.864  0.00  0.00    +0.000 A 
ATOM      8  C   UNL     1       3.704   5.956  17.666  0.00  0.00    +0.000 A 
ATOM      9  C   UNL     1       4.242   4.742  17.506  0.00  0.00    +0.000 A 
ATOM     10  C   UNL     1       3.987   3.746  18.466  0.00  0.00    +0.000 A 
ATOM     11  N   UNL     1       4.371   2.496  18.568  0.00  0.00    +0.000 NA
ATOM     12  N   UNL     1       3.833   1.985  19.726  0.00  0.00    +0.000 NA
ATOM     13  C   UNL     1       3.129   2.940  20.305  0.00  0.00    +0.000 A 
ATOM     14  C   UNL     1       2.376   2.837  21.570  0.00  0.00    +0.000 C 
ATOM     15  N   UNL     1       3.193   4.085  19.542  0.00  0.00    +0.000 N 
ATOM     16  N   UNL     1       2.595   5.297  19.787  0.00  0.00    +0.000 NA
ENDBRANCH   4   7
BRANCH   1  17
ATOM     17  N   UNL     1       0.609  11.439  19.280  0.00  0.00    +0.000 N 
ATOM     18  H   UNL     1       0.894  11.985  20.091  0.00  0.00    +0.000 HD
BRANCH  17  19
ATOM     19  S   UNL     1      -0.987  11.746  18.807  0.00  0.00    +0.000 S 
ATOM     20  O   UNL     1      -1.572  10.538  18.275  0.00  0.00    +0.000 OA
ATOM     21  O   UNL     1      -0.952  12.973  18.036  0.00  0.00    +0.000 OA
BRANCH  19  25
ATOM     22  C   UNL     1      -3.088  12.650  22.772  0.00  0.00    +0.000 A 
ATOM     23  C   UNL     1      -1.888  11.924  22.753  0.00  0.00    +0.000 A 
ATOM     24  C   UNL     1      -1.238  11.666  21.545  0.00  0.00    +0.000 A 
ATOM     25  C   UNL     1      -1.802  12.118  20.349  0.00  0.00    +0.000 A 
ATOM     26  C   UNL     1      -2.981  12.872  20.358  0.00  0.00    +0.000 A 
ATOM     27  C   UNL     1      -3.629  13.132  21.572  0.00  0.00    +0.000 A 
BRANCH  22  29
ATOM     28  C   UNL     1      -3.528  14.149  24.823  0.00  0.00    +0.000 C 
ATOM     29  C   UNL     1      -3.758  12.858  24.085  0.00  0.00    +0.000 C 
ATOM     30  O   UNL     1      -4.464  11.964  24.549  0.00  0.00    +0.000 OA
ENDBRANCH  22  29
ENDBRANCH  19  25
ENDBRANCH  17  19
ENDBRANCH   1  17
TORSDOF 5
ENDMDL
MODEL 8
REMARK VINA RESULT:      -8.7      0.584      1.115
REMARK  Name = 
REMARK  7 active torsions:
REMARK  status: ('A' for Active; 'I' for Inactive)
REMARK    1  A    between atoms: C_1  and  C_2
REMARK    2  A    between atoms: C_2  and  C_4
REMARK    3  A    between atoms: C_7  and  S_8
REMARK    4  A    between atoms: S_8  and  N_11
REMARK    5  A    between atoms: N_11  and  C_12
REMARK    6  A    between atoms: C_15  and  C_16
REMARK    7  A    between atoms: C_22  and  C_23
REMARK                            x       y       z     vdW  Elec       q    Type
REMARK                         _______ _______ _______ _____ _____    ______ ____
ROOT
ATOM      1  C   UNL     1       2.563   5.705  19.285  0.00  0.00    +0.000 A 
ATOM      2  C   UNL     1       2.625   6.925  18.616  0.00  0.00    +0.000 A 
ATOM      3  C   UNL     1       2.051   8.065  19.184  0.00  0.00    +0.000 A 
ATOM      4  C   UNL     1       1.417   7.993  20.432  0.00  0.00    +0.000 A 
ATOM      5  C   UNL     1       1.381   6.765  21.109  0.00  0.00    +0.000 A 
ATOM      6  C   UNL     1       1.938   5.619  20.528  0.00  0.00    +0.000 A 
ENDROOT
BRANCH   4   7
ATOM      7  C   UNL     1       0.799   9.197  21.070  0.00  0.00    +0.000 A 
ATOM      8  C   UNL     1       0.035   8.950  22.336  0.00  0.00    +0.000 A 
ATOM      9  C   UNL     1      -0.559   9.994  22.925  0.00  0.00    +0.000 A 
ATOM     10  C   UNL     1      -0.429  11.271  22.351  0.00  0.00    +0.000 A 
ATOM     11  N   UNL     1      -0.889  12.449  22.700  0.00  0.00    +0.000 NA
ATOM     12  N   UNL     1      -0.439  13.365  21.777  0.00  0.00    +0.000 NA
ATOM     13  C   UNL     1       0.287  12.719  20.882  0.00  0.00    +0.000 A 
ATOM     14  C   UNL     1       0.966  13.305  19.710  0.00  0.00    +0.000 C 
ATOM     15  N   UNL     1       0.325  11.381  21.201  0.00  0.00    +0.000 N 
ATOM     16  N   UNL     1       0.964  10.370  20.524  0.00  0.00    +0.000 NA
ENDBRANCH   4   7
BRANCH   1  17
ATOM     17  N   UNL     1       3.214   4.579  18.716  0.00  0.00    +0.000 N 
ATOM     18  H   UNL     1       2.715   3.691  18.699  0.00  0.00    +0.000 HD
BRANCH  17  19
ATOM     19  S   UNL     1       4.878   4.395  18.964  0.00  0.00    +0.000 S 
ATOM     20  O   UNL     1       5.143   3.074  19.487  0.00  0.00    +0.000 OA
ATOM     21  O   UNL     1       5.319   5.586  19.661  0.00  0.00    +0.000 OA
BRANCH  19  25
ATOM     22  C   UNL     1       6.581   4.549  14.718  0.00  0.00    +0.000 A 
ATOM     23  C   UNL     1       5.226   4.257  14.930  0.00  0.00    +0.000 A 
ATOM     24  C   UNL     1       4.703   4.230  16.224  0.00  0.00    +0.000 A 
ATOM     25  C   UNL     1       5.545   4.475  17.312  0.00  0.00    +0.000 A 
ATOM     26  C   UNL     1       6.892   4.800  17.112  0.00  0.00    +0.000 A 
ATOM     27  C   UNL     1       7.412   4.830  15.811  0.00  0.00    +0.000 A 
BRANCH  22  29
ATOM     28  C   UNL     1       8.165   5.496  12.918  0.00  0.00    +0.000 C 
ATOM     29  C   UNL     1       7.091   4.522  13.319  0.00  0.00    +0.000 C 
ATOM     30  O   UNL     1       6.610   3.724  12.518  0.00  0.00    +0.000 OA
ENDBRANCH  22  29
ENDBRANCH  19  25
ENDBRANCH  17  19
ENDBRANCH   1  17
TORSDOF 5
ENDMDL
MODEL 9
REMARK VINA RESULT:      -8.6      4.509     10.455
REMARK  Name = 
REMARK  7 active torsions:
REMARK  status: ('A' for Active; 'I' for Inactive)
REMARK    1  A    between atoms: C_1  and  C_2
REMARK    2  A    between atoms: C_2  and  C_4
REMARK    3  A    between atoms: C_7  and  S_8
REMARK    4  A    between atoms: S_8  and  N_11
REMARK    5  A    between atoms: N_11  and  C_12
REMARK    6  A    between atoms: C_15  and  C_16
REMARK    7  A    between atoms: C_22  and  C_23
REMARK                            x       y       z     vdW  Elec       q    Type
REMARK                         _______ _______ _______ _____ _____    ______ ____
ROOT
ATOM      1  C   UNL     1       1.030  10.196  19.401  0.00  0.00    +0.000 A 
ATOM      2  C   UNL     1       0.880   9.551  20.627  0.00  0.00    +0.000 A 
ATOM      3  C   UNL     1       1.326   8.236  20.786  0.00  0.00    +0.000 A 
ATOM      4  C   UNL     1       1.932   7.560  19.717  0.00  0.00    +0.000 A 
ATOM      5  C   UNL     1       2.099   8.227  18.494  0.00  0.00    +0.000 A 
ATOM      6  C   UNL     1       1.633   9.537  18.332  0.00  0.00    +0.000 A 
ENDROOT
BRANCH   4   7
ATOM      7  C   UNL     1       2.425   6.155  19.857  0.00  0.00    +0.000 A 
ATOM      8  C   UNL     1       1.533   5.217  20.614  0.00  0.00    +0.000 A 
ATOM      9  C   UNL     1       1.949   3.958  20.788  0.00  0.00    +0.000 A 
ATOM     10  C   UNL     1       3.183   3.561  20.243  0.00  0.00    +0.000 A 
ATOM     11  N   UNL     1       3.829   2.419  20.253  0.00  0.00    +0.000 NA
ATOM     12  N   UNL     1       4.997   2.591  19.547  0.00  0.00    +0.000 NA
ATOM     13  C   UNL     1       5.036   3.841  19.123  0.00  0.00    +0.000 A 
ATOM     14  C   UNL     1       6.108   4.468  18.325  0.00  0.00    +0.000 C 
ATOM     15  N   UNL     1       3.903   4.504  19.539  0.00  0.00    +0.000 N 
ATOM     16  N   UNL     1       3.562   5.815  19.314  0.00  0.00    +0.000 NA
ENDBRANCH   4   7
BRANCH   1  17
ATOM     17  N   UNL     1       0.630  11.553  19.290  0.00  0.00    +0.000 N 
ATOM     18  H   UNL     1       0.980  12.218  19.979  0.00  0.00    +0.000 HD
BRANCH  17  19
ATOM     19  S   UNL     1      -0.952  11.894  18.793  0.00  0.00    +0.000 S 
ATOM     20  O   UNL     1      -1.538  10.709  18.210  0.00  0.00    +0.000 OA
ATOM     21  O   UNL     1      -0.887  13.143  18.061  0.00  0.00    +0.000 OA
BRANCH  19  25
ATOM     22  C   UNL     1      -3.113  12.698  22.747  0.00  0.00    +0.000 A 
ATOM     23  C   UNL     1      -1.751  12.367  22.736  0.00  0.00    +0.000 A 
ATOM     24  C   UNL     1      -1.088  12.142  21.528  0.00  0.00    +0.000 A 
ATOM     25  C   UNL     1      -1.797  12.227  20.327  0.00  0.00    +0.000 A 
ATOM     26  C   UNL     1      -3.149  12.588  20.323  0.00  0.00    +0.000 A 
ATOM     27  C   UNL     1      -3.810  12.817  21.536  0.00  0.00    +0.000 A 
BRANCH  22  29
ATOM     28  C   UNL     1      -3.544  14.165  24.823  0.00  0.00    +0.000 C 
ATOM     29  C   UNL     1      -3.777  12.885  24.067  0.00  0.00    +0.000 C 
ATOM     30  O   UNL     1      -4.480  11.984  24.521  0.00  0.00    +0.000 OA
ENDBRANCH  22  29
ENDBRANCH  19  25
ENDBRANCH  17  19
ENDBRANCH   1  17
TORSDOF 5
ENDMDL
