MODEL 1
REMARK VINA RESULT:      -7.7      0.000      0.000
REMARK  Name = 
REMARK  8 active torsions:
REMARK  status: ('A' for Active; 'I' for Inactive)
REMARK    1  A    between atoms: C_1  and  C_2
REMARK    2  A    between atoms: C_2  and  N_3
REMARK    3  A    between atoms: N_3  and  C_4
REMARK    4  A    between atoms: C_4  and  C_5
REMARK    5  A    between atoms: C_11  and  C_13
REMARK    6  A    between atoms: C_15  and  C_16
REMARK    7  A    between atoms: C_16  and  O_17
REMARK    8  A    between atoms: O_17  and  C_18
REMARK                            x       y       z     vdW  Elec       q    Type
REMARK                         _______ _______ _______ _____ _____    ______ ____
ROOT
ATOM      1  C   UNL     1       5.343   4.053  19.014  0.00  0.00    +0.000 A 
ATOM      2  C   UNL     1       5.812   3.924  17.681  0.00  0.00    +0.000 A 
ATOM      3  C   UNL     1       6.687   4.963  17.516  0.00  0.00    +0.000 A 
ATOM      4  O   UNL     1       6.761   5.672  18.674  0.00  0.00    +0.000 OA
ATOM      5  N   UNL     1       5.931   5.096  19.619  0.00  0.00    +0.000 NA
ENDROOT
BRANCH   1   7
ATOM      6  N   UNL     1       3.019   3.392  19.660  0.00  0.00    +0.000 N 
ATOM      7  C   UNL     1       4.403   3.123  19.659  0.00  0.00    +0.000 C 
ATOM      8  O   UNL     1       4.871   2.109  20.174  0.00  0.00    +0.000 OA
BRANCH   6  10
ATOM      9  C   UNL     1       1.657   2.781  21.765  0.00  0.00    +0.000 C 
ATOM     10  C   UNL     1       2.079   2.480  20.330  0.00  0.00    +0.000 C 
ENDBRANCH   6  10
BRANCH   6  11
ATOM     11  C   UNL     1       2.415   4.245  18.624  0.00  0.00    +0.000 C 
BRANCH  11  12
ATOM     12  C   UNL     1       2.244   5.712  18.950  0.00  0.00    +0.000 A 
ATOM     13  C   UNL     1       1.884   6.196  20.208  0.00  0.00    +0.000 A 
ATOM     14  C   UNL     1       1.770   7.570  20.387  0.00  0.00    +0.000 A 
ATOM     15  N   UNL     1       1.977   8.484  19.413  0.00  0.00    +0.000 NA
ATOM     16  C   UNL     1       2.324   8.001  18.205  0.00  0.00    +0.000 A 
ATOM     17  C   UNL     1       2.459   6.648  17.926  0.00  0.00    +0.000 A 
ENDBRANCH  11  12
ENDBRANCH   6  11
ENDBRANCH   1   7
BRANCH   3  18
ATOM     18  C   UNL     1       7.522   5.423  16.387  0.00  0.00    +0.000 C 
BRANCH  18  19
ATOM     19  O   UNL     1       6.610   5.802  15.359  0.00  0.00    +0.000 OA
BRANCH  19  20
ATOM     20  C   UNL     1       6.608   5.049  14.216  0.00  0.00    +0.000 A 
ATOM     21  C   UNL     1       7.573   5.054  13.210  0.00  0.00    +0.000 A 
ATOM     22  F   UNL     1       8.651   5.849  13.276  0.00  0.00    +0.000 F 
ATOM     23  C   UNL     1       7.455   4.230  12.088  0.00  0.00    +0.000 A 
ATOM     24  C   UNL     1       6.358   3.382  11.957  0.00  0.00    +0.000 A 
ATOM     25  C   UNL     1       5.384   3.362  12.953  0.00  0.00    +0.000 A 
ATOM     26  C   UNL     1       5.515   4.192  14.066  0.00  0.00    +0.000 A 
ATOM     27  F   UNL     1       4.561   4.146  15.009  0.00  0.00    +0.000 F 
ENDBRANCH  19  20
ENDBRANCH  18  19
ENDBRANCH   3  18
TORSDOF 7
ENDMDL
MODEL 2
REMARK VINA RESULT:      -7.5      0.556      1.651
REMARK  Name = 
REMARK  8 active torsions:
REMARK  status: ('A' for Active; 'I' for Inactive)
REMARK    1  A    between atoms: C_1  and  C_2
REMARK    2  A    between atoms: C_2  and  N_3
REMARK    3  A    between atoms: N_3  and  C_4
REMARK    4  A    between atoms: C_4  and  C_5
REMARK    5  A    between atoms: C_11  and  C_13
REMARK    6  A    between atoms: C_15  and  C_16
REMARK    7  A    between atoms: C_16  and  O_17
REMARK    8  A    between atoms: O_17  and  C_18
REMARK                            x       y       z     vdW  Elec       q    Type
REMARK                         _______ _______ _______ _____ _____    ______ ____
ROOT
ATOM      1  C   UNL     1       5.284   4.185  18.974  0.00  0.00    +0.000 A 
ATOM      2  C   UNL     1       5.300   4.448  17.580  0.00  0.00    +0.000 A 
ATOM      3  C   UNL     1       6.302   5.364  17.408  0.00  0.00    +0.000 A 
ATOM      4  O   UNL     1       6.871   5.633  18.613  0.00  0.00    +0.000 OA
ATOM      5  N   UNL     1       6.246   4.886  19.594  0.00  0.00    +0.000 NA
ENDROOT
BRANCH   1   7
ATOM      6  N   UNL     1       3.001   3.465  19.696  0.00  0.00    +0.000 N 
ATOM      7  C   UNL     1       4.387   3.220  19.629  0.00  0.00    +0.000 C 
ATOM      8  O   UNL     1       4.893   2.199  20.092  0.00  0.00    +0.000 OA
BRANCH   6  10
ATOM      9  C   UNL     1       1.779   2.739  21.851  0.00  0.00    +0.000 C 
ATOM     10  C   UNL     1       2.104   2.517  20.377  0.00  0.00    +0.000 C 
ENDBRANCH   6  10
BRANCH   6  11
ATOM     11  C   UNL     1       2.340   4.340  18.714  0.00  0.00    +0.000 C 
BRANCH  11  12
ATOM     12  C   UNL     1       2.142   5.788  19.101  0.00  0.00    +0.000 A 
ATOM     13  C   UNL     1       1.720   6.210  20.362  0.00  0.00    +0.000 A 
ATOM     14  C   UNL     1       1.589   7.574  20.600  0.00  0.00    +0.000 A 
ATOM     15  N   UNL     1       1.834   8.534  19.681  0.00  0.00    +0.000 NA
ATOM     16  C   UNL     1       2.240   8.110  18.469  0.00  0.00    +0.000 A 
ATOM     17  C   UNL     1       2.398   6.773  18.134  0.00  0.00    +0.000 A 
ENDBRANCH  11  12
ENDBRANCH   6  11
ENDBRANCH   1   7
BRANCH   3  18
ATOM     18  C   UNL     1       6.852   6.063  16.228  0.00  0.00    +0.000 C 
BRANCH  18  19
ATOM     19  O   UNL     1       7.663   5.107  15.552  0.00  0.00    +0.000 OA
BRANCH  19  20
ATOM     20  C   UNL     1       7.217   4.656  14.338  0.00  0.00    +0.000 A 
ATOM     21  C   UNL     1       6.196   3.734  14.113  0.00  0.00    +0.000 A 
ATOM     22  F   UNL     1       5.522   3.171  15.127  0.00  0.00    +0.000 F 
ATOM     23  C   UNL     1       5.832   3.358  12.818  0.00  0.00    +0.000 A 
ATOM     24  C   UNL     1       6.493   3.904  11.720  0.00  0.00    +0.000 A 
ATOM     25  C   UNL     1       7.515   4.828  11.925  0.00  0.00    +0.000 A 
ATOM     26  C   UNL     1       7.868   5.193  13.225  0.00  0.00    +0.000 A 
ATOM     27  F   UNL     1       8.855   6.087  13.388  0.00  0.00    +0.000 F 
ENDBRANCH  19  20
ENDBRANCH  18  19
ENDBRANCH   3  18
TORSDOF 7
ENDMDL
MODEL 3
REMARK VINA RESULT:      -7.5      4.692      7.705
REMARK  Name = 
REMARK  8 active torsions:
REMARK  status: ('A' for Active; 'I' for Inactive)
REMARK    1  A    between atoms: C_1  and  C_2
REMARK    2  A    between atoms: C_2  and  N_3
REMARK    3  A    between atoms: N_3  and  C_4
REMARK    4  A    between atoms: C_4  and  C_5
REMARK    5  A    between atoms: C_11  and  C_13
REMARK    6  A    between atoms: C_15  and  C_16
REMARK    7  A    between atoms: C_16  and  O_17
REMARK    8  A    between atoms: O_17  and  C_18
REMARK                            x       y       z     vdW  Elec       q    Type
REMARK                         _______ _______ _______ _____ _____    ______ ____
ROOT
ATOM      1  C   UNL     1       1.380   9.815  18.908  0.00  0.00    +0.000 A 
ATOM      2  C   UNL     1       1.697   8.517  19.390  0.00  0.00    +0.000 A 
ATOM      3  C   UNL     1       2.346   7.908  18.351  0.00  0.00    +0.000 A 
ATOM      4  O   UNL     1       2.435   8.777  17.309  0.00  0.00    +0.000 OA
ATOM      5  N   UNL     1       1.844   9.977  17.660  0.00  0.00    +0.000 NA
ENDROOT
BRANCH   1   7
ATOM      6  N   UNL     1      -0.673  11.092  19.544  0.00  0.00    +0.000 N 
ATOM      7  C   UNL     1       0.707  10.855  19.701  0.00  0.00    +0.000 C 
ATOM      8  O   UNL     1       1.391  11.486  20.506  0.00  0.00    +0.000 OA
BRANCH   6  10
ATOM      9  C   UNL     1      -1.273  13.589  19.805  0.00  0.00    +0.000 C 
ATOM     10  C   UNL     1      -1.345  12.152  20.313  0.00  0.00    +0.000 C 
ENDBRANCH   6  10
BRANCH   6  11
ATOM     11  C   UNL     1      -1.568  10.036  19.041  0.00  0.00    +0.000 C 
BRANCH  11  12
ATOM     12  C   UNL     1      -2.414  10.366  17.832  0.00  0.00    +0.000 A 
ATOM     13  C   UNL     1      -3.588  11.119  17.880  0.00  0.00    +0.000 A 
ATOM     14  C   UNL     1      -4.271  11.366  16.695  0.00  0.00    +0.000 A 
ATOM     15  N   UNL     1      -3.881  10.914  15.483  0.00  0.00    +0.000 NA
ATOM     16  C   UNL     1      -2.746  10.189  15.453  0.00  0.00    +0.000 A 
ATOM     17  C   UNL     1      -1.996   9.886  16.580  0.00  0.00    +0.000 A 
ENDBRANCH  11  12
ENDBRANCH   6  11
ENDBRANCH   1   7
BRANCH   3  18
ATOM     18  C   UNL     1       2.940   6.568  18.167  0.00  0.00    +0.000 C 
BRANCH  18  19
ATOM     19  O   UNL     1       1.844   5.682  17.958  0.00  0.00    +0.000 OA
BRANCH  19  20
ATOM     20  C   UNL     1       1.781   4.567  18.751  0.00  0.00    +0.000 A 
ATOM     21  C   UNL     1       1.431   4.520  20.100  0.00  0.00    +0.000 A 
ATOM     22  F   UNL     1       1.111   5.630  20.781  0.00  0.00    +0.000 F 
ATOM     23  C   UNL     1       1.401   3.311  20.799  0.00  0.00    +0.000 A 
ATOM     24  C   UNL     1       1.725   2.121  20.150  0.00  0.00    +0.000 A 
ATOM     25  C   UNL     1       2.076   2.148  18.802  0.00  0.00    +0.000 A 
ATOM     26  C   UNL     1       2.102   3.364  18.118  0.00  0.00    +0.000 A 
ATOM     27  F   UNL     1       2.442   3.355  16.820  0.00  0.00    +0.000 F 
ENDBRANCH  19  20
ENDBRANCH  18  19
ENDBRANCH   3  18
TORSDOF 7
ENDMDL
MODEL 4
REMARK VINA RESULT:      -7.4      4.744      7.773
REMARK  Name = 
REMARK  8 active torsions:
REMARK  status: ('A' for Active; 'I' for Inactive)
REMARK    1  A    between atoms: C_1  and  C_2
REMARK    2  A    between atoms: C_2  and  N_3
REMARK    3  A    between atoms: N_3  and  C_4
REMARK    4  A    between atoms: C_4  and  C_5
REMARK    5  A    between atoms: C_11  and  C_13
REMARK    6  A    between atoms: C_15  and  C_16
REMARK    7  A    between atoms: C_16  and  O_17
REMARK    8  A    between atoms: O_17  and  C_18
REMARK                            x       y       z     vdW  Elec       q    Type
REMARK                         _______ _______ _______ _____ _____    ______ ____
ROOT
ATOM      1  C   UNL     1       1.211  10.212  19.597  0.00  0.00    +0.000 A 
ATOM      2  C   UNL     1       1.701   9.588  18.420  0.00  0.00    +0.000 A 
ATOM      3  C   UNL     1       1.934   8.289  18.783  0.00  0.00    +0.000 A 
ATOM      4  O   UNL     1       1.595   8.124  20.090  0.00  0.00    +0.000 OA
ATOM      5  N   UNL     1       1.129   9.322  20.599  0.00  0.00    +0.000 NA
ENDROOT
BRANCH   1   7
ATOM      6  N   UNL     1      -0.513  11.993  19.273  0.00  0.00    +0.000 N 
ATOM      7  C   UNL     1       0.783  11.617  19.678  0.00  0.00    +0.000 C 
ATOM      8  O   UNL     1       1.591  12.431  20.123  0.00  0.00    +0.000 OA
BRANCH   6  10
ATOM      9  C   UNL     1      -1.945  13.831  20.382  0.00  0.00    +0.000 C 
ATOM     10  C   UNL     1      -0.935  13.402  19.322  0.00  0.00    +0.000 C 
ENDBRANCH   6  10
BRANCH   6  11
ATOM     11  C   UNL     1      -1.617  11.020  19.277  0.00  0.00    +0.000 C 
BRANCH  11  12
ATOM     12  C   UNL     1      -2.383  10.838  17.986  0.00  0.00    +0.000 A 
ATOM     13  C   UNL     1      -1.939  10.062  16.915  0.00  0.00    +0.000 A 
ATOM     14  C   UNL     1      -2.741   9.962  15.784  0.00  0.00    +0.000 A 
ATOM     15  N   UNL     1      -3.934  10.580  15.640  0.00  0.00    +0.000 NA
ATOM     16  C   UNL     1      -4.349  11.325  16.682  0.00  0.00    +0.000 A 
ATOM     17  C   UNL     1      -3.619  11.490  17.851  0.00  0.00    +0.000 A 
ENDBRANCH  11  12
ENDBRANCH   6  11
ENDBRANCH   1   7
BRANCH   3  18
ATOM     18  C   UNL     1       2.443   7.105  18.062  0.00  0.00    +0.000 C 
BRANCH  18  19
ATOM     19  O   UNL     1       2.788   6.156  19.067  0.00  0.00    +0.000 OA
BRANCH  19  20
ATOM     20  C   UNL     1       2.346   4.872  18.892  0.00  0.00    +0.000 A 
ATOM     21  C   UNL     1       2.724   3.988  17.883  0.00  0.00    +0.000 A 
ATOM     22  F   UNL     1       3.604   4.342  16.934  0.00  0.00    +0.000 F 
ATOM     23  C   UNL     1       2.201   2.694  17.817  0.00  0.00    +0.000 A 
ATOM     24  C   UNL     1       1.280   2.265  18.771  0.00  0.00    +0.000 A 
ATOM     25  C   UNL     1       0.891   3.133  19.788  0.00  0.00    +0.000 A 
ATOM     26  C   UNL     1       1.422   4.422  19.839  0.00  0.00    +0.000 A 
ATOM     27  F   UNL     1       1.028   5.233  20.834  0.00  0.00    +0.000 F 
ENDBRANCH  19  20
ENDBRANCH  18  19
ENDBRANCH   3  18
TORSDOF 7
ENDMDL
MODEL 5
REMARK VINA RESULT:      -7.4      4.622      7.656
REMARK  Name = 
REMARK  8 active torsions:
REMARK  status: ('A' for Active; 'I' for Inactive)
REMARK    1  A    between atoms: C_1  and  C_2
REMARK    2  A    between atoms: C_2  and  N_3
REMARK    3  A    between atoms: N_3  and  C_4
REMARK    4  A    between atoms: C_4  and  C_5
REMARK    5  A    between atoms: C_11  and  C_13
REMARK    6  A    between atoms: C_15  and  C_16
REMARK    7  A    between atoms: C_16  and  O_17
REMARK    8  A    between atoms: O_17  and  C_18
REMARK                            x       y       z     vdW  Elec       q    Type
REMARK                         _______ _______ _______ _____ _____    ______ ____
ROOT
ATOM      1  C   UNL     1       1.347   9.997  18.923  0.00  0.00    +0.000 A 
ATOM      2  C   UNL     1       1.767   8.745  19.442  0.00  0.00    +0.000 A 
ATOM      3  C   UNL     1       2.351   8.105  18.382  0.00  0.00    +0.000 A 
ATOM      4  O   UNL     1       2.304   8.916  17.291  0.00  0.00    +0.000 OA
ATOM      5  N   UNL     1       1.690  10.108  17.630  0.00  0.00    +0.000 NA
ENDROOT
BRANCH   1   7
ATOM      6  N   UNL     1      -0.689  11.279  19.604  0.00  0.00    +0.000 N 
ATOM      7  C   UNL     1       0.697  11.051  19.717  0.00  0.00    +0.000 C 
ATOM      8  O   UNL     1       1.406  11.701  20.485  0.00  0.00    +0.000 OA
BRANCH   6  10
ATOM      9  C   UNL     1      -1.736  12.084  21.822  0.00  0.00    +0.000 C 
ATOM     10  C   UNL     1      -1.337  12.353  20.374  0.00  0.00    +0.000 C 
ENDBRANCH   6  10
BRANCH   6  11
ATOM     11  C   UNL     1      -1.596  10.211  19.154  0.00  0.00    +0.000 C 
BRANCH  11  12
ATOM     12  C   UNL     1      -2.424  10.482  17.918  0.00  0.00    +0.000 A 
ATOM     13  C   UNL     1      -3.603  11.229  17.914  0.00  0.00    +0.000 A 
ATOM     14  C   UNL     1      -4.268  11.420  16.709  0.00  0.00    +0.000 A 
ATOM     15  N   UNL     1      -3.856  10.918  15.524  0.00  0.00    +0.000 NA
ATOM     16  C   UNL     1      -2.716  10.201  15.544  0.00  0.00    +0.000 A 
ATOM     17  C   UNL     1      -1.983   9.951  16.695  0.00  0.00    +0.000 A 
ENDBRANCH  11  12
ENDBRANCH   6  11
ENDBRANCH   1   7
BRANCH   3  18
ATOM     18  C   UNL     1       2.990   6.784  18.216  0.00  0.00    +0.000 C 
BRANCH  18  19
ATOM     19  O   UNL     1       3.207   6.288  19.534  0.00  0.00    +0.000 OA
BRANCH  19  20
ATOM     20  C   UNL     1       2.832   4.996  19.786  0.00  0.00    +0.000 A 
ATOM     21  C   UNL     1       3.501   3.839  19.389  0.00  0.00    +0.000 A 
ATOM     22  F   UNL     1       4.638   3.894  18.679  0.00  0.00    +0.000 F 
ATOM     23  C   UNL     1       3.014   2.571  19.716  0.00  0.00    +0.000 A 
ATOM     24  C   UNL     1       1.837   2.444  20.450  0.00  0.00    +0.000 A 
ATOM     25  C   UNL     1       1.155   3.588  20.856  0.00  0.00    +0.000 A 
ATOM     26  C   UNL     1       1.654   4.847  20.522  0.00  0.00    +0.000 A 
ATOM     27  F   UNL     1       0.974   5.929  20.931  0.00  0.00    +0.000 F 
ENDBRANCH  19  20
ENDBRANCH  18  19
ENDBRANCH   3  18
TORSDOF 7
ENDMDL
MODEL 6
REMARK VINA RESULT:      -7.4      4.238      8.241
REMARK  Name = 
REMARK  8 active torsions:
REMARK  status: ('A' for Active; 'I' for Inactive)
REMARK    1  A    between atoms: C_1  and  C_2
REMARK    2  A    between atoms: C_2  and  N_3
REMARK    3  A    between atoms: N_3  and  C_4
REMARK    4  A    between atoms: C_4  and  C_5
REMARK    5  A    between atoms: C_11  and  C_13
REMARK    6  A    between atoms: C_15  and  C_16
REMARK    7  A    between atoms: C_16  and  O_17
REMARK    8  A    between atoms: O_17  and  C_18
REMARK                            x       y       z     vdW  Elec       q    Type
REMARK                         _______ _______ _______ _____ _____    ______ ____
ROOT
ATOM      1  C   UNL     1       2.191   5.577  19.094  0.00  0.00    +0.000 A 
ATOM      2  C   UNL     1       1.799   5.946  20.407  0.00  0.00    +0.000 A 
ATOM      3  C   UNL     1       1.870   7.312  20.422  0.00  0.00    +0.000 A 
ATOM      4  O   UNL     1       2.263   7.752  19.197  0.00  0.00    +0.000 OA
ATOM      5  N   UNL     1       2.450   6.668  18.358  0.00  0.00    +0.000 NA
ENDROOT
BRANCH   1   7
ATOM      6  N   UNL     1       3.458   3.571  18.305  0.00  0.00    +0.000 N 
ATOM      7  C   UNL     1       2.228   4.194  18.594  0.00  0.00    +0.000 C 
ATOM      8  O   UNL     1       1.153   3.610  18.460  0.00  0.00    +0.000 OA
BRANCH   6  10
ATOM      9  C   UNL     1       3.816   1.050  18.729  0.00  0.00    +0.000 C 
ATOM     10  C   UNL     1       3.498   2.198  17.776  0.00  0.00    +0.000 C 
ENDBRANCH   6  10
BRANCH   6  11
ATOM     11  C   UNL     1       4.701   4.015  18.957  0.00  0.00    +0.000 C 
BRANCH  11  12
ATOM     12  C   UNL     1       5.670   4.821  18.122  0.00  0.00    +0.000 A 
ATOM     13  C   UNL     1       5.720   4.784  16.728  0.00  0.00    +0.000 A 
ATOM     14  C   UNL     1       6.649   5.583  16.071  0.00  0.00    +0.000 A 
ATOM     15  N   UNL     1       7.528   6.397  16.695  0.00  0.00    +0.000 NA
ATOM     16  C   UNL     1       7.467   6.422  18.041  0.00  0.00    +0.000 A 
ATOM     17  C   UNL     1       6.579   5.660  18.786  0.00  0.00    +0.000 A 
ENDBRANCH  11  12
ENDBRANCH   6  11
ENDBRANCH   1   7
BRANCH   3  18
ATOM     18  C   UNL     1       1.605   8.335  21.455  0.00  0.00    +0.000 C 
BRANCH  18  19
ATOM     19  O   UNL     1       0.188   8.469  21.515  0.00  0.00    +0.000 OA
BRANCH  19  20
ATOM     20  C   UNL     1      -0.323   9.738  21.455  0.00  0.00    +0.000 A 
ATOM     21  C   UNL     1      -0.597  10.475  20.303  0.00  0.00    +0.000 A 
ATOM     22  F   UNL     1      -0.366   9.976  19.079  0.00  0.00    +0.000 F 
ATOM     23  C   UNL     1      -1.124  11.767  20.377  0.00  0.00    +0.000 A 
ATOM     24  C   UNL     1      -1.385  12.344  21.618  0.00  0.00    +0.000 A 
ATOM     25  C   UNL     1      -1.118  11.623  22.780  0.00  0.00    +0.000 A 
ATOM     26  C   UNL     1      -0.591  10.335  22.689  0.00  0.00    +0.000 A 
ATOM     27  F   UNL     1      -0.349   9.666  23.827  0.00  0.00    +0.000 F 
ENDBRANCH  19  20
ENDBRANCH  18  19
ENDBRANCH   3  18
TORSDOF 7
ENDMDL
MODEL 7
REMARK VINA RESULT:      -7.3      4.654      7.630
REMARK  Name = 
REMARK  8 active torsions:
REMARK  status: ('A' for Active; 'I' for Inactive)
REMARK    1  A    between atoms: C_1  and  C_2
REMARK    2  A    between atoms: C_2  and  N_3
REMARK    3  A    between atoms: N_3  and  C_4
REMARK    4  A    between atoms: C_4  and  C_5
REMARK    5  A    between atoms: C_11  and  C_13
REMARK    6  A    between atoms: C_15  and  C_16
REMARK    7  A    between atoms: C_16  and  O_17
REMARK    8  A    between atoms: O_17  and  C_18
REMARK                            x       y       z     vdW  Elec       q    Type
REMARK                         _______ _______ _______ _____ _____    ______ ____
ROOT
ATOM      1  C   UNL     1       1.421  10.080  18.782  0.00  0.00    +0.000 A 
ATOM      2  C   UNL     1       1.529   9.042  19.744  0.00  0.00    +0.000 A 
ATOM      3  C   UNL     1       2.031   7.974  19.051  0.00  0.00    +0.000 A 
ATOM      4  O   UNL     1       2.232   8.337  17.756  0.00  0.00    +0.000 OA
ATOM      5  N   UNL     1       1.865   9.660  17.587  0.00  0.00    +0.000 NA
ENDROOT
BRANCH   1   7
ATOM      6  N   UNL     1      -0.390  11.800  18.891  0.00  0.00    +0.000 N 
ATOM      7  C   UNL     1       0.960  11.445  19.079  0.00  0.00    +0.000 C 
ATOM      8  O   UNL     1       1.792  12.244  19.507  0.00  0.00    +0.000 OA
BRANCH   6  10
ATOM      9  C   UNL     1      -1.753  13.427  20.360  0.00  0.00    +0.000 C 
ATOM     10  C   UNL     1      -0.850  13.172  19.158  0.00  0.00    +0.000 C 
ENDBRANCH   6  10
BRANCH   6  11
ATOM     11  C   UNL     1      -1.451  10.780  18.925  0.00  0.00    +0.000 C 
BRANCH  11  12
ATOM     12  C   UNL     1      -2.386  10.715  17.738  0.00  0.00    +0.000 A 
ATOM     13  C   UNL     1      -3.615  11.374  17.674  0.00  0.00    +0.000 A 
ATOM     14  C   UNL     1      -4.381  11.248  16.521  0.00  0.00    +0.000 A 
ATOM     15  N   UNL     1      -4.021  10.514  15.445  0.00  0.00    +0.000 NA
ATOM     16  C   UNL     1      -2.833   9.885  15.522  0.00  0.00    +0.000 A 
ATOM     17  C   UNL     1      -1.999   9.946  16.630  0.00  0.00    +0.000 A 
ENDBRANCH  11  12
ENDBRANCH   6  11
ENDBRANCH   1   7
BRANCH   3  18
ATOM     18  C   UNL     1       2.383   6.590  19.428  0.00  0.00    +0.000 C 
BRANCH  18  19
ATOM     19  O   UNL     1       2.059   5.785  18.297  0.00  0.00    +0.000 OA
BRANCH  19  20
ATOM     20  C   UNL     1       2.291   4.440  18.400  0.00  0.00    +0.000 A 
ATOM     21  C   UNL     1       1.584   3.527  19.182  0.00  0.00    +0.000 A 
ATOM     22  F   UNL     1       0.555   3.912  19.952  0.00  0.00    +0.000 F 
ATOM     23  C   UNL     1       1.920   2.171  19.196  0.00  0.00    +0.000 A 
ATOM     24  C   UNL     1       2.980   1.706  18.421  0.00  0.00    +0.000 A 
ATOM     25  C   UNL     1       3.698   2.603  17.633  0.00  0.00    +0.000 A 
ATOM     26  C   UNL     1       3.351   3.954  17.630  0.00  0.00    +0.000 A 
ATOM     27  F   UNL     1       4.060   4.791  16.857  0.00  0.00    +0.000 F 
ENDBRANCH  19  20
ENDBRANCH  18  19
ENDBRANCH   3  18
TORSDOF 7
ENDMDL
MODEL 8
REMARK VINA RESULT:      -7.3      4.589      7.446
REMARK  Name = 
REMARK  8 active torsions:
REMARK  status: ('A' for Active; 'I' for Inactive)
REMARK    1  A    between atoms: C_1  and  C_2
REMARK    2  A    between atoms: C_2  and  N_3
REMARK    3  A    between atoms: N_3  and  C_4
REMARK    4  A    between atoms: C_4  and  C_5
REMARK    5  A    between atoms: C_11  and  C_13
REMARK    6  A    between atoms: C_15  and  C_16
REMARK    7  A    between atoms: C_16  and  O_17
REMARK    8  A    between atoms: O_17  and  C_18
REMARK                            x       y       z     vdW  Elec       q    Type
REMARK                         _______ _______ _______ _____ _____    ______ ____
ROOT
ATOM      1  C   UNL     1       1.359   9.960  18.827  0.00  0.00    +0.000 A 
ATOM      2  C   UNL     1       1.723   8.762  19.496  0.00  0.00    +0.000 A 
ATOM      3  C   UNL     1       2.322   7.993  18.536  0.00  0.00    +0.000 A 
ATOM      4  O   UNL     1       2.339   8.679  17.361  0.00  0.00    +0.000 OA
ATOM      5  N   UNL     1       1.750   9.917  17.544  0.00  0.00    +0.000 NA
ENDROOT
BRANCH   1   7
ATOM      6  N   UNL     1      -0.662  11.354  19.300  0.00  0.00    +0.000 N 
ATOM      7  C   UNL     1       0.715  11.112  19.475  0.00  0.00    +0.000 C 
ATOM      8  O   UNL     1       1.421  11.834  20.180  0.00  0.00    +0.000 OA
BRANCH   6  10
ATOM      9  C   UNL     1      -2.021  12.346  21.257  0.00  0.00    +0.000 C 
ATOM     10  C   UNL     1      -1.304  12.523  19.922  0.00  0.00    +0.000 C 
ENDBRANCH   6  10
BRANCH   6  11
ATOM     11  C   UNL     1      -1.582  10.258  18.955  0.00  0.00    +0.000 C 
BRANCH  11  12
ATOM     12  C   UNL     1      -2.387  10.406  17.684  0.00  0.00    +0.000 A 
ATOM     13  C   UNL     1      -2.019   9.853  16.456  0.00  0.00    +0.000 A 
ATOM     14  C   UNL     1      -2.851  10.048  15.360  0.00  0.00    +0.000 A 
ATOM     15  N   UNL     1      -4.003  10.754  15.395  0.00  0.00    +0.000 NA
ATOM     16  C   UNL     1      -4.344  11.281  16.586  0.00  0.00    +0.000 A 
ATOM     17  C   UNL     1      -3.579  11.145  17.736  0.00  0.00    +0.000 A 
ENDBRANCH  11  12
ENDBRANCH   6  11
ENDBRANCH   1   7
BRANCH   3  18
ATOM     18  C   UNL     1       2.926   6.645  18.540  0.00  0.00    +0.000 C 
BRANCH  18  19
ATOM     19  O   UNL     1       1.894   5.756  18.121  0.00  0.00    +0.000 OA
BRANCH  19  20
ATOM     20  C   UNL     1       2.093   4.419  18.339  0.00  0.00    +0.000 A 
ATOM     21  C   UNL     1       2.890   3.559  17.584  0.00  0.00    +0.000 A 
ATOM     22  F   UNL     1       3.569   3.992  16.511  0.00  0.00    +0.000 F 
ATOM     23  C   UNL     1       3.014   2.207  17.916  0.00  0.00    +0.000 A 
ATOM     24  C   UNL     1       2.334   1.694  19.018  0.00  0.00    +0.000 A 
ATOM     25  C   UNL     1       1.533   2.538  19.784  0.00  0.00    +0.000 A 
ATOM     26  C   UNL     1       1.419   3.885  19.440  0.00  0.00    +0.000 A 
ATOM     27  F   UNL     1       0.642   4.672  20.200  0.00  0.00    +0.000 F 
ENDBRANCH  19  20
ENDBRANCH  18  19
ENDBRANCH   3  18
TORSDOF 7
ENDMDL
MODEL 9
REMARK VINA RESULT:      -7.3      5.196      7.009
REMARK  Name = 
REMARK  8 active torsions:
REMARK  status: ('A' for Active; 'I' for Inactive)
REMARK    1  A    between atoms: C_1  and  C_2
REMARK    2  A    between atoms: C_2  and  N_3
REMARK    3  A    between atoms: N_3  and  C_4
REMARK    4  A    between atoms: C_4  and  C_5
REMARK    5  A    between atoms: C_11  and  C_13
REMARK    6  A    between atoms: C_15  and  C_16
REMARK    7  A    between atoms: C_16  and  O_17
REMARK    8  A    between atoms: O_17  and  C_18
REMARK                            x       y       z     vdW  Elec       q    Type
REMARK                         _______ _______ _______ _____ _____    ______ ____
ROOT
ATOM      1  C   UNL     1       7.459   6.495  17.703  0.00  0.00    +0.000 A 
ATOM      2  C   UNL     1       7.501   7.819  17.194  0.00  0.00    +0.000 A 
ATOM      3  C   UNL     1       8.215   8.528  18.121  0.00  0.00    +0.000 A 
ATOM      4  O   UNL     1       8.598   7.693  19.123  0.00  0.00    +0.000 OA
ATOM      5  N   UNL     1       8.138   6.416  18.857  0.00  0.00    +0.000 NA
ENDROOT
BRANCH   1   7
ATOM      6  N   UNL     1       5.433   5.346  16.796  0.00  0.00    +0.000 N 
ATOM      7  C   UNL     1       6.824   5.360  17.017  0.00  0.00    +0.000 C 
ATOM      8  O   UNL     1       7.555   4.446  16.636  0.00  0.00    +0.000 OA
BRANCH   6  10
ATOM      9  C   UNL     1       4.072   3.161  16.996  0.00  0.00    +0.000 C 
ATOM     10  C   UNL     1       4.789   4.198  16.137  0.00  0.00    +0.000 C 
ENDBRANCH   6  10
BRANCH   6  11
ATOM     11  C   UNL     1       4.666   6.601  16.731  0.00  0.00    +0.000 C 
BRANCH  11  12
ATOM     12  C   UNL     1       3.694   6.875  17.857  0.00  0.00    +0.000 A 
ATOM     13  C   UNL     1       3.519   6.040  18.961  0.00  0.00    +0.000 A 
ATOM     14  C   UNL     1       2.603   6.408  19.939  0.00  0.00    +0.000 A 
ATOM     15  N   UNL     1       1.849   7.529  19.892  0.00  0.00    +0.000 NA
ATOM     16  C   UNL     1       2.030   8.325  18.821  0.00  0.00    +0.000 A 
ATOM     17  C   UNL     1       2.916   8.042  17.791  0.00  0.00    +0.000 A 
ENDBRANCH  11  12
ENDBRANCH   6  11
ENDBRANCH   1   7
BRANCH   3  18
ATOM     18  C   UNL     1       8.630   9.943  18.224  0.00  0.00    +0.000 C 
BRANCH  18  19
ATOM     19  O   UNL     1       9.566   9.996  19.297  0.00  0.00    +0.000 OA
BRANCH  19  20
ATOM     20  C   UNL     1       9.914  11.235  19.763  0.00  0.00    +0.000 A 
ATOM     21  C   UNL     1       9.431  11.862  20.911  0.00  0.00    +0.000 A 
ATOM     22  F   UNL     1       8.526  11.271  21.706  0.00  0.00    +0.000 F 
ATOM     23  C   UNL     1       9.871  13.135  21.282  0.00  0.00    +0.000 A 
ATOM     24  C   UNL     1      10.809  13.805  20.499  0.00  0.00    +0.000 A 
ATOM     25  C   UNL     1      11.303  13.195  19.349  0.00  0.00    +0.000 A 
ATOM     26  C   UNL     1      10.853  11.924  18.991  0.00  0.00    +0.000 A 
ATOM     27  F   UNL     1      11.352  11.363  17.879  0.00  0.00    +0.000 F 
ENDBRANCH  19  20
ENDBRANCH  18  19
ENDBRANCH   3  18
TORSDOF 7
ENDMDL
