MODEL 1
REMARK VINA RESULT:      -6.8      0.000      0.000
REMARK  Name = 
REMARK  9 active torsions:
REMARK  status: ('A' for Active; 'I' for Inactive)
REMARK    1  A    between atoms: C_1  and  C_2
REMARK    2  A    between atoms: C_5  and  S_6
REMARK    3  A    between atoms: S_6  and  N_9
REMARK    4  A    between atoms: N_9  and  C_10
REMARK    5  A    between atoms: C_10  and  C_11
REMARK    6  A    between atoms: C_10  and  C_15
REMARK    7  A    between atoms: C_11  and  C_13
REMARK    8  A    between atoms: C_15  and  C_16
REMARK    9  A    between atoms: C_15  and  C_17
REMARK                            x       y       z     vdW  Elec       q    Type
REMARK                         _______ _______ _______ _____ _____    ______ ____
ROOT
ATOM      1  S   UNL     1       4.037   4.230  17.762  0.00  0.00    +0.000 S 
ATOM      2  O   UNL     1       4.954   3.560  18.657  0.00  0.00    +0.000 OA
ATOM      3  O   UNL     1       3.109   3.495  16.932  0.00  0.00    +0.000 OA
ENDROOT
BRANCH   1   8
ATOM      4  C   UNL     1       1.004   8.278  21.122  0.00  0.00    +0.000 C 
ATOM      5  C   UNL     1       1.744   7.276  20.287  0.00  0.00    +0.000 A 
ATOM      6  C   UNL     1       1.841   5.944  20.699  0.00  0.00    +0.000 A 
ATOM      7  C   UNL     1       2.539   5.014  19.926  0.00  0.00    +0.000 A 
ATOM      8  C   UNL     1       3.128   5.413  18.719  0.00  0.00    +0.000 A 
ATOM      9  C   UNL     1       3.054   6.744  18.304  0.00  0.00    +0.000 A 
ATOM     10  C   UNL     1       2.361   7.670  19.090  0.00  0.00    +0.000 A 
ENDBRANCH   1   8
BRANCH   1  11
ATOM     11  N   UNL     1       4.994   5.146  16.724  0.00  0.00    +0.000 NA
ATOM     12  H   UNL     1       4.724   6.126  16.787  0.00  0.00    +0.000 HD
BRANCH  11  13
ATOM     13  C   UNL     1       6.447   4.839  16.582  0.00  0.00    +0.000 C 
BRANCH  13  14
ATOM     14  C   UNL     1       7.276   5.980  17.250  0.00  0.00    +0.000 C 
ATOM     15  C   UNL     1       6.523   7.318  17.292  0.00  0.00    +0.000 C 
ATOM     16  C   UNL     1       7.689   5.635  18.689  0.00  0.00    +0.000 C 
ENDBRANCH  13  14
BRANCH  13  17
ATOM     17  C   UNL     1       6.804   4.752  15.092  0.00  0.00    +0.000 C 
ATOM     18  O   UNL     1       7.785   5.352  14.637  0.00  0.00    +0.000 OA
BRANCH  17  19
ATOM     19  C   UNL     1       5.888   3.983  14.170  0.00  0.00    +0.000 C 
ATOM     20 CL   UNL     1       6.604   3.775  12.568  0.00  0.00    +0.000 Cl
ENDBRANCH  17  19
ENDBRANCH  13  17
ENDBRANCH  11  13
ENDBRANCH   1  11
TORSDOF 6
ENDMDL
MODEL 2
REMARK VINA RESULT:      -6.7      2.912      5.890
REMARK  Name = 
REMARK  9 active torsions:
REMARK  status: ('A' for Active; 'I' for Inactive)
REMARK    1  A    between atoms: C_1  and  C_2
REMARK    2  A    between atoms: C_5  and  S_6
REMARK    3  A    between atoms: S_6  and  N_9
REMARK    4  A    between atoms: N_9  and  C_10
REMARK    5  A    between atoms: C_10  and  C_11
REMARK    6  A    between atoms: C_10  and  C_15
REMARK    7  A    between atoms: C_11  and  C_13
REMARK    8  A    between atoms: C_15  and  C_16
REMARK    9  A    between atoms: C_15  and  C_17
REMARK                            x       y       z     vdW  Elec       q    Type
REMARK                         _______ _______ _______ _____ _____    ______ ____
ROOT
ATOM      1  S   UNL     1       4.535   3.686  18.423  0.00  0.00    +0.000 S 
ATOM      2  O   UNL     1       4.414   2.998  17.157  0.00  0.00    +0.000 OA
ATOM      3  O   UNL     1       4.915   2.992  19.633  0.00  0.00    +0.000 OA
ENDROOT
BRANCH   1   8
ATOM      4  C   UNL     1       8.237   8.436  17.642  0.00  0.00    +0.000 C 
ATOM      5  C   UNL     1       7.329   7.257  17.827  0.00  0.00    +0.000 A 
ATOM      6  C   UNL     1       6.183   7.114  17.038  0.00  0.00    +0.000 A 
ATOM      7  C   UNL     1       5.333   6.021  17.219  0.00  0.00    +0.000 A 
ATOM      8  C   UNL     1       5.639   5.052  18.182  0.00  0.00    +0.000 A 
ATOM      9  C   UNL     1       6.769   5.191  18.989  0.00  0.00    +0.000 A 
ATOM     10  C   UNL     1       7.610   6.293  18.807  0.00  0.00    +0.000 A 
ENDBRANCH   1   8
BRANCH   1  11
ATOM     11  N   UNL     1       3.031   4.381  18.715  0.00  0.00    +0.000 NA
ATOM     12  H   UNL     1       2.311   3.855  18.224  0.00  0.00    +0.000 HD
BRANCH  11  13
ATOM     13  C   UNL     1       2.700   4.898  20.074  0.00  0.00    +0.000 C 
BRANCH  13  14
ATOM     14  C   UNL     1       1.568   4.020  20.693  0.00  0.00    +0.000 C 
ATOM     15  C   UNL     1       0.859   3.142  19.651  0.00  0.00    +0.000 C 
ATOM     16  C   UNL     1       2.089   3.093  21.802  0.00  0.00    +0.000 C 
ENDBRANCH  13  14
BRANCH  13  17
ATOM     17  C   UNL     1       2.216   6.350  19.960  0.00  0.00    +0.000 C 
ATOM     18  O   UNL     1       1.519   6.860  20.846  0.00  0.00    +0.000 OA
BRANCH  17  19
ATOM     19  C   UNL     1       2.539   7.127  18.706  0.00  0.00    +0.000 C 
ATOM     20 CL   UNL     1       1.742   8.704  18.694  0.00  0.00    +0.000 Cl
ENDBRANCH  17  19
ENDBRANCH  13  17
ENDBRANCH  11  13
ENDBRANCH   1  11
TORSDOF 6
ENDMDL
MODEL 3
REMARK VINA RESULT:      -6.6      2.795      5.667
REMARK  Name = 
REMARK  9 active torsions:
REMARK  status: ('A' for Active; 'I' for Inactive)
REMARK    1  A    between atoms: C_1  and  C_2
REMARK    2  A    between atoms: C_5  and  S_6
REMARK    3  A    between atoms: S_6  and  N_9
REMARK    4  A    between atoms: N_9  and  C_10
REMARK    5  A    between atoms: C_10  and  C_11
REMARK    6  A    between atoms: C_10  and  C_15
REMARK    7  A    between atoms: C_11  and  C_13
REMARK    8  A    between atoms: C_15  and  C_16
REMARK    9  A    between atoms: C_15  and  C_17
REMARK                            x       y       z     vdW  Elec       q    Type
REMARK                         _______ _______ _______ _____ _____    ______ ____
ROOT
ATOM      1  S   UNL     1       4.615   3.741  18.427  0.00  0.00    +0.000 S 
ATOM      2  O   UNL     1       4.538   3.065  17.151  0.00  0.00    +0.000 OA
ATOM      3  O   UNL     1       5.006   3.047  19.634  0.00  0.00    +0.000 OA
ENDROOT
BRANCH   1   8
ATOM      4  C   UNL     1       8.296   8.511  17.667  0.00  0.00    +0.000 C 
ATOM      5  C   UNL     1       7.381   7.338  17.863  0.00  0.00    +0.000 A 
ATOM      6  C   UNL     1       7.667   6.370  18.830  0.00  0.00    +0.000 A 
ATOM      7  C   UNL     1       6.819   5.274  19.004  0.00  0.00    +0.000 A 
ATOM      8  C   UNL     1       5.666   5.153  18.218  0.00  0.00    +0.000 A 
ATOM      9  C   UNL     1       5.378   6.102  17.236  0.00  0.00    +0.000 A 
ATOM     10  C   UNL     1       6.237   7.192  17.063  0.00  0.00    +0.000 A 
ENDBRANCH   1   8
BRANCH   1  11
ATOM     11  N   UNL     1       3.080   4.372  18.708  0.00  0.00    +0.000 NA
ATOM     12  H   UNL     1       2.376   3.710  18.387  0.00  0.00    +0.000 HD
BRANCH  11  13
ATOM     13  C   UNL     1       2.800   5.120  19.968  0.00  0.00    +0.000 C 
BRANCH  13  14
ATOM     14  C   UNL     1       1.685   4.376  20.765  0.00  0.00    +0.000 C 
ATOM     15  C   UNL     1       0.711   3.612  19.856  0.00  0.00    +0.000 C 
ATOM     16  C   UNL     1       2.261   3.371  21.775  0.00  0.00    +0.000 C 
ENDBRANCH  13  14
BRANCH  13  17
ATOM     17  C   UNL     1       2.323   6.536  19.621  0.00  0.00    +0.000 C 
ATOM     18  O   UNL     1       1.917   7.305  20.501  0.00  0.00    +0.000 OA
BRANCH  17  19
ATOM     19  C   UNL     1       2.280   6.953  18.169  0.00  0.00    +0.000 C 
ATOM     20 CL   UNL     1       2.452   8.703  17.991  0.00  0.00    +0.000 Cl
ENDBRANCH  17  19
ENDBRANCH  13  17
ENDBRANCH  11  13
ENDBRANCH   1  11
TORSDOF 6
ENDMDL
MODEL 4
REMARK VINA RESULT:      -6.5      1.675      1.991
REMARK  Name = 
REMARK  9 active torsions:
REMARK  status: ('A' for Active; 'I' for Inactive)
REMARK    1  A    between atoms: C_1  and  C_2
REMARK    2  A    between atoms: C_5  and  S_6
REMARK    3  A    between atoms: S_6  and  N_9
REMARK    4  A    between atoms: N_9  and  C_10
REMARK    5  A    between atoms: C_10  and  C_11
REMARK    6  A    between atoms: C_10  and  C_15
REMARK    7  A    between atoms: C_11  and  C_13
REMARK    8  A    between atoms: C_15  and  C_16
REMARK    9  A    between atoms: C_15  and  C_17
REMARK                            x       y       z     vdW  Elec       q    Type
REMARK                         _______ _______ _______ _____ _____    ______ ____
ROOT
ATOM      1  S   UNL     1       3.554   5.910  18.545  0.00  0.00    +0.000 S 
ATOM      2  O   UNL     1       3.986   5.414  19.832  0.00  0.00    +0.000 OA
ATOM      3  O   UNL     1       2.904   5.055  17.577  0.00  0.00    +0.000 OA
ENDROOT
BRANCH   1   8
ATOM      4  C   UNL     1       0.100  10.789  19.616  0.00  0.00    +0.000 C 
ATOM      5  C   UNL     1       0.944   9.578  19.348  0.00  0.00    +0.000 A 
ATOM      6  C   UNL     1       1.197   8.653  20.365  0.00  0.00    +0.000 A 
ATOM      7  C   UNL     1       1.991   7.531  20.117  0.00  0.00    +0.000 A 
ATOM      8  C   UNL     1       2.521   7.321  18.838  0.00  0.00    +0.000 A 
ATOM      9  C   UNL     1       2.292   8.247  17.819  0.00  0.00    +0.000 A 
ATOM     10  C   UNL     1       1.503   9.372  18.078  0.00  0.00    +0.000 A 
ENDBRANCH   1   8
BRANCH   1  11
ATOM     11  N   UNL     1       4.933   6.522  17.799  0.00  0.00    +0.000 NA
ATOM     12  H   UNL     1       5.258   7.343  18.305  0.00  0.00    +0.000 HD
BRANCH  11  13
ATOM     13  C   UNL     1       5.967   5.589  17.263  0.00  0.00    +0.000 C 
BRANCH  13  14
ATOM     14  C   UNL     1       7.377   6.069  17.728  0.00  0.00    +0.000 C 
ATOM     15  C   UNL     1       7.593   7.575  17.519  0.00  0.00    +0.000 C 
ATOM     16  C   UNL     1       7.636   5.766  19.212  0.00  0.00    +0.000 C 
ENDBRANCH  13  14
BRANCH  13  17
ATOM     17  C   UNL     1       5.906   5.592  15.730  0.00  0.00    +0.000 C 
ATOM     18  O   UNL     1       5.280   6.467  15.120  0.00  0.00    +0.000 OA
BRANCH  17  19
ATOM     19  C   UNL     1       6.559   4.458  14.975  0.00  0.00    +0.000 C 
ATOM     20 CL   UNL     1       7.473   5.047  13.582  0.00  0.00    +0.000 Cl
ENDBRANCH  17  19
ENDBRANCH  13  17
ENDBRANCH  11  13
ENDBRANCH   1  11
TORSDOF 6
ENDMDL
MODEL 5
REMARK VINA RESULT:      -6.4      3.221      6.538
REMARK  Name = 
REMARK  9 active torsions:
REMARK  status: ('A' for Active; 'I' for Inactive)
REMARK    1  A    between atoms: C_1  and  C_2
REMARK    2  A    between atoms: C_5  and  S_6
REMARK    3  A    between atoms: S_6  and  N_9
REMARK    4  A    between atoms: N_9  and  C_10
REMARK    5  A    between atoms: C_10  and  C_11
REMARK    6  A    between atoms: C_10  and  C_15
REMARK    7  A    between atoms: C_11  and  C_13
REMARK    8  A    between atoms: C_15  and  C_16
REMARK    9  A    between atoms: C_15  and  C_17
REMARK                            x       y       z     vdW  Elec       q    Type
REMARK                         _______ _______ _______ _____ _____    ______ ____
ROOT
ATOM      1  S   UNL     1       5.088   4.428  18.964  0.00  0.00    +0.000 S 
ATOM      2  O   UNL     1       5.122   3.052  19.403  0.00  0.00    +0.000 OA
ATOM      3  O   UNL     1       5.777   5.475  19.685  0.00  0.00    +0.000 OA
ENDROOT
BRANCH   1   8
ATOM      4  C   UNL     1       6.968   4.439  13.189  0.00  0.00    +0.000 C 
ATOM      5  C   UNL     1       6.502   4.447  14.615  0.00  0.00    +0.000 A 
ATOM      6  C   UNL     1       7.403   4.698  15.654  0.00  0.00    +0.000 A 
ATOM      7  C   UNL     1       6.969   4.696  16.981  0.00  0.00    +0.000 A 
ATOM      8  C   UNL     1       5.620   4.460  17.273  0.00  0.00    +0.000 A 
ATOM      9  C   UNL     1       4.713   4.190  16.248  0.00  0.00    +0.000 A 
ATOM     10  C   UNL     1       5.158   4.185  14.922  0.00  0.00    +0.000 A 
ENDBRANCH   1   8
BRANCH   1  11
ATOM     11  N   UNL     1       3.462   4.860  18.922  0.00  0.00    +0.000 NA
ATOM     12  H   UNL     1       2.944   4.180  18.369  0.00  0.00    +0.000 HD
BRANCH  11  13
ATOM     13  C   UNL     1       2.802   5.400  20.146  0.00  0.00    +0.000 C 
BRANCH  13  14
ATOM     14  C   UNL     1       1.664   4.427  20.584  0.00  0.00    +0.000 C 
ATOM     15  C   UNL     1       1.072   3.635  19.409  0.00  0.00    +0.000 C 
ATOM     16  C   UNL     1       2.139   3.410  21.634  0.00  0.00    +0.000 C 
ENDBRANCH  13  14
BRANCH  13  17
ATOM     17  C   UNL     1       2.203   6.778  19.832  0.00  0.00    +0.000 C 
ATOM     18  O   UNL     1       2.399   7.323  18.739  0.00  0.00    +0.000 OA
BRANCH  17  19
ATOM     19  C   UNL     1       1.432   7.498  20.913  0.00  0.00    +0.000 C 
ATOM     20 CL   UNL     1       1.081   9.169  20.457  0.00  0.00    +0.000 Cl
ENDBRANCH  17  19
ENDBRANCH  13  17
ENDBRANCH  11  13
ENDBRANCH   1  11
TORSDOF 6
ENDMDL
MODEL 6
REMARK VINA RESULT:      -6.4      2.652      5.950
REMARK  Name = 
REMARK  9 active torsions:
REMARK  status: ('A' for Active; 'I' for Inactive)
REMARK    1  A    between atoms: C_1  and  C_2
REMARK    2  A    between atoms: C_5  and  S_6
REMARK    3  A    between atoms: S_6  and  N_9
REMARK    4  A    between atoms: N_9  and  C_10
REMARK    5  A    between atoms: C_10  and  C_11
REMARK    6  A    between atoms: C_10  and  C_15
REMARK    7  A    between atoms: C_11  and  C_13
REMARK    8  A    between atoms: C_15  and  C_16
REMARK    9  A    between atoms: C_15  and  C_17
REMARK                            x       y       z     vdW  Elec       q    Type
REMARK                         _______ _______ _______ _____ _____    ______ ____
ROOT
ATOM      1  S   UNL     1       5.684   4.545  19.304  0.00  0.00    +0.000 S 
ATOM      2  O   UNL     1       5.214   3.252  19.748  0.00  0.00    +0.000 OA
ATOM      3  O   UNL     1       6.865   5.160  19.867  0.00  0.00    +0.000 OA
ENDROOT
BRANCH   1   8
ATOM      4  C   UNL     1       6.397   4.200  13.283  0.00  0.00    +0.000 C 
ATOM      5  C   UNL     1       6.216   4.296  14.769  0.00  0.00    +0.000 A 
ATOM      6  C   UNL     1       7.219   4.850  15.571  0.00  0.00    +0.000 A 
ATOM      7  C   UNL     1       7.053   4.929  16.955  0.00  0.00    +0.000 A 
ATOM      8  C   UNL     1       5.869   4.468  17.543  0.00  0.00    +0.000 A 
ATOM      9  C   UNL     1       4.867   3.895  16.757  0.00  0.00    +0.000 A 
ATOM     10  C   UNL     1       5.045   3.812  15.372  0.00  0.00    +0.000 A 
ENDBRANCH   1   8
BRANCH   1  11
ATOM     11  N   UNL     1       4.411   5.613  19.567  0.00  0.00    +0.000 NA
ATOM     12  H   UNL     1       4.756   6.570  19.533  0.00  0.00    +0.000 HD
BRANCH  11  13
ATOM     13  C   UNL     1       3.073   5.341  18.967  0.00  0.00    +0.000 C 
BRANCH  13  14
ATOM     14  C   UNL     1       2.448   6.686  18.483  0.00  0.00    +0.000 C 
ATOM     15  C   UNL     1       2.069   7.618  19.644  0.00  0.00    +0.000 C 
ATOM     16  C   UNL     1       3.388   7.466  17.552  0.00  0.00    +0.000 C 
ENDBRANCH  13  14
BRANCH  13  17
ATOM     17  C   UNL     1       2.162   4.705  20.025  0.00  0.00    +0.000 C 
ATOM     18  O   UNL     1       2.346   4.912  21.231  0.00  0.00    +0.000 OA
BRANCH  17  19
ATOM     19  C   UNL     1       1.078   3.754  19.574  0.00  0.00    +0.000 C 
ATOM     20 CL   UNL     1       1.586   2.810  18.169  0.00  0.00    +0.000 Cl
ENDBRANCH  17  19
ENDBRANCH  13  17
ENDBRANCH  11  13
ENDBRANCH   1  11
TORSDOF 6
ENDMDL
MODEL 7
REMARK VINA RESULT:      -6.4      2.807      6.181
REMARK  Name = 
REMARK  9 active torsions:
REMARK  status: ('A' for Active; 'I' for Inactive)
REMARK    1  A    between atoms: C_1  and  C_2
REMARK    2  A    between atoms: C_5  and  S_6
REMARK    3  A    between atoms: S_6  and  N_9
REMARK    4  A    between atoms: N_9  and  C_10
REMARK    5  A    between atoms: C_10  and  C_11
REMARK    6  A    between atoms: C_10  and  C_15
REMARK    7  A    between atoms: C_11  and  C_13
REMARK    8  A    between atoms: C_15  and  C_16
REMARK    9  A    between atoms: C_15  and  C_17
REMARK                            x       y       z     vdW  Elec       q    Type
REMARK                         _______ _______ _______ _____ _____    ______ ____
ROOT
ATOM      1  S   UNL     1       4.359   3.476  18.309  0.00  0.00    +0.000 S 
ATOM      2  O   UNL     1       3.699   2.244  17.944  0.00  0.00    +0.000 OA
ATOM      3  O   UNL     1       5.160   3.585  19.508  0.00  0.00    +0.000 OA
ENDROOT
BRANCH   1   8
ATOM      4  C   UNL     1       7.654   5.306  13.547  0.00  0.00    +0.000 C 
ATOM      5  C   UNL     1       6.844   4.844  14.722  0.00  0.00    +0.000 A 
ATOM      6  C   UNL     1       5.551   4.345  14.539  0.00  0.00    +0.000 A 
ATOM      7  C   UNL     1       4.795   3.925  15.635  0.00  0.00    +0.000 A 
ATOM      8  C   UNL     1       5.341   3.984  16.923  0.00  0.00    +0.000 A 
ATOM      9  C   UNL     1       6.624   4.496  17.122  0.00  0.00    +0.000 A 
ATOM     10  C   UNL     1       7.371   4.924  16.020  0.00  0.00    +0.000 A 
ENDBRANCH   1   8
BRANCH   1  11
ATOM     11  N   UNL     1       3.142   4.632  18.433  0.00  0.00    +0.000 NA
ATOM     12  H   UNL     1       2.321   4.318  17.920  0.00  0.00    +0.000 HD
BRANCH  11  13
ATOM     13  C   UNL     1       2.919   5.344  19.725  0.00  0.00    +0.000 C 
BRANCH  13  14
ATOM     14  C   UNL     1       1.769   4.634  20.506  0.00  0.00    +0.000 C 
ATOM     15  C   UNL     1       0.914   3.726  19.610  0.00  0.00    +0.000 C 
ATOM     16  C   UNL     1       2.295   3.778  21.667  0.00  0.00    +0.000 C 
ENDBRANCH  13  14
BRANCH  13  17
ATOM     17  C   UNL     1       2.522   6.798  19.440  0.00  0.00    +0.000 C 
ATOM     18  O   UNL     1       1.862   7.450  20.259  0.00  0.00    +0.000 OA
BRANCH  17  19
ATOM     19  C   UNL     1       2.884   7.402  18.103  0.00  0.00    +0.000 C 
ATOM     20 CL   UNL     1       1.962   8.876  17.785  0.00  0.00    +0.000 Cl
ENDBRANCH  17  19
ENDBRANCH  13  17
ENDBRANCH  11  13
ENDBRANCH   1  11
TORSDOF 6
ENDMDL
MODEL 8
REMARK VINA RESULT:      -6.3      2.968      5.850
REMARK  Name = 
REMARK  9 active torsions:
REMARK  status: ('A' for Active; 'I' for Inactive)
REMARK    1  A    between atoms: C_1  and  C_2
REMARK    2  A    between atoms: C_5  and  S_6
REMARK    3  A    between atoms: S_6  and  N_9
REMARK    4  A    between atoms: N_9  and  C_10
REMARK    5  A    between atoms: C_10  and  C_11
REMARK    6  A    between atoms: C_10  and  C_15
REMARK    7  A    between atoms: C_11  and  C_13
REMARK    8  A    between atoms: C_15  and  C_16
REMARK    9  A    between atoms: C_15  and  C_17
REMARK                            x       y       z     vdW  Elec       q    Type
REMARK                         _______ _______ _______ _____ _____    ______ ____
ROOT
ATOM      1  S   UNL     1       5.541   4.502  19.191  0.00  0.00    +0.000 S 
ATOM      2  O   UNL     1       5.353   3.127  19.596  0.00  0.00    +0.000 OA
ATOM      3  O   UNL     1       6.485   5.370  19.858  0.00  0.00    +0.000 OA
ENDROOT
BRANCH   1   8
ATOM      4  C   UNL     1       6.669   4.532  13.223  0.00  0.00    +0.000 C 
ATOM      5  C   UNL     1       6.399   4.517  14.699  0.00  0.00    +0.000 A 
ATOM      6  C   UNL     1       5.530   3.571  15.251  0.00  0.00    +0.000 A 
ATOM      7  C   UNL     1       5.272   3.566  16.623  0.00  0.00    +0.000 A 
ATOM      8  C   UNL     1       5.902   4.500  17.455  0.00  0.00    +0.000 A 
ATOM      9  C   UNL     1       6.757   5.461  16.915  0.00  0.00    +0.000 A 
ATOM     10  C   UNL     1       7.003   5.465  15.539  0.00  0.00    +0.000 A 
ENDBRANCH   1   8
BRANCH   1  11
ATOM     11  N   UNL     1       4.032   5.234  19.326  0.00  0.00    +0.000 NA
ATOM     12  H   UNL     1       4.092   6.021  19.968  0.00  0.00    +0.000 HD
BRANCH  11  13
ATOM     13  C   UNL     1       3.168   5.391  18.120  0.00  0.00    +0.000 C 
BRANCH  13  14
ATOM     14  C   UNL     1       2.547   6.822  18.121  0.00  0.00    +0.000 C 
ATOM     15  C   UNL     1       2.225   7.330  19.534  0.00  0.00    +0.000 C 
ATOM     16  C   UNL     1       3.465   7.857  17.455  0.00  0.00    +0.000 C 
ENDBRANCH  13  14
BRANCH  13  17
ATOM     17  C   UNL     1       2.046   4.346  18.161  0.00  0.00    +0.000 C 
ATOM     18  O   UNL     1       1.179   4.307  17.279  0.00  0.00    +0.000 OA
BRANCH  17  19
ATOM     19  C   UNL     1       1.968   3.409  19.344  0.00  0.00    +0.000 C 
ATOM     20 CL   UNL     1       0.909   4.045  20.608  0.00  0.00    +0.000 Cl
ENDBRANCH  17  19
ENDBRANCH  13  17
ENDBRANCH  11  13
ENDBRANCH   1  11
TORSDOF 6
ENDMDL
MODEL 9
REMARK VINA RESULT:      -6.3      2.811      5.864
REMARK  Name = 
REMARK  9 active torsions:
REMARK  status: ('A' for Active; 'I' for Inactive)
REMARK    1  A    between atoms: C_1  and  C_2
REMARK    2  A    between atoms: C_5  and  S_6
REMARK    3  A    between atoms: S_6  and  N_9
REMARK    4  A    between atoms: N_9  and  C_10
REMARK    5  A    between atoms: C_10  and  C_11
REMARK    6  A    between atoms: C_10  and  C_15
REMARK    7  A    between atoms: C_11  and  C_13
REMARK    8  A    between atoms: C_15  and  C_16
REMARK    9  A    between atoms: C_15  and  C_17
REMARK                            x       y       z     vdW  Elec       q    Type
REMARK                         _______ _______ _______ _____ _____    ______ ____
ROOT
ATOM      1  S   UNL     1       5.387   4.436  19.289  0.00  0.00    +0.000 S 
ATOM      2  O   UNL     1       5.138   3.061  19.660  0.00  0.00    +0.000 OA
ATOM      3  O   UNL     1       6.367   5.245  19.979  0.00  0.00    +0.000 OA
ENDROOT
BRANCH   1   8
ATOM      4  C   UNL     1       6.730   4.471  13.367  0.00  0.00    +0.000 C 
ATOM      5  C   UNL     1       6.391   4.471  14.828  0.00  0.00    +0.000 A 
ATOM      6  C   UNL     1       7.077   5.306  15.715  0.00  0.00    +0.000 A 
ATOM      7  C   UNL     1       6.767   5.297  17.076  0.00  0.00    +0.000 A 
ATOM      8  C   UNL     1       5.750   4.461  17.554  0.00  0.00    +0.000 A 
ATOM      9  C   UNL     1       5.069   3.609  16.683  0.00  0.00    +0.000 A 
ATOM     10  C   UNL     1       5.392   3.618  15.323  0.00  0.00    +0.000 A 
ENDBRANCH   1   8
BRANCH   1  11
ATOM     11  N   UNL     1       3.911   5.230  19.442  0.00  0.00    +0.000 NA
ATOM     12  H   UNL     1       4.021   6.040  20.048  0.00  0.00    +0.000 HD
BRANCH  11  13
ATOM     13  C   UNL     1       3.013   5.371  18.258  0.00  0.00    +0.000 C 
BRANCH  13  14
ATOM     14  C   UNL     1       2.491   6.839  18.187  0.00  0.00    +0.000 C 
ATOM     15  C   UNL     1       2.217   7.442  19.572  0.00  0.00    +0.000 C 
ATOM     16  C   UNL     1       3.472   7.772  17.461  0.00  0.00    +0.000 C 
ENDBRANCH  13  14
BRANCH  13  17
ATOM     17  C   UNL     1       1.825   4.412  18.406  0.00  0.00    +0.000 C 
ATOM     18  O   UNL     1       1.081   4.168  17.449  0.00  0.00    +0.000 OA
BRANCH  17  19
ATOM     19  C   UNL     1       1.528   3.827  19.767  0.00  0.00    +0.000 C 
ATOM     20 CL   UNL     1       1.836   2.088  19.809  0.00  0.00    +0.000 Cl
ENDBRANCH  17  19
ENDBRANCH  13  17
ENDBRANCH  11  13
ENDBRANCH   1  11
TORSDOF 6
ENDMDL
