MODEL 1
REMARK VINA RESULT:      -8.6      0.000      0.000
REMARK  Name = 
REMARK  10 active torsions:
REMARK  status: ('A' for Active; 'I' for Inactive)
REMARK    1  A    between atoms: C_1  and  C_2
REMARK    2  A    between atoms: C_2  and  C_3
REMARK    3  A    between atoms: C_2  and  C_4
REMARK    4  A    between atoms: C_2  and  C_5
REMARK    5  A    between atoms: C_8  and  C_9
REMARK    6  A    between atoms: C_9  and  O_10
REMARK    7  A    between atoms: O_10  and  C_11
REMARK    8  A    between atoms: C_14  and  C_15
REMARK    9  A    between atoms: C_17  and  O_18
REMARK   10  A    between atoms: C_24  and  C_25
REMARK                            x       y       z     vdW  Elec       q    Type
REMARK                         _______ _______ _______ _____ _____    ______ ____
ROOT
ATOM      1  C   UNL     1       4.756   4.957  18.632  0.00  0.00    +0.000 A 
ATOM      2  C   UNL     1       3.941   4.553  17.570  0.00  0.00    +0.000 A 
ATOM      3  C   UNL     1       4.473   4.334  16.300  0.00  0.00    +0.000 A 
ATOM      4  C   UNL     1       5.839   4.526  16.036  0.00  0.00    +0.000 A 
ATOM      5  C   UNL     1       6.660   4.868  17.124  0.00  0.00    +0.000 A 
ATOM      6  C   UNL     1       6.134   5.080  18.416  0.00  0.00    +0.000 A 
ENDROOT
BRANCH   4   7
ATOM      7  C   UNL     1       6.380   4.428  14.666  0.00  0.00    +0.000 A 
ATOM      8  C   UNL     1       5.812   3.582  13.736  0.00  0.00    +0.000 A 
ATOM      9  C   UNL     1       6.377   3.598  12.491  0.00  0.00    +0.000 A 
ATOM     10  N   UNL     1       7.401   4.377  12.145  0.00  0.00    +0.000 NA
ATOM     11  C   UNL     1       7.862   5.195  13.090  0.00  0.00    +0.000 A 
ATOM     12  N   UNL     1       8.883   6.049  12.732  0.00  0.00    +0.000 N 
ATOM     13  N   UNL     1       7.410   5.244  14.349  0.00  0.00    +0.000 NA
ATOM     14  H   UNL     1       9.365   5.689  11.919  0.00  0.00    +0.000 HD
ATOM     15  H   UNL     1       9.437   6.321  13.530  0.00  0.00    +0.000 HD
BRANCH   9  16
ATOM     16  O   UNL     1       5.890   2.798  11.499  0.00  0.00    +0.000 OA
ATOM     17  H   UNL     1       6.501   2.056  11.370  0.00  0.00    +0.000 HD
ENDBRANCH   9  16
ENDBRANCH   4   7
BRANCH   6  18
ATOM     18  C   UNL     1       7.069   5.399  19.449  0.00  0.00    +0.000 C 
ATOM     19  N   UNL     1       7.824   5.634  20.302  0.00  0.00    +0.000 NA
ENDBRANCH   6  18
BRANCH   1  20
ATOM     20  O   UNL     1       4.059   5.111  19.797  0.00  0.00    +0.000 OA
BRANCH  20  21
ATOM     21  C   UNL     1       2.630   5.130  19.747  0.00  0.00    +0.000 C 
BRANCH  21  25
ATOM     22  C   UNL     1       1.323   9.277  19.520  0.00  0.00    +0.000 A 
ATOM     23  C   UNL     1       1.177   8.519  20.693  0.00  0.00    +0.000 A 
ATOM     24  C   UNL     1       1.606   7.193  20.764  0.00  0.00    +0.000 A 
ATOM     25  C   UNL     1       2.187   6.569  19.657  0.00  0.00    +0.000 A 
ATOM     26  C   UNL     1       2.344   7.308  18.481  0.00  0.00    +0.000 A 
ATOM     27  C   UNL     1       1.917   8.641  18.414  0.00  0.00    +0.000 A 
BRANCH  22  29
ATOM     28  C   UNL     1       1.800  11.633  18.595  0.00  0.00    +0.000 C 
ATOM     29  C   UNL     1       0.853  10.739  19.429  0.00  0.00    +0.000 C 
ATOM     30  C   UNL     1       0.773  11.340  20.848  0.00  0.00    +0.000 C 
ATOM     31  C   UNL     1      -0.538  10.816  18.764  0.00  0.00    +0.000 C 
ENDBRANCH  22  29
ENDBRANCH  21  25
ENDBRANCH  20  21
ENDBRANCH   1  20
TORSDOF 7
ENDMDL
MODEL 2
REMARK VINA RESULT:      -8.5      1.412      1.867
REMARK  Name = 
REMARK  10 active torsions:
REMARK  status: ('A' for Active; 'I' for Inactive)
REMARK    1  A    between atoms: C_1  and  C_2
REMARK    2  A    between atoms: C_2  and  C_3
REMARK    3  A    between atoms: C_2  and  C_4
REMARK    4  A    between atoms: C_2  and  C_5
REMARK    5  A    between atoms: C_8  and  C_9
REMARK    6  A    between atoms: C_9  and  O_10
REMARK    7  A    between atoms: O_10  and  C_11
REMARK    8  A    between atoms: C_14  and  C_15
REMARK    9  A    between atoms: C_17  and  O_18
REMARK   10  A    between atoms: C_24  and  C_25
REMARK                            x       y       z     vdW  Elec       q    Type
REMARK                         _______ _______ _______ _____ _____    ______ ____
ROOT
ATOM      1  C   UNL     1       4.362   5.277  18.521  0.00  0.00    +0.000 A 
ATOM      2  C   UNL     1       4.922   6.339  17.804  0.00  0.00    +0.000 A 
ATOM      3  C   UNL     1       5.459   6.143  16.533  0.00  0.00    +0.000 A 
ATOM      4  C   UNL     1       5.471   4.873  15.931  0.00  0.00    +0.000 A 
ATOM      5  C   UNL     1       4.847   3.828  16.630  0.00  0.00    +0.000 A 
ATOM      6  C   UNL     1       4.290   4.016  17.913  0.00  0.00    +0.000 A 
ENDROOT
BRANCH   4   7
ATOM      7  C   UNL     1       6.159   4.637  14.646  0.00  0.00    +0.000 A 
ATOM      8  C   UNL     1       5.671   3.722  13.737  0.00  0.00    +0.000 A 
ATOM      9  C   UNL     1       6.373   3.610  12.568  0.00  0.00    +0.000 A 
ATOM     10  N   UNL     1       7.454   4.331  12.274  0.00  0.00    +0.000 NA
ATOM     11  C   UNL     1       7.833   5.222  13.189  0.00  0.00    +0.000 A 
ATOM     12  N   UNL     1       8.916   6.015  12.876  0.00  0.00    +0.000 N 
ATOM     13  N   UNL     1       7.245   5.397  14.378  0.00  0.00    +0.000 NA
ATOM     14  H   UNL     1       9.474   5.572  12.159  0.00  0.00    +0.000 HD
ATOM     15  H   UNL     1       9.385   6.347  13.705  0.00  0.00    +0.000 HD
BRANCH   9  16
ATOM     16  O   UNL     1       5.974   2.733  11.602  0.00  0.00    +0.000 OA
ATOM     17  H   UNL     1       6.468   2.920  10.789  0.00  0.00    +0.000 HD
ENDBRANCH   9  16
ENDBRANCH   4   7
BRANCH   6  18
ATOM     18  C   UNL     1       3.660   2.885  18.517  0.00  0.00    +0.000 C 
ATOM     19  N   UNL     1       3.172   1.949  19.005  0.00  0.00    +0.000 NA
ENDBRANCH   6  18
BRANCH   1  20
ATOM     20  O   UNL     1       3.881   5.664  19.739  0.00  0.00    +0.000 OA
BRANCH  20  21
ATOM     21  C   UNL     1       2.467   5.668  19.952  0.00  0.00    +0.000 C 
BRANCH  21  25
ATOM     22  C   UNL     1       1.054   9.779  19.692  0.00  0.00    +0.000 A 
ATOM     23  C   UNL     1       0.998   9.052  20.893  0.00  0.00    +0.000 A 
ATOM     24  C   UNL     1       1.461   7.738  20.973  0.00  0.00    +0.000 A 
ATOM     25  C   UNL     1       1.986   7.095  19.850  0.00  0.00    +0.000 A 
ATOM     26  C   UNL     1       2.052   7.802  18.646  0.00  0.00    +0.000 A 
ATOM     27  C   UNL     1       1.591   9.122  18.569  0.00  0.00    +0.000 A 
BRANCH  22  29
ATOM     28  C   UNL     1      -0.864  11.334  18.960  0.00  0.00    +0.000 C 
ATOM     29  C   UNL     1       0.545  11.227  19.590  0.00  0.00    +0.000 C 
ATOM     30  C   UNL     1       1.513  12.048  18.713  0.00  0.00    +0.000 C 
ATOM     31  C   UNL     1       0.459  11.868  20.992  0.00  0.00    +0.000 C 
ENDBRANCH  22  29
ENDBRANCH  21  25
ENDBRANCH  20  21
ENDBRANCH   1  20
TORSDOF 7
ENDMDL
MODEL 3
REMARK VINA RESULT:      -8.5      1.435      1.875
REMARK  Name = 
REMARK  10 active torsions:
REMARK  status: ('A' for Active; 'I' for Inactive)
REMARK    1  A    between atoms: C_1  and  C_2
REMARK    2  A    between atoms: C_2  and  C_3
REMARK    3  A    between atoms: C_2  and  C_4
REMARK    4  A    between atoms: C_2  and  C_5
REMARK    5  A    between atoms: C_8  and  C_9
REMARK    6  A    between atoms: C_9  and  O_10
REMARK    7  A    between atoms: O_10  and  C_11
REMARK    8  A    between atoms: C_14  and  C_15
REMARK    9  A    between atoms: C_17  and  O_18
REMARK   10  A    between atoms: C_24  and  C_25
REMARK                            x       y       z     vdW  Elec       q    Type
REMARK                         _______ _______ _______ _____ _____    ______ ____
ROOT
ATOM      1  C   UNL     1       4.288   5.631  18.474  0.00  0.00    +0.000 A 
ATOM      2  C   UNL     1       4.499   6.635  17.523  0.00  0.00    +0.000 A 
ATOM      3  C   UNL     1       5.046   6.338  16.275  0.00  0.00    +0.000 A 
ATOM      4  C   UNL     1       5.418   5.027  15.932  0.00  0.00    +0.000 A 
ATOM      5  C   UNL     1       5.140   4.017  16.868  0.00  0.00    +0.000 A 
ATOM      6  C   UNL     1       4.576   4.304  18.130  0.00  0.00    +0.000 A 
ENDROOT
BRANCH   4   7
ATOM      7  C   UNL     1       6.121   4.733  14.668  0.00  0.00    +0.000 A 
ATOM      8  C   UNL     1       5.628   3.798  13.782  0.00  0.00    +0.000 A 
ATOM      9  C   UNL     1       6.345   3.631  12.629  0.00  0.00    +0.000 A 
ATOM     10  N   UNL     1       7.447   4.318  12.329  0.00  0.00    +0.000 NA
ATOM     11  C   UNL     1       7.830   5.231  13.220  0.00  0.00    +0.000 A 
ATOM     12  N   UNL     1       8.935   5.991  12.899  0.00  0.00    +0.000 N 
ATOM     13  N   UNL     1       7.227   5.459  14.393  0.00  0.00    +0.000 NA
ATOM     14  H   UNL     1       9.495   5.511  12.206  0.00  0.00    +0.000 HD
ATOM     15  H   UNL     1       9.398   6.341  13.723  0.00  0.00    +0.000 HD
BRANCH   9  16
ATOM     16  O   UNL     1       5.943   2.730  11.687  0.00  0.00    +0.000 OA
ATOM     17  H   UNL     1       5.451   2.020  12.126  0.00  0.00    +0.000 HD
ENDBRANCH   9  16
ENDBRANCH   4   7
BRANCH   6  18
ATOM     18  C   UNL     1       4.317   3.192  18.988  0.00  0.00    +0.000 C 
ATOM     19  N   UNL     1       4.080   2.299  19.695  0.00  0.00    +0.000 NA
ENDBRANCH   6  18
BRANCH   1  20
ATOM     20  O   UNL     1       3.738   6.111  19.628  0.00  0.00    +0.000 OA
BRANCH  20  21
ATOM     21  C   UNL     1       2.327   5.986  19.822  0.00  0.00    +0.000 C 
BRANCH  21  25
ATOM     22  C   UNL     1       0.719   9.995  20.378  0.00  0.00    +0.000 A 
ATOM     23  C   UNL     1       1.250   9.576  19.148  0.00  0.00    +0.000 A 
ATOM     24  C   UNL     1       1.756   8.286  18.972  0.00  0.00    +0.000 A 
ATOM     25  C   UNL     1       1.761   7.370  20.026  0.00  0.00    +0.000 A 
ATOM     26  C   UNL     1       1.234   7.768  21.258  0.00  0.00    +0.000 A 
ATOM     27  C   UNL     1       0.723   9.061  21.431  0.00  0.00    +0.000 A 
BRANCH  22  29
ATOM     28  C   UNL     1       1.231  12.518  20.428  0.00  0.00    +0.000 C 
ATOM     29  C   UNL     1       0.161  11.413  20.585  0.00  0.00    +0.000 C 
ATOM     30  C   UNL     1      -0.424  11.529  22.009  0.00  0.00    +0.000 C 
ATOM     31  C   UNL     1      -0.948  11.712  19.553  0.00  0.00    +0.000 C 
ENDBRANCH  22  29
ENDBRANCH  21  25
ENDBRANCH  20  21
ENDBRANCH   1  20
TORSDOF 7
ENDMDL
MODEL 4
REMARK VINA RESULT:      -8.3      2.708      4.265
REMARK  Name = 
REMARK  10 active torsions:
REMARK  status: ('A' for Active; 'I' for Inactive)
REMARK    1  A    between atoms: C_1  and  C_2
REMARK    2  A    between atoms: C_2  and  C_3
REMARK    3  A    between atoms: C_2  and  C_4
REMARK    4  A    between atoms: C_2  and  C_5
REMARK    5  A    between atoms: C_8  and  C_9
REMARK    6  A    between atoms: C_9  and  O_10
REMARK    7  A    between atoms: O_10  and  C_11
REMARK    8  A    between atoms: C_14  and  C_15
REMARK    9  A    between atoms: C_17  and  O_18
REMARK   10  A    between atoms: C_24  and  C_25
REMARK                            x       y       z     vdW  Elec       q    Type
REMARK                         _______ _______ _______ _____ _____    ______ ____
ROOT
ATOM      1  C   UNL     1       2.121   7.034  19.465  0.00  0.00    +0.000 A 
ATOM      2  C   UNL     1       2.746   7.826  18.497  0.00  0.00    +0.000 A 
ATOM      3  C   UNL     1       3.776   7.316  17.707  0.00  0.00    +0.000 A 
ATOM      4  C   UNL     1       4.234   5.997  17.864  0.00  0.00    +0.000 A 
ATOM      5  C   UNL     1       3.556   5.190  18.792  0.00  0.00    +0.000 A 
ATOM      6  C   UNL     1       2.504   5.692  19.589  0.00  0.00    +0.000 A 
ENDROOT
BRANCH   4   7
ATOM      7  C   UNL     1       5.411   5.498  17.126  0.00  0.00    +0.000 A 
ATOM      8  C   UNL     1       5.504   5.640  15.757  0.00  0.00    +0.000 A 
ATOM      9  C   UNL     1       6.654   5.169  15.185  0.00  0.00    +0.000 A 
ATOM     10  N   UNL     1       7.655   4.616  15.868  0.00  0.00    +0.000 NA
ATOM     11  C   UNL     1       7.502   4.556  17.190  0.00  0.00    +0.000 A 
ATOM     12  N   UNL     1       8.553   4.039  17.917  0.00  0.00    +0.000 N 
ATOM     13  N   UNL     1       6.412   4.955  17.854  0.00  0.00    +0.000 NA
ATOM     14  H   UNL     1       9.135   3.462  17.322  0.00  0.00    +0.000 HD
ATOM     15  H   UNL     1       8.243   3.652  18.795  0.00  0.00    +0.000 HD
BRANCH   9  16
ATOM     16  O   UNL     1       6.846   5.261  13.837  0.00  0.00    +0.000 OA
ATOM     17  H   UNL     1       5.985   5.198  13.396  0.00  0.00    +0.000 HD
ENDBRANCH   9  16
ENDBRANCH   4   7
BRANCH   6  18
ATOM     18  C   UNL     1       1.874   4.771  20.481  0.00  0.00    +0.000 C 
ATOM     19  N   UNL     1       1.385   4.006  21.208  0.00  0.00    +0.000 NA
ENDBRANCH   6  18
BRANCH   1  20
ATOM     20  O   UNL     1       1.133   7.702  20.130  0.00  0.00    +0.000 OA
BRANCH  20  21
ATOM     21  C   UNL     1       1.371   8.121  21.476  0.00  0.00    +0.000 C 
BRANCH  21  25
ATOM     22  C   UNL     1      -1.174  11.557  22.297  0.00  0.00    +0.000 A 
ATOM     23  C   UNL     1      -1.044  10.499  23.211  0.00  0.00    +0.000 A 
ATOM     24  C   UNL     1      -0.219   9.404  22.947  0.00  0.00    +0.000 A 
ATOM     25  C   UNL     1       0.497   9.320  21.751  0.00  0.00    +0.000 A 
ATOM     26  C   UNL     1       0.382  10.365  20.829  0.00  0.00    +0.000 A 
ATOM     27  C   UNL     1      -0.443  11.465  21.098  0.00  0.00    +0.000 A 
BRANCH  22  29
ATOM     28  C   UNL     1      -3.298  12.427  23.466  0.00  0.00    +0.000 C 
ATOM     29  C   UNL     1      -2.081  12.769  22.575  0.00  0.00    +0.000 C 
ATOM     30  C   UNL     1      -2.621  13.320  21.239  0.00  0.00    +0.000 C 
ATOM     31  C   UNL     1      -1.291  13.878  23.301  0.00  0.00    +0.000 C 
ENDBRANCH  22  29
ENDBRANCH  21  25
ENDBRANCH  20  21
ENDBRANCH   1  20
TORSDOF 7
ENDMDL
MODEL 5
REMARK VINA RESULT:      -8.3      3.720      6.696
REMARK  Name = 
REMARK  10 active torsions:
REMARK  status: ('A' for Active; 'I' for Inactive)
REMARK    1  A    between atoms: C_1  and  C_2
REMARK    2  A    between atoms: C_2  and  C_3
REMARK    3  A    between atoms: C_2  and  C_4
REMARK    4  A    between atoms: C_2  and  C_5
REMARK    5  A    between atoms: C_8  and  C_9
REMARK    6  A    between atoms: C_9  and  O_10
REMARK    7  A    between atoms: O_10  and  C_11
REMARK    8  A    between atoms: C_14  and  C_15
REMARK    9  A    between atoms: C_17  and  O_18
REMARK   10  A    between atoms: C_24  and  C_25
REMARK                            x       y       z     vdW  Elec       q    Type
REMARK                         _______ _______ _______ _____ _____    ______ ____
ROOT
ATOM      1  C   UNL     1       1.041   9.957  19.668  0.00  0.00    +0.000 A 
ATOM      2  C   UNL     1       1.286   9.568  18.347  0.00  0.00    +0.000 A 
ATOM      3  C   UNL     1       1.793   8.303  18.054  0.00  0.00    +0.000 A 
ATOM      4  C   UNL     1       2.091   7.379  19.070  0.00  0.00    +0.000 A 
ATOM      5  C   UNL     1       1.780   7.755  20.387  0.00  0.00    +0.000 A 
ATOM      6  C   UNL     1       1.255   9.028  20.696  0.00  0.00    +0.000 A 
ENDROOT
BRANCH   4   7
ATOM      7  C   UNL     1       2.753   6.094  18.772  0.00  0.00    +0.000 A 
ATOM      8  C   UNL     1       2.127   5.132  18.007  0.00  0.00    +0.000 A 
ATOM      9  C   UNL     1       2.849   3.995  17.771  0.00  0.00    +0.000 A 
ATOM     10  N   UNL     1       4.088   3.790  18.216  0.00  0.00    +0.000 NA
ATOM     11  C   UNL     1       4.634   4.787  18.911  0.00  0.00    +0.000 A 
ATOM     12  N   UNL     1       5.937   4.615  19.329  0.00  0.00    +0.000 N 
ATOM     13  N   UNL     1       4.015   5.929  19.230  0.00  0.00    +0.000 NA
ATOM     14  H   UNL     1       6.165   3.630  19.353  0.00  0.00    +0.000 HD
ATOM     15  H   UNL     1       6.140   5.169  20.147  0.00  0.00    +0.000 HD
BRANCH   9  16
ATOM     16  O   UNL     1       2.321   2.982  17.025  0.00  0.00    +0.000 OA
ATOM     17  H   UNL     1       1.854   3.365  16.267  0.00  0.00    +0.000 HD
ENDBRANCH   9  16
ENDBRANCH   4   7
BRANCH   6  18
ATOM     18  C   UNL     1       0.955   9.288  22.068  0.00  0.00    +0.000 C 
ATOM     19  N   UNL     1       0.714   9.529  23.180  0.00  0.00    +0.000 NA
ENDBRANCH   6  18
BRANCH   1  20
ATOM     20  O   UNL     1       0.539  11.223  19.756  0.00  0.00    +0.000 OA
BRANCH  20  21
ATOM     21  C   UNL     1       0.071  11.862  18.566  0.00  0.00    +0.000 C 
BRANCH  21  25
ATOM     22  C   UNL     1      -4.283  11.879  18.632  0.00  0.00    +0.000 A 
ATOM     23  C   UNL     1      -3.563  11.383  17.534  0.00  0.00    +0.000 A 
ATOM     24  C   UNL     1      -2.167  11.371  17.521  0.00  0.00    +0.000 A 
ATOM     25  C   UNL     1      -1.438  11.868  18.604  0.00  0.00    +0.000 A 
ATOM     26  C   UNL     1      -2.137  12.365  19.708  0.00  0.00    +0.000 A 
ATOM     27  C   UNL     1      -3.538  12.372  19.720  0.00  0.00    +0.000 A 
BRANCH  22  29
ATOM     28  C   UNL     1      -6.400  12.671  19.867  0.00  0.00    +0.000 C 
ATOM     29  C   UNL     1      -5.821  11.900  18.658  0.00  0.00    +0.000 C 
ATOM     30  C   UNL     1      -6.351  10.452  18.730  0.00  0.00    +0.000 C 
ATOM     31  C   UNL     1      -6.372  12.581  17.387  0.00  0.00    +0.000 C 
ENDBRANCH  22  29
ENDBRANCH  21  25
ENDBRANCH  20  21
ENDBRANCH   1  20
TORSDOF 7
ENDMDL
MODEL 6
REMARK VINA RESULT:      -8.2      1.487      2.287
REMARK  Name = 
REMARK  10 active torsions:
REMARK  status: ('A' for Active; 'I' for Inactive)
REMARK    1  A    between atoms: C_1  and  C_2
REMARK    2  A    between atoms: C_2  and  C_3
REMARK    3  A    between atoms: C_2  and  C_4
REMARK    4  A    between atoms: C_2  and  C_5
REMARK    5  A    between atoms: C_8  and  C_9
REMARK    6  A    between atoms: C_9  and  O_10
REMARK    7  A    between atoms: O_10  and  C_11
REMARK    8  A    between atoms: C_14  and  C_15
REMARK    9  A    between atoms: C_17  and  O_18
REMARK   10  A    between atoms: C_24  and  C_25
REMARK                            x       y       z     vdW  Elec       q    Type
REMARK                         _______ _______ _______ _____ _____    ______ ____
ROOT
ATOM      1  C   UNL     1       4.218   5.115  18.524  0.00  0.00    +0.000 A 
ATOM      2  C   UNL     1       5.277   5.946  18.141  0.00  0.00    +0.000 A 
ATOM      3  C   UNL     1       5.864   5.825  16.883  0.00  0.00    +0.000 A 
ATOM      4  C   UNL     1       5.429   4.858  15.961  0.00  0.00    +0.000 A 
ATOM      5  C   UNL     1       4.322   4.075  16.330  0.00  0.00    +0.000 A 
ATOM      6  C   UNL     1       3.712   4.196  17.596  0.00  0.00    +0.000 A 
ENDROOT
BRANCH   4   7
ATOM      7  C   UNL     1       6.136   4.638  14.684  0.00  0.00    +0.000 A 
ATOM      8  C   UNL     1       5.663   3.734  13.756  0.00  0.00    +0.000 A 
ATOM      9  C   UNL     1       6.383   3.637  12.597  0.00  0.00    +0.000 A 
ATOM     10  N   UNL     1       7.468   4.361  12.329  0.00  0.00    +0.000 NA
ATOM     11  C   UNL     1       7.832   5.241  13.261  0.00  0.00    +0.000 A 
ATOM     12  N   UNL     1       8.919   6.039  12.974  0.00  0.00    +0.000 N 
ATOM     13  N   UNL     1       7.225   5.401  14.443  0.00  0.00    +0.000 NA
ATOM     14  H   UNL     1       9.489   5.605  12.260  0.00  0.00    +0.000 HD
ATOM     15  H   UNL     1       9.375   6.361  13.814  0.00  0.00    +0.000 HD
BRANCH   9  16
ATOM     16  O   UNL     1       6.000   2.771  11.614  0.00  0.00    +0.000 OA
ATOM     17  H   UNL     1       5.467   3.255  10.965  0.00  0.00    +0.000 HD
ENDBRANCH   9  16
ENDBRANCH   4   7
BRANCH   6  18
ATOM     18  C   UNL     1       2.579   3.363  17.850  0.00  0.00    +0.000 C 
ATOM     19  N   UNL     1       1.661   2.688  18.085  0.00  0.00    +0.000 NA
ENDBRANCH   6  18
BRANCH   1  20
ATOM     20  O   UNL     1       3.769   5.388  19.785  0.00  0.00    +0.000 OA
BRANCH  20  21
ATOM     21  C   UNL     1       2.361   5.502  20.005  0.00  0.00    +0.000 C 
BRANCH  21  25
ATOM     22  C   UNL     1       1.283   9.685  19.453  0.00  0.00    +0.000 A 
ATOM     23  C   UNL     1       1.822   8.916  18.408  0.00  0.00    +0.000 A 
ATOM     24  C   UNL     1       2.157   7.573  18.587  0.00  0.00    +0.000 A 
ATOM     25  C   UNL     1       1.978   6.951  19.825  0.00  0.00    +0.000 A 
ATOM     26  C   UNL     1       1.440   7.698  20.877  0.00  0.00    +0.000 A 
ATOM     27  C   UNL     1       1.101   9.045  20.693  0.00  0.00    +0.000 A 
BRANCH  22  29
ATOM     28  C   UNL     1      -0.473  11.369  18.609  0.00  0.00    +0.000 C 
ATOM     29  C   UNL     1       0.911  11.166  19.268  0.00  0.00    +0.000 C 
ATOM     30  C   UNL     1       1.962  11.848  18.368  0.00  0.00    +0.000 C 
ATOM     31  C   UNL     1       0.868  11.884  20.634  0.00  0.00    +0.000 C 
ENDBRANCH  22  29
ENDBRANCH  21  25
ENDBRANCH  20  21
ENDBRANCH   1  20
TORSDOF 7
ENDMDL
MODEL 7
REMARK VINA RESULT:      -8.2      4.404      7.264
REMARK  Name = 
REMARK  10 active torsions:
REMARK  status: ('A' for Active; 'I' for Inactive)
REMARK    1  A    between atoms: C_1  and  C_2
REMARK    2  A    between atoms: C_2  and  C_3
REMARK    3  A    between atoms: C_2  and  C_4
REMARK    4  A    between atoms: C_2  and  C_5
REMARK    5  A    between atoms: C_8  and  C_9
REMARK    6  A    between atoms: C_9  and  O_10
REMARK    7  A    between atoms: O_10  and  C_11
REMARK    8  A    between atoms: C_14  and  C_15
REMARK    9  A    between atoms: C_17  and  O_18
REMARK   10  A    between atoms: C_24  and  C_25
REMARK                            x       y       z     vdW  Elec       q    Type
REMARK                         _______ _______ _______ _____ _____    ______ ____
ROOT
ATOM      1  C   UNL     1       1.049   9.811  20.041  0.00  0.00    +0.000 A 
ATOM      2  C   UNL     1       1.510   9.220  18.860  0.00  0.00    +0.000 A 
ATOM      3  C   UNL     1       1.930   7.891  18.839  0.00  0.00    +0.000 A 
ATOM      4  C   UNL     1       1.923   7.102  20.002  0.00  0.00    +0.000 A 
ATOM      5  C   UNL     1       1.396   7.685  21.167  0.00  0.00    +0.000 A 
ATOM      6  C   UNL     1       0.956   9.025  21.197  0.00  0.00    +0.000 A 
ENDROOT
BRANCH   4   7
ATOM      7  C   UNL     1       2.493   5.741  20.012  0.00  0.00    +0.000 A 
ATOM      8  C   UNL     1       3.535   5.400  19.175  0.00  0.00    +0.000 A 
ATOM      9  C   UNL     1       4.003   4.121  19.295  0.00  0.00    +0.000 A 
ATOM     10  N   UNL     1       3.526   3.229  20.163  0.00  0.00    +0.000 NA
ATOM     11  C   UNL     1       2.550   3.653  20.963  0.00  0.00    +0.000 A 
ATOM     12  N   UNL     1       2.084   2.761  21.906  0.00  0.00    +0.000 N 
ATOM     13  N   UNL     1       1.993   4.869  20.916  0.00  0.00    +0.000 NA
ATOM     14  H   UNL     1       2.303   1.815  21.624  0.00  0.00    +0.000 HD
ATOM     15  H   UNL     1       1.136   2.968  22.177  0.00  0.00    +0.000 HD
BRANCH   9  16
ATOM     16  O   UNL     1       5.031   3.683  18.512  0.00  0.00    +0.000 OA
ATOM     17  H   UNL     1       5.643   3.170  19.062  0.00  0.00    +0.000 HD
ENDBRANCH   9  16
ENDBRANCH   4   7
BRANCH   6  18
ATOM     18  C   UNL     1       0.418   9.501  22.432  0.00  0.00    +0.000 C 
ATOM     19  N   UNL     1       0.005   9.902  23.443  0.00  0.00    +0.000 NA
ENDBRANCH   6  18
BRANCH   1  20
ATOM     20  O   UNL     1       0.674  11.112  19.863  0.00  0.00    +0.000 OA
BRANCH  20  21
ATOM     21  C   UNL     1       0.211  11.525  18.574  0.00  0.00    +0.000 C 
BRANCH  21  25
ATOM     22  C   UNL     1      -4.125  11.854  18.789  0.00  0.00    +0.000 A 
ATOM     23  C   UNL     1      -3.293  12.396  19.781  0.00  0.00    +0.000 A 
ATOM     24  C   UNL     1      -1.903  12.296  19.703  0.00  0.00    +0.000 A 
ATOM     25  C   UNL     1      -1.292  11.637  18.634  0.00  0.00    +0.000 A 
ATOM     26  C   UNL     1      -2.104  11.092  17.634  0.00  0.00    +0.000 A 
ATOM     27  C   UNL     1      -3.498  11.198  17.712  0.00  0.00    +0.000 A 
BRANCH  22  29
ATOM     28  C   UNL     1      -6.258  12.920  17.814  0.00  0.00    +0.000 C 
ATOM     29  C   UNL     1      -5.659  11.955  18.864  0.00  0.00    +0.000 C 
ATOM     30  C   UNL     1      -6.069  12.469  20.260  0.00  0.00    +0.000 C 
ATOM     31  C   UNL     1      -6.302  10.573  18.621  0.00  0.00    +0.000 C 
ENDBRANCH  22  29
ENDBRANCH  21  25
ENDBRANCH  20  21
ENDBRANCH   1  20
TORSDOF 7
ENDMDL
MODEL 8
REMARK VINA RESULT:      -8.2      6.086     11.231
REMARK  Name = 
REMARK  10 active torsions:
REMARK  status: ('A' for Active; 'I' for Inactive)
REMARK    1  A    between atoms: C_1  and  C_2
REMARK    2  A    between atoms: C_2  and  C_3
REMARK    3  A    between atoms: C_2  and  C_4
REMARK    4  A    between atoms: C_2  and  C_5
REMARK    5  A    between atoms: C_8  and  C_9
REMARK    6  A    between atoms: C_9  and  O_10
REMARK    7  A    between atoms: O_10  and  C_11
REMARK    8  A    between atoms: C_14  and  C_15
REMARK    9  A    between atoms: C_17  and  O_18
REMARK   10  A    between atoms: C_24  and  C_25
REMARK                            x       y       z     vdW  Elec       q    Type
REMARK                         _______ _______ _______ _____ _____    ______ ____
ROOT
ATOM      1  C   UNL     1       0.849   9.534  21.570  0.00  0.00    +0.000 A 
ATOM      2  C   UNL     1       0.206   9.247  22.778  0.00  0.00    +0.000 A 
ATOM      3  C   UNL     1      -0.782  10.090  23.283  0.00  0.00    +0.000 A 
ATOM      4  C   UNL     1      -1.158  11.264  22.609  0.00  0.00    +0.000 A 
ATOM      5  C   UNL     1      -0.554  11.508  21.364  0.00  0.00    +0.000 A 
ATOM      6  C   UNL     1       0.439  10.655  20.837  0.00  0.00    +0.000 A 
ENDROOT
BRANCH   4   7
ATOM      7  C   UNL     1      -2.104  12.226  23.207  0.00  0.00    +0.000 A 
ATOM      8  C   UNL     1      -1.897  13.586  23.103  0.00  0.00    +0.000 A 
ATOM      9  C   UNL     1      -2.855  14.381  23.668  0.00  0.00    +0.000 A 
ATOM     10  N   UNL     1      -3.946  13.918  24.277  0.00  0.00    +0.000 NA
ATOM     11  C   UNL     1      -4.091  12.594  24.296  0.00  0.00    +0.000 A 
ATOM     12  N   UNL     1      -5.242  12.100  24.871  0.00  0.00    +0.000 N 
ATOM     13  N   UNL     1      -3.205  11.719  23.805  0.00  0.00    +0.000 NA
ATOM     14  H   UNL     1      -5.636  12.787  25.501  0.00  0.00    +0.000 HD
ATOM     15  H   UNL     1      -5.113  11.162  25.215  0.00  0.00    +0.000 HD
BRANCH   9  16
ATOM     16  O   UNL     1      -2.745  15.740  23.620  0.00  0.00    +0.000 OA
ATOM     17  H   UNL     1      -2.857  16.093  24.515  0.00  0.00    +0.000 HD
ENDBRANCH   9  16
ENDBRANCH   4   7
BRANCH   6  18
ATOM     18  C   UNL     1       0.963  10.992  19.552  0.00  0.00    +0.000 C 
ATOM     19  N   UNL     1       1.412  11.282  18.518  0.00  0.00    +0.000 NA
ENDBRANCH   6  18
BRANCH   1  20
ATOM     20  O   UNL     1       1.778   8.591  21.234  0.00  0.00    +0.000 OA
BRANCH  20  21
ATOM     21  C   UNL     1       1.331   7.350  20.681  0.00  0.00    +0.000 C 
BRANCH  21  25
ATOM     22  C   UNL     1       4.259   6.070  17.723  0.00  0.00    +0.000 A 
ATOM     23  C   UNL     1       3.502   7.241  17.555  0.00  0.00    +0.000 A 
ATOM     24  C   UNL     1       2.572   7.653  18.511  0.00  0.00    +0.000 A 
ATOM     25  C   UNL     1       2.353   6.899  19.666  0.00  0.00    +0.000 A 
ATOM     26  C   UNL     1       3.098   5.731  19.853  0.00  0.00    +0.000 A 
ATOM     27  C   UNL     1       4.034   5.323  18.894  0.00  0.00    +0.000 A 
BRANCH  22  29
ATOM     28  C   UNL     1       6.746   5.684  17.179  0.00  0.00    +0.000 C 
ATOM     29  C   UNL     1       5.286   5.605  16.676  0.00  0.00    +0.000 C 
ATOM     30  C   UNL     1       5.175   6.496  15.421  0.00  0.00    +0.000 C 
ATOM     31  C   UNL     1       5.025   4.135  16.282  0.00  0.00    +0.000 C 
ENDBRANCH  22  29
ENDBRANCH  21  25
ENDBRANCH  20  21
ENDBRANCH   1  20
TORSDOF 7
ENDMDL
MODEL 9
REMARK VINA RESULT:      -8.2      6.114     11.236
REMARK  Name = 
REMARK  10 active torsions:
REMARK  status: ('A' for Active; 'I' for Inactive)
REMARK    1  A    between atoms: C_1  and  C_2
REMARK    2  A    between atoms: C_2  and  C_3
REMARK    3  A    between atoms: C_2  and  C_4
REMARK    4  A    between atoms: C_2  and  C_5
REMARK    5  A    between atoms: C_8  and  C_9
REMARK    6  A    between atoms: C_9  and  O_10
REMARK    7  A    between atoms: O_10  and  C_11
REMARK    8  A    between atoms: C_14  and  C_15
REMARK    9  A    between atoms: C_17  and  O_18
REMARK   10  A    between atoms: C_24  and  C_25
REMARK                            x       y       z     vdW  Elec       q    Type
REMARK                         _______ _______ _______ _____ _____    ______ ____
ROOT
ATOM      1  C   UNL     1       0.814   9.560  21.628  0.00  0.00    +0.000 A 
ATOM      2  C   UNL     1       0.142   9.282  22.822  0.00  0.00    +0.000 A 
ATOM      3  C   UNL     1      -0.839  10.143  23.311  0.00  0.00    +0.000 A 
ATOM      4  C   UNL     1      -1.177  11.327  22.635  0.00  0.00    +0.000 A 
ATOM      5  C   UNL     1      -0.543  11.564  21.404  0.00  0.00    +0.000 A 
ATOM      6  C   UNL     1       0.443  10.693  20.893  0.00  0.00    +0.000 A 
ENDROOT
BRANCH   4   7
ATOM      7  C   UNL     1      -2.115  12.306  23.218  0.00  0.00    +0.000 A 
ATOM      8  C   UNL     1      -1.851  13.659  23.172  0.00  0.00    +0.000 A 
ATOM      9  C   UNL     1      -2.806  14.473  23.716  0.00  0.00    +0.000 A 
ATOM     10  N   UNL     1      -3.944  14.034  24.253  0.00  0.00    +0.000 NA
ATOM     11  C   UNL     1      -4.140  12.717  24.219  0.00  0.00    +0.000 A 
ATOM     12  N   UNL     1      -5.337  12.251  24.718  0.00  0.00    +0.000 N 
ATOM     13  N   UNL     1      -3.264  11.824  23.742  0.00  0.00    +0.000 NA
ATOM     14  H   UNL     1      -5.736  12.932  25.351  0.00  0.00    +0.000 HD
ATOM     15  H   UNL     1      -5.261  11.297  25.035  0.00  0.00    +0.000 HD
BRANCH   9  16
ATOM     16  O   UNL     1      -2.642  15.827  23.721  0.00  0.00    +0.000 OA
ATOM     17  H   UNL     1      -2.615  16.140  22.804  0.00  0.00    +0.000 HD
ENDBRANCH   9  16
ENDBRANCH   4   7
BRANCH   6  18
ATOM     18  C   UNL     1       1.000  11.025  19.620  0.00  0.00    +0.000 C 
ATOM     19  N   UNL     1       1.480  11.288  18.594  0.00  0.00    +0.000 NA
ENDBRANCH   6  18
BRANCH   1  20
ATOM     20  O   UNL     1       1.730   8.600  21.308  0.00  0.00    +0.000 OA
BRANCH  20  21
ATOM     21  C   UNL     1       1.267   7.361  20.764  0.00  0.00    +0.000 C 
BRANCH  21  25
ATOM     22  C   UNL     1       4.164   6.025  17.800  0.00  0.00    +0.000 A 
ATOM     23  C   UNL     1       3.873   5.265  18.944  0.00  0.00    +0.000 A 
ATOM     24  C   UNL     1       2.937   5.693  19.886  0.00  0.00    +0.000 A 
ATOM     25  C   UNL     1       2.265   6.907  19.726  0.00  0.00    +0.000 A 
ATOM     26  C   UNL     1       2.538   7.677  18.592  0.00  0.00    +0.000 A 
ATOM     27  C   UNL     1       3.475   7.243  17.646  0.00  0.00    +0.000 A 
BRANCH  22  29
ATOM     28  C   UNL     1       4.905   4.155  16.192  0.00  0.00    +0.000 C 
ATOM     29  C   UNL     1       5.195   5.566  16.754  0.00  0.00    +0.000 C 
ATOM     30  C   UNL     1       6.597   5.533  17.400  0.00  0.00    +0.000 C 
ATOM     31  C   UNL     1       5.211   6.534  15.552  0.00  0.00    +0.000 C 
ENDBRANCH  22  29
ENDBRANCH  21  25
ENDBRANCH  20  21
ENDBRANCH   1  20
TORSDOF 7
ENDMDL
