MODEL 1
REMARK VINA RESULT:      -8.0      0.000      0.000
REMARK  Name = 
REMARK  5 active torsions:
REMARK  status: ('A' for Active; 'I' for Inactive)
REMARK    1  A    between atoms: C_1  and  C_2
REMARK    2  A    between atoms: C_7  and  N_8
REMARK    3  A    between atoms: N_14  and  C_15
REMARK    4  A    between atoms: C_15  and  C_16
REMARK    5  A    between atoms: C_19  and  C_20
REMARK                            x       y       z     vdW  Elec       q    Type
REMARK                         _______ _______ _______ _____ _____    ______ ____
ROOT
ATOM      1  N   UNL     1       1.567   8.511  19.257  0.00  0.00    +0.000 N 
ATOM      2  C   UNL     1       2.416   8.417  18.172  0.00  0.00    +0.000 C 
ATOM      3  O   UNL     1       2.459   9.229  17.251  0.00  0.00    +0.000 OA
ATOM      4  N   UNL     1       3.299   7.345  18.193  0.00  0.00    +0.000 N 
ATOM      5  C   UNL     1       4.276   7.269  17.101  0.00  0.00    +0.000 C 
ATOM      6  C   UNL     1       5.601   6.622  17.549  0.00  0.00    +0.000 C 
ATOM      7  N   UNL     1       5.453   5.327  18.249  0.00  0.00    +0.000 NA
ATOM      8  C   UNL     1       4.478   5.500  19.351  0.00  0.00    +0.000 C 
ATOM      9  C   UNL     1       3.117   6.087  18.928  0.00  0.00    +0.000 C 
ATOM     10  H   UNL     1       1.873   8.038  20.089  0.00  0.00    +0.000 HD
ENDROOT
BRANCH   1  17
ATOM     11  C   UNL     1       0.988   9.531  21.967  0.00  0.00    +0.000 C 
ATOM     12  C   UNL     1       0.282  10.007  20.725  0.00  0.00    +0.000 A 
ATOM     13  C   UNL     1      -0.703  11.006  20.876  0.00  0.00    +0.000 A 
ATOM     14  C   UNL     1      -1.407  11.497  19.780  0.00  0.00    +0.000 A 
ATOM     15  C   UNL     1      -1.152  10.981  18.519  0.00  0.00    +0.000 A 
ATOM     16  C   UNL     1      -0.189   9.985  18.355  0.00  0.00    +0.000 A 
ATOM     17  C   UNL     1       0.558   9.498  19.438  0.00  0.00    +0.000 A 
ENDBRANCH   1  17
BRANCH   7  18
ATOM     18  C   UNL     1       5.083   4.265  17.283  0.00  0.00    +0.000 C 
BRANCH  18  19
ATOM     19  C   UNL     1       5.888   4.328  16.024  0.00  0.00    +0.000 A 
ATOM     20  N   UNL     1       7.216   4.511  16.003  0.00  0.00    +0.000 NA
ATOM     21  O   UNL     1       7.524   4.427  14.644  0.00  0.00    +0.000 OA
ATOM     22  C   UNL     1       6.346   4.219  13.982  0.00  0.00    +0.000 A 
ATOM     23  N   UNL     1       5.304   4.179  14.789  0.00  0.00    +0.000 NA
BRANCH  22  24
ATOM     24  C   UNL     1       6.261   4.018  12.479  0.00  0.00    +0.000 C 
ATOM     25  C   UNL     1       6.491   2.620  11.934  0.00  0.00    +0.000 C 
ATOM     26  C   UNL     1       5.121   3.201  11.907  0.00  0.00    +0.000 C 
ENDBRANCH  22  24
ENDBRANCH  18  19
ENDBRANCH   7  18
TORSDOF 4
ENDMDL
MODEL 2
REMARK VINA RESULT:      -8.0      3.432     10.509
REMARK  Name = 
REMARK  5 active torsions:
REMARK  status: ('A' for Active; 'I' for Inactive)
REMARK    1  A    between atoms: C_1  and  C_2
REMARK    2  A    between atoms: C_7  and  N_8
REMARK    3  A    between atoms: N_14  and  C_15
REMARK    4  A    between atoms: C_15  and  C_16
REMARK    5  A    between atoms: C_19  and  C_20
REMARK                            x       y       z     vdW  Elec       q    Type
REMARK                         _______ _______ _______ _____ _____    ______ ____
ROOT
ATOM      1  N   UNL     1       2.545   6.833  18.798  0.00  0.00    +0.000 N 
ATOM      2  C   UNL     1       2.164   8.096  18.392  0.00  0.00    +0.000 C 
ATOM      3  O   UNL     1       2.449   8.592  17.303  0.00  0.00    +0.000 OA
ATOM      4  N   UNL     1       1.362   8.797  19.283  0.00  0.00    +0.000 N 
ATOM      5  C   UNL     1       0.863  10.105  18.841  0.00  0.00    +0.000 C 
ATOM      6  C   UNL     1      -0.518  10.435  19.440  0.00  0.00    +0.000 C 
ATOM      7  N   UNL     1      -0.611  10.275  20.908  0.00  0.00    +0.000 NA
ATOM      8  C   UNL     1      -0.121   8.922  21.263  0.00  0.00    +0.000 C 
ATOM      9  C   UNL     1       1.285   8.581  20.733  0.00  0.00    +0.000 C 
ATOM     10  H   UNL     1       1.962   6.409  19.498  0.00  0.00    +0.000 HD
ENDROOT
BRANCH   1  17
ATOM     11  C   UNL     1       1.531   4.183  17.982  0.00  0.00    +0.000 C 
ATOM     12  C   UNL     1       2.914   4.685  17.661  0.00  0.00    +0.000 A 
ATOM     13  C   UNL     1       3.761   3.836  16.919  0.00  0.00    +0.000 A 
ATOM     14  C   UNL     1       5.057   4.221  16.586  0.00  0.00    +0.000 A 
ATOM     15  C   UNL     1       5.533   5.452  17.009  0.00  0.00    +0.000 A 
ATOM     16  C   UNL     1       4.711   6.298  17.755  0.00  0.00    +0.000 A 
ATOM     17  C   UNL     1       3.391   5.948  18.073  0.00  0.00    +0.000 A 
ENDBRANCH   1  17
BRANCH   7  18
ATOM     18  C   UNL     1       0.116  11.373  21.588  0.00  0.00    +0.000 C 
BRANCH  18  19
ATOM     19  C   UNL     1      -0.768  12.176  22.489  0.00  0.00    +0.000 A 
ATOM     20  N   UNL     1      -0.394  13.331  23.055  0.00  0.00    +0.000 NA
ATOM     21  O   UNL     1      -1.545  13.738  23.731  0.00  0.00    +0.000 OA
ATOM     22  C   UNL     1      -2.492  12.776  23.516  0.00  0.00    +0.000 A 
ATOM     23  N   UNL     1      -2.051  11.776  22.779  0.00  0.00    +0.000 NA
BRANCH  22  24
ATOM     24  C   UNL     1      -3.913  12.874  24.045  0.00  0.00    +0.000 C 
ATOM     25  C   UNL     1      -4.668  14.171  23.818  0.00  0.00    +0.000 C 
ATOM     26  C   UNL     1      -5.062  12.951  23.061  0.00  0.00    +0.000 C 
ENDBRANCH  22  24
ENDBRANCH  18  19
ENDBRANCH   7  18
TORSDOF 4
ENDMDL
MODEL 3
REMARK VINA RESULT:      -7.8      3.645     10.734
REMARK  Name = 
REMARK  5 active torsions:
REMARK  status: ('A' for Active; 'I' for Inactive)
REMARK    1  A    between atoms: C_1  and  C_2
REMARK    2  A    between atoms: C_7  and  N_8
REMARK    3  A    between atoms: N_14  and  C_15
REMARK    4  A    between atoms: C_15  and  C_16
REMARK    5  A    between atoms: C_19  and  C_20
REMARK                            x       y       z     vdW  Elec       q    Type
REMARK                         _______ _______ _______ _____ _____    ______ ____
ROOT
ATOM      1  N   UNL     1       2.573   6.988  18.812  0.00  0.00    +0.000 N 
ATOM      2  C   UNL     1       2.125   8.226  18.396  0.00  0.00    +0.000 C 
ATOM      3  O   UNL     1       2.347   8.709  17.288  0.00  0.00    +0.000 OA
ATOM      4  N   UNL     1       1.330   8.912  19.305  0.00  0.00    +0.000 N 
ATOM      5  C   UNL     1       0.763  10.190  18.857  0.00  0.00    +0.000 C 
ATOM      6  C   UNL     1      -0.607  10.477  19.504  0.00  0.00    +0.000 C 
ATOM      7  N   UNL     1      -0.636  10.345  20.977  0.00  0.00    +0.000 NA
ATOM      8  C   UNL     1      -0.078   9.021  21.339  0.00  0.00    +0.000 C 
ATOM      9  C   UNL     1       1.320   8.725  20.761  0.00  0.00    +0.000 C 
ATOM     10  H   UNL     1       2.035   6.556  19.543  0.00  0.00    +0.000 HD
ENDROOT
BRANCH   1  17
ATOM     11  C   UNL     1       1.625   4.293  18.062  0.00  0.00    +0.000 C 
ATOM     12  C   UNL     1       2.979   4.838  17.691  0.00  0.00    +0.000 A 
ATOM     13  C   UNL     1       3.831   4.008  16.933  0.00  0.00    +0.000 A 
ATOM     14  C   UNL     1       5.102   4.431  16.553  0.00  0.00    +0.000 A 
ATOM     15  C   UNL     1       5.549   5.684  16.946  0.00  0.00    +0.000 A 
ATOM     16  C   UNL     1       4.722   6.512  17.706  0.00  0.00    +0.000 A 
ATOM     17  C   UNL     1       3.425   6.122  18.071  0.00  0.00    +0.000 A 
ENDBRANCH   1  17
BRANCH   7  18
ATOM     18  C   UNL     1       0.072  11.486  21.606  0.00  0.00    +0.000 C 
BRANCH  18  19
ATOM     19  C   UNL     1      -0.834  12.333  22.442  0.00  0.00    +0.000 A 
ATOM     20  N   UNL     1      -2.128  12.052  22.649  0.00  0.00    +0.000 NA
ATOM     21  O   UNL     1      -2.532  13.058  23.529  0.00  0.00    +0.000 OA
ATOM     22  C   UNL     1      -1.442  13.853  23.749  0.00  0.00    +0.000 A 
ATOM     23  N   UNL     1      -0.377  13.463  23.077  0.00  0.00    +0.000 NA
BRANCH  22  24
ATOM     24  C   UNL     1      -1.456  15.038  24.699  0.00  0.00    +0.000 C 
ATOM     25  C   UNL     1      -2.059  16.340  24.204  0.00  0.00    +0.000 C 
ATOM     26  C   UNL     1      -2.781  15.541  25.232  0.00  0.00    +0.000 C 
ENDBRANCH  22  24
ENDBRANCH  18  19
ENDBRANCH   7  18
TORSDOF 4
ENDMDL
MODEL 4
REMARK VINA RESULT:      -7.7      3.955     10.560
REMARK  Name = 
REMARK  5 active torsions:
REMARK  status: ('A' for Active; 'I' for Inactive)
REMARK    1  A    between atoms: C_1  and  C_2
REMARK    2  A    between atoms: C_7  and  N_8
REMARK    3  A    between atoms: N_14  and  C_15
REMARK    4  A    between atoms: C_15  and  C_16
REMARK    5  A    between atoms: C_19  and  C_20
REMARK                            x       y       z     vdW  Elec       q    Type
REMARK                         _______ _______ _______ _____ _____    ______ ____
ROOT
ATOM      1  N   UNL     1       2.291   6.495  20.253  0.00  0.00    +0.000 N 
ATOM      2  C   UNL     1       2.066   7.589  19.441  0.00  0.00    +0.000 C 
ATOM      3  O   UNL     1       2.437   7.674  18.272  0.00  0.00    +0.000 OA
ATOM      4  N   UNL     1       1.323   8.615  20.009  0.00  0.00    +0.000 N 
ATOM      5  C   UNL     1       0.989   9.751  19.141  0.00  0.00    +0.000 C 
ATOM      6  C   UNL     1      -0.364  10.390  19.513  0.00  0.00    +0.000 C 
ATOM      7  N   UNL     1      -0.517  10.725  20.946  0.00  0.00    +0.000 NA
ATOM      8  C   UNL     1      -0.194   9.520  21.745  0.00  0.00    +0.000 C 
ATOM      9  C   UNL     1       1.180   8.890  21.444  0.00  0.00    +0.000 C 
ATOM     10  H   UNL     1       1.643   6.380  21.013  0.00  0.00    +0.000 HD
ENDROOT
BRANCH   1  17
ATOM     11  C   UNL     1       1.065   3.816  20.452  0.00  0.00    +0.000 C 
ATOM     12  C   UNL     1       2.474   4.059  19.978  0.00  0.00    +0.000 A 
ATOM     13  C   UNL     1       3.238   2.936  19.601  0.00  0.00    +0.000 A 
ATOM     14  C   UNL     1       4.551   3.072  19.157  0.00  0.00    +0.000 A 
ATOM     15  C   UNL     1       5.126   4.333  19.105  0.00  0.00    +0.000 A 
ATOM     16  C   UNL     1       4.386   5.452  19.487  0.00  0.00    +0.000 A 
ATOM     17  C   UNL     1       3.052   5.345  19.904  0.00  0.00    +0.000 A 
ENDBRANCH   1  17
BRANCH   7  18
ATOM     18  C   UNL     1       0.310  11.908  21.285  0.00  0.00    +0.000 C 
BRANCH  18  19
ATOM     19  C   UNL     1      -0.374  12.831  22.243  0.00  0.00    +0.000 A 
ATOM     20  N   UNL     1       0.097  14.043  22.567  0.00  0.00    +0.000 NA
ATOM     21  O   UNL     1      -0.892  14.550  23.413  0.00  0.00    +0.000 OA
ATOM     22  C   UNL     1      -1.851  13.583  23.525  0.00  0.00    +0.000 A 
ATOM     23  N   UNL     1      -1.563  12.491  22.844  0.00  0.00    +0.000 NA
BRANCH  22  24
ATOM     24  C   UNL     1      -3.130  13.768  24.323  0.00  0.00    +0.000 C 
ATOM     25  C   UNL     1      -4.439  13.850  23.560  0.00  0.00    +0.000 C 
ATOM     26  C   UNL     1      -4.139  12.640  24.374  0.00  0.00    +0.000 C 
ENDBRANCH  22  24
ENDBRANCH  18  19
ENDBRANCH   7  18
TORSDOF 4
ENDMDL
MODEL 5
REMARK VINA RESULT:      -7.5      1.958      2.990
REMARK  Name = 
REMARK  5 active torsions:
REMARK  status: ('A' for Active; 'I' for Inactive)
REMARK    1  A    between atoms: C_1  and  C_2
REMARK    2  A    between atoms: C_7  and  N_8
REMARK    3  A    between atoms: N_14  and  C_15
REMARK    4  A    between atoms: C_15  and  C_16
REMARK    5  A    between atoms: C_19  and  C_20
REMARK                            x       y       z     vdW  Elec       q    Type
REMARK                         _______ _______ _______ _____ _____    ______ ____
ROOT
ATOM      1  N   UNL     1       1.195   9.628  18.615  0.00  0.00    +0.000 N 
ATOM      2  C   UNL     1       1.380   8.853  19.743  0.00  0.00    +0.000 C 
ATOM      3  O   UNL     1       1.096   9.209  20.885  0.00  0.00    +0.000 OA
ATOM      4  N   UNL     1       1.874   7.575  19.518  0.00  0.00    +0.000 N 
ATOM      5  C   UNL     1       1.995   6.695  20.687  0.00  0.00    +0.000 C 
ATOM      6  C   UNL     1       1.783   5.212  20.324  0.00  0.00    +0.000 C 
ATOM      7  N   UNL     1       2.594   4.732  19.183  0.00  0.00    +0.000 NA
ATOM      8  C   UNL     1       2.389   5.654  18.042  0.00  0.00    +0.000 C 
ATOM      9  C   UNL     1       2.653   7.140  18.352  0.00  0.00    +0.000 C 
ATOM     10  H   UNL     1       1.099   9.121  17.753  0.00  0.00    +0.000 HD
ENDROOT
BRANCH   1  17
ATOM     11  C   UNL     1      -1.677  10.190  18.220  0.00  0.00    +0.000 C 
ATOM     12  C   UNL     1      -0.637  11.258  18.429  0.00  0.00    +0.000 A 
ATOM     13  C   UNL     1      -1.072  12.599  18.445  0.00  0.00    +0.000 A 
ATOM     14  C   UNL     1      -0.174  13.648  18.626  0.00  0.00    +0.000 A 
ATOM     15  C   UNL     1       1.177  13.371  18.772  0.00  0.00    +0.000 A 
ATOM     16  C   UNL     1       1.625  12.049  18.746  0.00  0.00    +0.000 A 
ATOM     17  C   UNL     1       0.736  10.975  18.600  0.00  0.00    +0.000 A 
ENDBRANCH   1  17
BRANCH   7  18
ATOM     18  C   UNL     1       4.012   4.588  19.591  0.00  0.00    +0.000 C 
BRANCH  18  19
ATOM     19  C   UNL     1       4.959   4.779  18.449  0.00  0.00    +0.000 A 
ATOM     20  N   UNL     1       5.929   5.705  18.439  0.00  0.00    +0.000 NA
ATOM     21  O   UNL     1       6.584   5.461  17.230  0.00  0.00    +0.000 OA
ATOM     22  C   UNL     1       5.931   4.423  16.627  0.00  0.00    +0.000 A 
ATOM     23  N   UNL     1       4.902   3.987  17.327  0.00  0.00    +0.000 NA
BRANCH  22  24
ATOM     24  C   UNL     1       6.372   3.817  15.306  0.00  0.00    +0.000 C 
ATOM     25  C   UNL     1       5.594   4.190  14.057  0.00  0.00    +0.000 C 
ATOM     26  C   UNL     1       6.974   4.717  14.246  0.00  0.00    +0.000 C 
ENDBRANCH  22  24
ENDBRANCH  18  19
ENDBRANCH   7  18
TORSDOF 4
ENDMDL
MODEL 6
REMARK VINA RESULT:      -7.4      2.616      8.650
REMARK  Name = 
REMARK  5 active torsions:
REMARK  status: ('A' for Active; 'I' for Inactive)
REMARK    1  A    between atoms: C_1  and  C_2
REMARK    2  A    between atoms: C_7  and  N_8
REMARK    3  A    between atoms: N_14  and  C_15
REMARK    4  A    between atoms: C_15  and  C_16
REMARK    5  A    between atoms: C_19  and  C_20
REMARK                            x       y       z     vdW  Elec       q    Type
REMARK                         _______ _______ _______ _____ _____    ______ ____
ROOT
ATOM      1  N   UNL     1       4.024   6.945  17.459  0.00  0.00    +0.000 N 
ATOM      2  C   UNL     1       3.316   6.766  18.631  0.00  0.00    +0.000 C 
ATOM      3  O   UNL     1       3.454   5.805  19.386  0.00  0.00    +0.000 OA
ATOM      4  N   UNL     1       2.440   7.791  18.965  0.00  0.00    +0.000 N 
ATOM      5  C   UNL     1       1.742   7.674  20.251  0.00  0.00    +0.000 C 
ATOM      6  C   UNL     1       1.455   9.049  20.885  0.00  0.00    +0.000 C 
ATOM      7  N   UNL     1       0.795  10.021  19.984  0.00  0.00    +0.000 NA
ATOM      8  C   UNL     1       1.580  10.101  18.729  0.00  0.00    +0.000 C 
ATOM      9  C   UNL     1       1.832   8.749  18.034  0.00  0.00    +0.000 C 
ATOM     10  H   UNL     1       4.110   7.896  17.146  0.00  0.00    +0.000 HD
ENDROOT
BRANCH   1  17
ATOM     11  C   UNL     1       6.907   7.584  17.441  0.00  0.00    +0.000 C 
ATOM     12  C   UNL     1       6.330   6.304  16.897  0.00  0.00    +0.000 A 
ATOM     13  C   UNL     1       7.229   5.359  16.361  0.00  0.00    +0.000 A 
ATOM     14  C   UNL     1       6.778   4.152  15.832  0.00  0.00    +0.000 A 
ATOM     15  C   UNL     1       5.418   3.882  15.812  0.00  0.00    +0.000 A 
ATOM     16  C   UNL     1       4.515   4.813  16.329  0.00  0.00    +0.000 A 
ATOM     17  C   UNL     1       4.947   6.019  16.898  0.00  0.00    +0.000 A 
ENDBRANCH   1  17
BRANCH   7  18
ATOM     18  C   UNL     1      -0.624   9.646  19.781  0.00  0.00    +0.000 C 
BRANCH  18  19
ATOM     19  C   UNL     1      -1.307  10.510  18.768  0.00  0.00    +0.000 A 
ATOM     20  N   UNL     1      -1.076  11.824  18.641  0.00  0.00    +0.000 NA
ATOM     21  O   UNL     1      -1.866  12.179  17.546  0.00  0.00    +0.000 OA
ATOM     22  C   UNL     1      -2.506  11.043  17.135  0.00  0.00    +0.000 A 
ATOM     23  N   UNL     1      -2.215   9.992  17.877  0.00  0.00    +0.000 NA
BRANCH  22  24
ATOM     24  C   UNL     1      -3.425  10.997  15.927  0.00  0.00    +0.000 C 
ATOM     25  C   UNL     1      -2.884  10.393  14.644  0.00  0.00    +0.000 C 
ATOM     26  C   UNL     1      -3.917   9.656  15.423  0.00  0.00    +0.000 C 
ENDBRANCH  22  24
ENDBRANCH  18  19
ENDBRANCH   7  18
TORSDOF 4
ENDMDL
MODEL 7
REMARK VINA RESULT:      -7.3      3.007      3.914
REMARK  Name = 
REMARK  5 active torsions:
REMARK  status: ('A' for Active; 'I' for Inactive)
REMARK    1  A    between atoms: C_1  and  C_2
REMARK    2  A    between atoms: C_7  and  N_8
REMARK    3  A    between atoms: N_14  and  C_15
REMARK    4  A    between atoms: C_15  and  C_16
REMARK    5  A    between atoms: C_19  and  C_20
REMARK                            x       y       z     vdW  Elec       q    Type
REMARK                         _______ _______ _______ _____ _____    ______ ____
ROOT
ATOM      1  N   UNL     1       1.524   9.176  18.639  0.00  0.00    +0.000 N 
ATOM      2  C   UNL     1       1.512   8.414  19.790  0.00  0.00    +0.000 C 
ATOM      3  O   UNL     1       1.208   8.841  20.902  0.00  0.00    +0.000 OA
ATOM      4  N   UNL     1       1.820   7.070  19.624  0.00  0.00    +0.000 N 
ATOM      5  C   UNL     1       1.725   6.216  20.814  0.00  0.00    +0.000 C 
ATOM      6  C   UNL     1       1.316   4.772  20.462  0.00  0.00    +0.000 C 
ATOM      7  N   UNL     1       2.121   4.143  19.392  0.00  0.00    +0.000 NA
ATOM      8  C   UNL     1       2.137   5.053  18.223  0.00  0.00    +0.000 C 
ATOM      9  C   UNL     1       2.602   6.491  18.525  0.00  0.00    +0.000 C 
ATOM     10  H   UNL     1       1.411   8.665  17.781  0.00  0.00    +0.000 HD
ENDROOT
BRANCH   1  17
ATOM     11  C   UNL     1      -1.249  10.181  18.784  0.00  0.00    +0.000 C 
ATOM     12  C   UNL     1      -0.042  11.072  18.652  0.00  0.00    +0.000 A 
ATOM     13  C   UNL     1      -0.260  12.464  18.606  0.00  0.00    +0.000 A 
ATOM     14  C   UNL     1       0.801  13.357  18.479  0.00  0.00    +0.000 A 
ATOM     15  C   UNL     1       2.095  12.869  18.373  0.00  0.00    +0.000 A 
ATOM     16  C   UNL     1       2.325  11.493  18.404  0.00  0.00    +0.000 A 
ATOM     17  C   UNL     1       1.277  10.575  18.567  0.00  0.00    +0.000 A 
ENDBRANCH   1  17
BRANCH   7  18
ATOM     18  C   UNL     1       3.470   3.799  19.903  0.00  0.00    +0.000 C 
BRANCH  18  19
ATOM     19  C   UNL     1       4.541   4.008  18.880  0.00  0.00    +0.000 A 
ATOM     20  N   UNL     1       4.490   3.502  17.640  0.00  0.00    +0.000 NA
ATOM     21  O   UNL     1       5.644   4.012  17.044  0.00  0.00    +0.000 OA
ATOM     22  C   UNL     1       6.284   4.760  17.993  0.00  0.00    +0.000 A 
ATOM     23  N   UNL     1       5.656   4.765  19.152  0.00  0.00    +0.000 NA
BRANCH  22  24
ATOM     24  C   UNL     1       7.563   5.532  17.720  0.00  0.00    +0.000 C 
ATOM     25  C   UNL     1       7.442   6.993  17.327  0.00  0.00    +0.000 C 
ATOM     26  C   UNL     1       7.975   6.637  18.671  0.00  0.00    +0.000 C 
ENDBRANCH  22  24
ENDBRANCH  18  19
ENDBRANCH   7  18
TORSDOF 4
ENDMDL
MODEL 8
REMARK VINA RESULT:      -7.3      1.787      2.898
REMARK  Name = 
REMARK  5 active torsions:
REMARK  status: ('A' for Active; 'I' for Inactive)
REMARK    1  A    between atoms: C_1  and  C_2
REMARK    2  A    between atoms: C_7  and  N_8
REMARK    3  A    between atoms: N_14  and  C_15
REMARK    4  A    between atoms: C_15  and  C_16
REMARK    5  A    between atoms: C_19  and  C_20
REMARK                            x       y       z     vdW  Elec       q    Type
REMARK                         _______ _______ _______ _____ _____    ______ ____
ROOT
ATOM      1  N   UNL     1       0.647   9.850  19.285  0.00  0.00    +0.000 N 
ATOM      2  C   UNL     1       1.066   8.942  20.237  0.00  0.00    +0.000 C 
ATOM      3  O   UNL     1       0.815   9.028  21.438  0.00  0.00    +0.000 OA
ATOM      4  N   UNL     1       1.769   7.847  19.752  0.00  0.00    +0.000 N 
ATOM      5  C   UNL     1       2.148   6.817  20.728  0.00  0.00    +0.000 C 
ATOM      6  C   UNL     1       2.187   5.409  20.102  0.00  0.00    +0.000 C 
ATOM      7  N   UNL     1       2.978   5.307  18.855  0.00  0.00    +0.000 NA
ATOM      8  C   UNL     1       2.511   6.357  17.919  0.00  0.00    +0.000 C 
ATOM      9  C   UNL     1       2.518   7.787  18.491  0.00  0.00    +0.000 C 
ATOM     10  H   UNL     1       0.577   9.494  18.348  0.00  0.00    +0.000 HD
ENDROOT
BRANCH   1  17
ATOM     11  C   UNL     1      -2.080  10.218  18.214  0.00  0.00    +0.000 C 
ATOM     12  C   UNL     1      -1.366  11.243  19.054  0.00  0.00    +0.000 A 
ATOM     13  C   UNL     1      -2.052  12.440  19.348  0.00  0.00    +0.000 A 
ATOM     14  C   UNL     1      -1.461  13.442  20.113  0.00  0.00    +0.000 A 
ATOM     15  C   UNL     1      -0.165  13.272  20.577  0.00  0.00    +0.000 A 
ATOM     16  C   UNL     1       0.531  12.098  20.284  0.00  0.00    +0.000 A 
ATOM     17  C   UNL     1      -0.054  11.060  19.545  0.00  0.00    +0.000 A 
ENDBRANCH   1  17
BRANCH   7  18
ATOM     18  C   UNL     1       4.426   5.379  19.162  0.00  0.00    +0.000 C 
BRANCH  18  19
ATOM     19  C   UNL     1       5.269   5.485  17.931  0.00  0.00    +0.000 A 
ATOM     20  N   UNL     1       6.000   6.566  17.625  0.00  0.00    +0.000 NA
ATOM     21  O   UNL     1       6.657   6.182  16.455  0.00  0.00    +0.000 OA
ATOM     22  C   UNL     1       6.241   4.912  16.165  0.00  0.00    +0.000 A 
ATOM     23  N   UNL     1       5.362   4.449  17.032  0.00  0.00    +0.000 NA
BRANCH  22  24
ATOM     24  C   UNL     1       6.770   4.113  14.987  0.00  0.00    +0.000 C 
ATOM     25  C   UNL     1       5.896   4.006  13.750  0.00  0.00    +0.000 C 
ATOM     26  C   UNL     1       7.132   4.836  13.707  0.00  0.00    +0.000 C 
ENDBRANCH  22  24
ENDBRANCH  18  19
ENDBRANCH   7  18
TORSDOF 4
ENDMDL
MODEL 9
REMARK VINA RESULT:      -7.3      3.946     10.862
REMARK  Name = 
REMARK  5 active torsions:
REMARK  status: ('A' for Active; 'I' for Inactive)
REMARK    1  A    between atoms: C_1  and  C_2
REMARK    2  A    between atoms: C_7  and  N_8
REMARK    3  A    between atoms: N_14  and  C_15
REMARK    4  A    between atoms: C_15  and  C_16
REMARK    5  A    between atoms: C_19  and  C_20
REMARK                            x       y       z     vdW  Elec       q    Type
REMARK                         _______ _______ _______ _____ _____    ______ ____
ROOT
ATOM      1  N   UNL     1       2.262   6.405  20.277  0.00  0.00    +0.000 N 
ATOM      2  C   UNL     1       2.075   7.565  19.553  0.00  0.00    +0.000 C 
ATOM      3  O   UNL     1       2.547   7.771  18.436  0.00  0.00    +0.000 OA
ATOM      4  N   UNL     1       1.249   8.514  20.141  0.00  0.00    +0.000 N 
ATOM      5  C   UNL     1       0.956   9.718  19.355  0.00  0.00    +0.000 C 
ATOM      6  C   UNL     1      -0.445  10.284  19.657  0.00  0.00    +0.000 C 
ATOM      7  N   UNL     1      -0.739  10.477  21.095  0.00  0.00    +0.000 NA
ATOM      8  C   UNL     1      -0.449   9.209  21.805  0.00  0.00    +0.000 C 
ATOM      9  C   UNL     1       0.968   8.646  21.576  0.00  0.00    +0.000 C 
ATOM     10  H   UNL     1       1.552   6.201  20.959  0.00  0.00    +0.000 HD
ENDROOT
BRANCH   1  17
ATOM     11  C   UNL     1       1.189   3.655  20.366  0.00  0.00    +0.000 C 
ATOM     12  C   UNL     1       2.586   3.994  19.917  0.00  0.00    +0.000 A 
ATOM     13  C   UNL     1       3.416   2.931  19.508  0.00  0.00    +0.000 A 
ATOM     14  C   UNL     1       4.723   3.157  19.084  0.00  0.00    +0.000 A 
ATOM     15  C   UNL     1       5.226   4.449  19.084  0.00  0.00    +0.000 A 
ATOM     16  C   UNL     1       4.420   5.511  19.498  0.00  0.00    +0.000 A 
ATOM     17  C   UNL     1       3.090   5.313  19.896  0.00  0.00    +0.000 A 
ENDBRANCH   1  17
BRANCH   7  18
ATOM     18  C   UNL     1       0.013  11.643  21.617  0.00  0.00    +0.000 C 
BRANCH  18  19
ATOM     19  C   UNL     1      -0.830  12.530  22.478  0.00  0.00    +0.000 A 
ATOM     20  N   UNL     1      -2.116  12.282  22.761  0.00  0.00    +0.000 NA
ATOM     21  O   UNL     1      -2.452  13.318  23.634  0.00  0.00    +0.000 OA
ATOM     22  C   UNL     1      -1.337  14.096  23.774  0.00  0.00    +0.000 A 
ATOM     23  N   UNL     1      -0.317  13.667  23.057  0.00  0.00    +0.000 NA
BRANCH  22  24
ATOM     24  C   UNL     1      -1.276  15.306  24.691  0.00  0.00    +0.000 C 
ATOM     25  C   UNL     1      -1.878  16.607  24.193  0.00  0.00    +0.000 C 
ATOM     26  C   UNL     1      -2.561  15.851  25.280  0.00  0.00    +0.000 C 
ENDBRANCH  22  24
ENDBRANCH  18  19
ENDBRANCH   7  18
TORSDOF 4
ENDMDL
