MODEL 1
REMARK VINA RESULT:      -9.1      0.000      0.000
REMARK  Name = 
REMARK  5 active torsions:
REMARK  status: ('A' for Active; 'I' for Inactive)
REMARK    1  A    between atoms: C_1  and  C_2
REMARK    2  A    between atoms: C_5  and  C_6
REMARK    3  A    between atoms: C_18  and  N_19
REMARK    4  A    between atoms: N_19  and  S_20
REMARK    5  A    between atoms: S_20  and  C_23
REMARK                            x       y       z     vdW  Elec       q    Type
REMARK                         _______ _______ _______ _____ _____    ______ ____
ROOT
ATOM      1  C   UNL     1       4.327   2.136  19.840  0.00  0.00    +0.000 C 
ATOM      2  C   UNL     1       3.826   3.519  19.546  0.00  0.00    +0.000 A 
ATOM      3  N   UNL     1       2.979   4.033  20.471  0.00  0.00    +0.000 NA
ATOM      4  C   UNL     1       2.482   5.269  20.245  0.00  0.00    +0.000 A 
ATOM      5  C   UNL     1       2.772   6.037  19.122  0.00  0.00    +0.000 A 
ATOM      6  C   UNL     1       3.648   5.492  18.177  0.00  0.00    +0.000 A 
ATOM      7  C   UNL     1       4.204   4.224  18.395  0.00  0.00    +0.000 A 
ENDROOT
BRANCH   5   8
ATOM      8  C   UNL     1       2.207   7.394  19.019  0.00  0.00    +0.000 A 
ATOM      9  C   UNL     1       2.325   8.182  17.808  0.00  0.00    +0.000 A 
ATOM     10  C   UNL     1       1.920   9.456  17.764  0.00  0.00    +0.000 A 
ATOM     11  C   UNL     1       1.319  10.087  18.968  0.00  0.00    +0.000 A 
ATOM     12  N   UNL     1       0.939  11.327  18.898  0.00  0.00    +0.000 NA
ATOM     13  C   UNL     1       0.402  11.877  20.025  0.00  0.00    +0.000 A 
ATOM     14  C   UNL     1       0.247  11.237  21.182  0.00  0.00    +0.000 A 
ATOM     15  C   UNL     1       0.682   9.832  21.269  0.00  0.00    +0.000 A 
ATOM     16  O   UNL     1       0.557   9.240  22.340  0.00  0.00    +0.000 OA
ATOM     17  N   UNL     1       1.213   9.292  20.105  0.00  0.00    +0.000 N 
ATOM     18  C   UNL     1       1.662   7.970  20.107  0.00  0.00    +0.000 A 
ENDBRANCH   5   8
BRANCH   7  19
ATOM     19  N   UNL     1       5.055   3.634  17.418  0.00  0.00    +0.000 N 
ATOM     20  H   UNL     1       5.029   2.628  17.257  0.00  0.00    +0.000 HD
BRANCH  19  21
ATOM     21  S   UNL     1       5.767   4.552  16.210  0.00  0.00    +0.000 S 
ATOM     22  O   UNL     1       6.694   3.671  15.531  0.00  0.00    +0.000 OA
ATOM     23  O   UNL     1       4.749   5.277  15.483  0.00  0.00    +0.000 OA
BRANCH  21  24
ATOM     24  C   UNL     1       6.735   5.729  17.131  0.00  0.00    +0.000 A 
ATOM     25  C   UNL     1       7.458   5.312  18.258  0.00  0.00    +0.000 A 
ATOM     26  C   UNL     1       8.209   6.244  18.975  0.00  0.00    +0.000 A 
ATOM     27  C   UNL     1       8.241   7.572  18.555  0.00  0.00    +0.000 A 
ATOM     28  F   UNL     1       8.960   8.464  19.249  0.00  0.00    +0.000 F 
ATOM     29  C   UNL     1       7.541   7.986  17.425  0.00  0.00    +0.000 A 
ATOM     30  C   UNL     1       6.789   7.061  16.702  0.00  0.00    +0.000 A 
ENDBRANCH  21  24
ENDBRANCH  19  21
ENDBRANCH   7  19
TORSDOF 4
ENDMDL
MODEL 2
REMARK VINA RESULT:      -8.9      0.551      1.052
REMARK  Name = 
REMARK  5 active torsions:
REMARK  status: ('A' for Active; 'I' for Inactive)
REMARK    1  A    between atoms: C_1  and  C_2
REMARK    2  A    between atoms: C_5  and  C_6
REMARK    3  A    between atoms: C_18  and  N_19
REMARK    4  A    between atoms: N_19  and  S_20
REMARK    5  A    between atoms: S_20  and  C_23
REMARK                            x       y       z     vdW  Elec       q    Type
REMARK                         _______ _______ _______ _____ _____    ______ ____
ROOT
ATOM      1  C   UNL     1       4.505   2.479  19.367  0.00  0.00    +0.000 C 
ATOM      2  C   UNL     1       3.912   3.840  19.152  0.00  0.00    +0.000 A 
ATOM      3  N   UNL     1       3.439   4.446  20.269  0.00  0.00    +0.000 NA
ATOM      4  C   UNL     1       2.876   5.666  20.129  0.00  0.00    +0.000 A 
ATOM      5  C   UNL     1       2.738   6.330  18.914  0.00  0.00    +0.000 A 
ATOM      6  C   UNL     1       3.231   5.692  17.771  0.00  0.00    +0.000 A 
ATOM      7  C   UNL     1       3.847   4.438  17.886  0.00  0.00    +0.000 A 
ENDROOT
BRANCH   5   8
ATOM      8  C   UNL     1       2.153   7.682  18.902  0.00  0.00    +0.000 A 
ATOM      9  C   UNL     1       2.259   8.552  17.747  0.00  0.00    +0.000 A 
ATOM     10  C   UNL     1       1.835   9.820  17.788  0.00  0.00    +0.000 A 
ATOM     11  C   UNL     1       1.225  10.359  19.032  0.00  0.00    +0.000 A 
ATOM     12  N   UNL     1       0.827  11.596  19.045  0.00  0.00    +0.000 NA
ATOM     13  C   UNL     1       0.281  12.060  20.205  0.00  0.00    +0.000 A 
ATOM     14  C   UNL     1       0.136  11.342  21.317  0.00  0.00    +0.000 A 
ATOM     15  C   UNL     1       0.592   9.940  21.309  0.00  0.00    +0.000 A 
ATOM     16  O   UNL     1       0.475   9.276  22.338  0.00  0.00    +0.000 OA
ATOM     17  N   UNL     1       1.131   9.488  20.113  0.00  0.00    +0.000 N 
ATOM     18  C   UNL     1       1.599   8.175  20.026  0.00  0.00    +0.000 A 
ENDBRANCH   5   8
BRANCH   7  19
ATOM     19  N   UNL     1       4.306   3.753  16.725  0.00  0.00    +0.000 N 
ATOM     20  H   UNL     1       3.767   2.978  16.342  0.00  0.00    +0.000 HD
BRANCH  19  21
ATOM     21  S   UNL     1       5.441   4.436  15.699  0.00  0.00    +0.000 S 
ATOM     22  O   UNL     1       6.249   3.339  15.208  0.00  0.00    +0.000 OA
ATOM     23  O   UNL     1       4.791   5.355  14.793  0.00  0.00    +0.000 OA
BRANCH  21  24
ATOM     24  C   UNL     1       6.458   5.383  16.814  0.00  0.00    +0.000 A 
ATOM     25  C   UNL     1       6.499   6.782  16.707  0.00  0.00    +0.000 A 
ATOM     26  C   UNL     1       7.302   7.513  17.583  0.00  0.00    +0.000 A 
ATOM     27  C   UNL     1       8.042   6.846  18.557  0.00  0.00    +0.000 A 
ATOM     28  F   UNL     1       8.815   7.553  19.393  0.00  0.00    +0.000 F 
ATOM     29  C   UNL     1       7.988   5.461  18.680  0.00  0.00    +0.000 A 
ATOM     30  C   UNL     1       7.186   4.722  17.810  0.00  0.00    +0.000 A 
ENDBRANCH  21  24
ENDBRANCH  19  21
ENDBRANCH   7  19
TORSDOF 4
ENDMDL
MODEL 3
REMARK VINA RESULT:      -8.9      2.424      2.922
REMARK  Name = 
REMARK  5 active torsions:
REMARK  status: ('A' for Active; 'I' for Inactive)
REMARK    1  A    between atoms: C_1  and  C_2
REMARK    2  A    between atoms: C_5  and  C_6
REMARK    3  A    between atoms: C_18  and  N_19
REMARK    4  A    between atoms: N_19  and  S_20
REMARK    5  A    between atoms: S_20  and  C_23
REMARK                            x       y       z     vdW  Elec       q    Type
REMARK                         _______ _______ _______ _____ _____    ______ ____
ROOT
ATOM      1  C   UNL     1       4.283   1.895  20.231  0.00  0.00    +0.000 C 
ATOM      2  C   UNL     1       3.841   3.295  19.924  0.00  0.00    +0.000 A 
ATOM      3  N   UNL     1       2.625   3.636  20.418  0.00  0.00    +0.000 NA
ATOM      4  C   UNL     1       2.170   4.880  20.153  0.00  0.00    +0.000 A 
ATOM      5  C   UNL     1       2.859   5.823  19.397  0.00  0.00    +0.000 A 
ATOM      6  C   UNL     1       4.111   5.455  18.895  0.00  0.00    +0.000 A 
ATOM      7  C   UNL     1       4.626   4.182  19.175  0.00  0.00    +0.000 A 
ENDROOT
BRANCH   5   8
ATOM      8  C   UNL     1       2.276   7.165  19.226  0.00  0.00    +0.000 A 
ATOM      9  C   UNL     1       2.365   7.884  17.970  0.00  0.00    +0.000 A 
ATOM     10  C   UNL     1       1.944   9.148  17.859  0.00  0.00    +0.000 A 
ATOM     11  C   UNL     1       1.355   9.841  19.035  0.00  0.00    +0.000 A 
ATOM     12  N   UNL     1       0.959  11.071  18.900  0.00  0.00    +0.000 NA
ATOM     13  C   UNL     1       0.432  11.679  20.001  0.00  0.00    +0.000 A 
ATOM     14  C   UNL     1       0.303  11.105  21.196  0.00  0.00    +0.000 A 
ATOM     15  C   UNL     1       0.757   9.711  21.356  0.00  0.00    +0.000 A 
ATOM     16  O   UNL     1       0.655   9.181  22.462  0.00  0.00    +0.000 OA
ATOM     17  N   UNL     1       1.276   9.112  20.217  0.00  0.00    +0.000 N 
ATOM     18  C   UNL     1       1.740   7.796  20.288  0.00  0.00    +0.000 A 
ENDBRANCH   5   8
BRANCH   7  19
ATOM     19  N   UNL     1       5.875   3.775  18.626  0.00  0.00    +0.000 N 
ATOM     20  H   UNL     1       6.049   2.791  18.424  0.00  0.00    +0.000 HD
BRANCH  19  21
ATOM     21  S   UNL     1       6.900   4.870  17.877  0.00  0.00    +0.000 S 
ATOM     22  O   UNL     1       6.364   6.183  18.170  0.00  0.00    +0.000 OA
ATOM     23  O   UNL     1       8.274   4.535  18.174  0.00  0.00    +0.000 OA
BRANCH  21  24
ATOM     24  C   UNL     1       6.613   4.555  16.147  0.00  0.00    +0.000 A 
ATOM     25  C   UNL     1       5.486   3.822  15.747  0.00  0.00    +0.000 A 
ATOM     26  C   UNL     1       5.274   3.578  14.389  0.00  0.00    +0.000 A 
ATOM     27  C   UNL     1       6.177   4.075  13.451  0.00  0.00    +0.000 A 
ATOM     28  F   UNL     1       5.972   3.834  12.149  0.00  0.00    +0.000 F 
ATOM     29  C   UNL     1       7.285   4.821  13.843  0.00  0.00    +0.000 A 
ATOM     30  C   UNL     1       7.504   5.071  15.198  0.00  0.00    +0.000 A 
ENDBRANCH  21  24
ENDBRANCH  19  21
ENDBRANCH   7  19
TORSDOF 4
ENDMDL
MODEL 4
REMARK VINA RESULT:      -8.6      2.735      3.222
REMARK  Name = 
REMARK  5 active torsions:
REMARK  status: ('A' for Active; 'I' for Inactive)
REMARK    1  A    between atoms: C_1  and  C_2
REMARK    2  A    between atoms: C_5  and  C_6
REMARK    3  A    between atoms: C_18  and  N_19
REMARK    4  A    between atoms: N_19  and  S_20
REMARK    5  A    between atoms: S_20  and  C_23
REMARK                            x       y       z     vdW  Elec       q    Type
REMARK                         _______ _______ _______ _____ _____    ______ ____
ROOT
ATOM      1  C   UNL     1       4.527   2.776  19.286  0.00  0.00    +0.000 C 
ATOM      2  C   UNL     1       3.929   4.145  19.154  0.00  0.00    +0.000 A 
ATOM      3  N   UNL     1       3.073   4.498  20.144  0.00  0.00    +0.000 NA
ATOM      4  C   UNL     1       2.490   5.714  20.062  0.00  0.00    +0.000 A 
ATOM      5  C   UNL     1       2.700   6.616  19.025  0.00  0.00    +0.000 A 
ATOM      6  C   UNL     1       3.587   6.237  18.011  0.00  0.00    +0.000 A 
ATOM      7  C   UNL     1       4.230   4.994  18.080  0.00  0.00    +0.000 A 
ENDROOT
BRANCH   5   8
ATOM      8  C   UNL     1       2.044   7.935  19.081  0.00  0.00    +0.000 A 
ATOM      9  C   UNL     1       2.045   8.838  17.947  0.00  0.00    +0.000 A 
ATOM     10  C   UNL     1       1.557  10.079  18.045  0.00  0.00    +0.000 A 
ATOM     11  C   UNL     1       0.983  10.553  19.332  0.00  0.00    +0.000 A 
ATOM     12  N   UNL     1       0.521  11.765  19.400  0.00  0.00    +0.000 NA
ATOM     13  C   UNL     1       0.011  12.169  20.599  0.00  0.00    +0.000 A 
ATOM     14  C   UNL     1      -0.039  11.415  21.696  0.00  0.00    +0.000 A 
ATOM     15  C   UNL     1       0.490  10.041  21.625  0.00  0.00    +0.000 A 
ATOM     16  O   UNL     1       0.461   9.345  22.640  0.00  0.00    +0.000 OA
ATOM     17  N   UNL     1       0.991   9.650  20.391  0.00  0.00    +0.000 N 
ATOM     18  C   UNL     1       1.523   8.367  20.244  0.00  0.00    +0.000 A 
ENDBRANCH   5   8
BRANCH   7  19
ATOM     19  N   UNL     1       5.094   4.572  17.029  0.00  0.00    +0.000 N 
ATOM     20  H   UNL     1       4.831   3.788  16.434  0.00  0.00    +0.000 HD
BRANCH  19  21
ATOM     21  S   UNL     1       6.299   5.573  16.434  0.00  0.00    +0.000 S 
ATOM     22  O   UNL     1       5.698   6.883  16.291  0.00  0.00    +0.000 OA
ATOM     23  O   UNL     1       7.513   5.382  17.193  0.00  0.00    +0.000 OA
BRANCH  21  24
ATOM     24  C   UNL     1       6.565   4.933  14.793  0.00  0.00    +0.000 A 
ATOM     25  C   UNL     1       5.696   3.963  14.270  0.00  0.00    +0.000 A 
ATOM     26  C   UNL     1       5.917   3.465  12.986  0.00  0.00    +0.000 A 
ATOM     27  C   UNL     1       6.988   3.946  12.236  0.00  0.00    +0.000 A 
ATOM     28  F   UNL     1       7.199   3.462  11.004  0.00  0.00    +0.000 F 
ATOM     29  C   UNL     1       7.841   4.923  12.743  0.00  0.00    +0.000 A 
ATOM     30  C   UNL     1       7.627   5.428  14.025  0.00  0.00    +0.000 A 
ENDBRANCH  21  24
ENDBRANCH  19  21
ENDBRANCH   7  19
TORSDOF 4
ENDMDL
MODEL 5
REMARK VINA RESULT:      -8.6      2.446      2.960
REMARK  Name = 
REMARK  5 active torsions:
REMARK  status: ('A' for Active; 'I' for Inactive)
REMARK    1  A    between atoms: C_1  and  C_2
REMARK    2  A    between atoms: C_5  and  C_6
REMARK    3  A    between atoms: C_18  and  N_19
REMARK    4  A    between atoms: N_19  and  S_20
REMARK    5  A    between atoms: S_20  and  C_23
REMARK                            x       y       z     vdW  Elec       q    Type
REMARK                         _______ _______ _______ _____ _____    ______ ____
ROOT
ATOM      1  C   UNL     1       3.499   2.608  20.527  0.00  0.00    +0.000 C 
ATOM      2  C   UNL     1       3.136   4.015  20.154  0.00  0.00    +0.000 A 
ATOM      3  N   UNL     1       2.139   4.566  20.888  0.00  0.00    +0.000 NA
ATOM      4  C   UNL     1       1.758   5.825  20.581  0.00  0.00    +0.000 A 
ATOM      5  C   UNL     1       2.312   6.583  19.554  0.00  0.00    +0.000 A 
ATOM      6  C   UNL     1       3.341   5.999  18.806  0.00  0.00    +0.000 A 
ATOM      7  C   UNL     1       3.779   4.705  19.118  0.00  0.00    +0.000 A 
ENDROOT
BRANCH   5   8
ATOM      8  C   UNL     1       1.845   7.966  19.354  0.00  0.00    +0.000 A 
ATOM      9  C   UNL     1       2.009   8.654  18.089  0.00  0.00    +0.000 A 
ATOM     10  C   UNL     1       1.695   9.946  17.953  0.00  0.00    +0.000 A 
ATOM     11  C   UNL     1       1.152  10.705  19.110  0.00  0.00    +0.000 A 
ATOM     12  N   UNL     1       0.861  11.961  18.951  0.00  0.00    +0.000 NA
ATOM     13  C   UNL     1       0.373  12.628  20.036  0.00  0.00    +0.000 A 
ATOM     14  C   UNL     1       0.183  12.087  21.238  0.00  0.00    +0.000 A 
ATOM     15  C   UNL     1       0.517  10.663  21.425  0.00  0.00    +0.000 A 
ATOM     16  O   UNL     1       0.359  10.162  22.537  0.00  0.00    +0.000 OA
ATOM     17  N   UNL     1       0.999  10.005  20.302  0.00  0.00    +0.000 N 
ATOM     18  C   UNL     1       1.351   8.656  20.399  0.00  0.00    +0.000 A 
ENDBRANCH   5   8
BRANCH   7  19
ATOM     19  N   UNL     1       4.787   4.078  18.332  0.00  0.00    +0.000 N 
ATOM     20  H   UNL     1       4.570   3.242  17.792  0.00  0.00    +0.000 HD
BRANCH  19  21
ATOM     21  S   UNL     1       6.184   4.894  17.890  0.00  0.00    +0.000 S 
ATOM     22  O   UNL     1       5.904   6.301  18.085  0.00  0.00    +0.000 OA
ATOM     23  O   UNL     1       7.331   4.264  18.502  0.00  0.00    +0.000 OA
BRANCH  21  24
ATOM     24  C   UNL     1       6.266   4.609  16.134  0.00  0.00    +0.000 A 
ATOM     25  C   UNL     1       7.392   5.026  15.408  0.00  0.00    +0.000 A 
ATOM     26  C   UNL     1       7.443   4.801  14.032  0.00  0.00    +0.000 A 
ATOM     27  C   UNL     1       6.382   4.156  13.400  0.00  0.00    +0.000 A 
ATOM     28  F   UNL     1       6.433   3.946  12.078  0.00  0.00    +0.000 F 
ATOM     29  C   UNL     1       5.272   3.722  14.120  0.00  0.00    +0.000 A 
ATOM     30  C   UNL     1       5.213   3.940  15.496  0.00  0.00    +0.000 A 
ENDBRANCH  21  24
ENDBRANCH  19  21
ENDBRANCH   7  19
TORSDOF 4
ENDMDL
MODEL 6
REMARK VINA RESULT:      -8.5      4.565      8.426
REMARK  Name = 
REMARK  5 active torsions:
REMARK  status: ('A' for Active; 'I' for Inactive)
REMARK    1  A    between atoms: C_1  and  C_2
REMARK    2  A    between atoms: C_5  and  C_6
REMARK    3  A    between atoms: C_18  and  N_19
REMARK    4  A    between atoms: N_19  and  S_20
REMARK    5  A    between atoms: S_20  and  C_23
REMARK                            x       y       z     vdW  Elec       q    Type
REMARK                         _______ _______ _______ _____ _____    ______ ____
ROOT
ATOM      1  C   UNL     1      -1.137  11.246  22.841  0.00  0.00    +0.000 C 
ATOM      2  C   UNL     1      -0.305  10.250  22.088  0.00  0.00    +0.000 A 
ATOM      3  N   UNL     1      -0.541   8.951  22.397  0.00  0.00    +0.000 NA
ATOM      4  C   UNL     1       0.195   8.014  21.762  0.00  0.00    +0.000 A 
ATOM      5  C   UNL     1       1.185   8.295  20.826  0.00  0.00    +0.000 A 
ATOM      6  C   UNL     1       1.417   9.640  20.519  0.00  0.00    +0.000 A 
ATOM      7  C   UNL     1       0.650  10.637  21.138  0.00  0.00    +0.000 A 
ENDROOT
BRANCH   5   8
ATOM      8  C   UNL     1       1.881   7.178  20.165  0.00  0.00    +0.000 A 
ATOM      9  C   UNL     1       2.391   7.287  18.812  0.00  0.00    +0.000 A 
ATOM     10  C   UNL     1       2.910   6.232  18.175  0.00  0.00    +0.000 A 
ATOM     11  C   UNL     1       2.987   4.915  18.861  0.00  0.00    +0.000 A 
ATOM     12  N   UNL     1       3.490   3.906  18.216  0.00  0.00    +0.000 NA
ATOM     13  C   UNL     1       3.537   2.711  18.872  0.00  0.00    +0.000 A 
ATOM     14  C   UNL     1       3.099   2.508  20.113  0.00  0.00    +0.000 A 
ATOM     15  C   UNL     1       2.521   3.649  20.846  0.00  0.00    +0.000 A 
ATOM     16  O   UNL     1       2.100   3.464  21.988  0.00  0.00    +0.000 OA
ATOM     17  N   UNL     1       2.498   4.856  20.162  0.00  0.00    +0.000 N 
ATOM     18  C   UNL     1       1.954   5.983  20.782  0.00  0.00    +0.000 A 
ENDBRANCH   5   8
BRANCH   7  19
ATOM     19  N   UNL     1       0.911  12.012  20.875  0.00  0.00    +0.000 N 
ATOM     20  H   UNL     1       1.502  12.551  21.506  0.00  0.00    +0.000 HD
BRANCH  19  21
ATOM     21  S   UNL     1       0.669  12.671  19.353  0.00  0.00    +0.000 S 
ATOM     22  O   UNL     1       0.387  14.075  19.565  0.00  0.00    +0.000 OA
ATOM     23  O   UNL     1       1.722  12.242  18.462  0.00  0.00    +0.000 OA
BRANCH  21  24
ATOM     24  C   UNL     1      -0.850  11.901  18.829  0.00  0.00    +0.000 A 
ATOM     25  C   UNL     1      -0.813  10.799  17.961  0.00  0.00    +0.000 A 
ATOM     26  C   UNL     1      -2.009  10.207  17.554  0.00  0.00    +0.000 A 
ATOM     27  C   UNL     1      -3.220  10.709  18.023  0.00  0.00    +0.000 A 
ATOM     28  F   UNL     1      -4.366  10.140  17.626  0.00  0.00    +0.000 F 
ATOM     29  C   UNL     1      -3.260  11.789  18.901  0.00  0.00    +0.000 A 
ATOM     30  C   UNL     1      -2.070  12.386  19.315  0.00  0.00    +0.000 A 
ENDBRANCH  21  24
ENDBRANCH  19  21
ENDBRANCH   7  19
TORSDOF 4
ENDMDL
MODEL 7
REMARK VINA RESULT:      -8.4      1.446      2.150
REMARK  Name = 
REMARK  5 active torsions:
REMARK  status: ('A' for Active; 'I' for Inactive)
REMARK    1  A    between atoms: C_1  and  C_2
REMARK    2  A    between atoms: C_5  and  C_6
REMARK    3  A    between atoms: C_18  and  N_19
REMARK    4  A    between atoms: N_19  and  S_20
REMARK    5  A    between atoms: S_20  and  C_23
REMARK                            x       y       z     vdW  Elec       q    Type
REMARK                         _______ _______ _______ _____ _____    ______ ____
ROOT
ATOM      1  C   UNL     1       2.651   1.610  19.496  0.00  0.00    +0.000 C 
ATOM      2  C   UNL     1       2.499   3.092  19.667  0.00  0.00    +0.000 A 
ATOM      3  N   UNL     1       1.368   3.486  20.302  0.00  0.00    +0.000 NA
ATOM      4  C   UNL     1       1.171   4.813  20.465  0.00  0.00    +0.000 A 
ATOM      5  C   UNL     1       2.045   5.796  20.012  0.00  0.00    +0.000 A 
ATOM      6  C   UNL     1       3.208   5.373  19.359  0.00  0.00    +0.000 A 
ATOM      7  C   UNL     1       3.456   4.003  19.199  0.00  0.00    +0.000 A 
ENDROOT
BRANCH   5   8
ATOM      8  C   UNL     1       1.743   7.209  20.300  0.00  0.00    +0.000 A 
ATOM      9  C   UNL     1       1.175   7.627  21.567  0.00  0.00    +0.000 A 
ATOM     10  C   UNL     1       0.789   8.890  21.774  0.00  0.00    +0.000 A 
ATOM     11  C   UNL     1       0.952   9.903  20.698  0.00  0.00    +0.000 A 
ATOM     12  N   UNL     1       0.563  11.122  20.925  0.00  0.00    +0.000 NA
ATOM     13  C   UNL     1       0.718  12.022  19.913  0.00  0.00    +0.000 A 
ATOM     14  C   UNL     1       1.231  11.739  18.717  0.00  0.00    +0.000 A 
ATOM     15  C   UNL     1       1.668  10.357  18.452  0.00  0.00    +0.000 A 
ATOM     16  O   UNL     1       2.128  10.085  17.344  0.00  0.00    +0.000 OA
ATOM     17  N   UNL     1       1.511   9.463  19.503  0.00  0.00    +0.000 N 
ATOM     18  C   UNL     1       1.889   8.130  19.329  0.00  0.00    +0.000 A 
ENDBRANCH   5   8
BRANCH   7  19
ATOM     19  N   UNL     1       4.608   3.559  18.490  0.00  0.00    +0.000 N 
ATOM     20  H   UNL     1       5.007   2.642  18.685  0.00  0.00    +0.000 HD
BRANCH  19  21
ATOM     21  S   UNL     1       5.072   4.268  17.043  0.00  0.00    +0.000 S 
ATOM     22  O   UNL     1       5.820   3.258  16.324  0.00  0.00    +0.000 OA
ATOM     23  O   UNL     1       3.940   4.936  16.442  0.00  0.00    +0.000 OA
BRANCH  21  24
ATOM     24  C   UNL     1       6.233   5.511  17.571  0.00  0.00    +0.000 A 
ATOM     25  C   UNL     1       6.261   6.759  16.931  0.00  0.00    +0.000 A 
ATOM     26  C   UNL     1       7.178   7.724  17.350  0.00  0.00    +0.000 A 
ATOM     27  C   UNL     1       8.043   7.439  18.404  0.00  0.00    +0.000 A 
ATOM     28  F   UNL     1       8.925   8.368  18.800  0.00  0.00    +0.000 F 
ATOM     29  C   UNL     1       8.004   6.210  19.055  0.00  0.00    +0.000 A 
ATOM     30  C   UNL     1       7.090   5.240  18.645  0.00  0.00    +0.000 A 
ENDBRANCH  21  24
ENDBRANCH  19  21
ENDBRANCH   7  19
TORSDOF 4
ENDMDL
MODEL 8
REMARK VINA RESULT:      -8.3      3.966      8.353
REMARK  Name = 
REMARK  5 active torsions:
REMARK  status: ('A' for Active; 'I' for Inactive)
REMARK    1  A    between atoms: C_1  and  C_2
REMARK    2  A    between atoms: C_5  and  C_6
REMARK    3  A    between atoms: C_18  and  N_19
REMARK    4  A    between atoms: N_19  and  S_20
REMARK    5  A    between atoms: S_20  and  C_23
REMARK                            x       y       z     vdW  Elec       q    Type
REMARK                         _______ _______ _______ _____ _____    ______ ____
ROOT
ATOM      1  C   UNL     1      -0.875  11.467  22.783  0.00  0.00    +0.000 C 
ATOM      2  C   UNL     1      -0.163  10.348  22.082  0.00  0.00    +0.000 A 
ATOM      3  N   UNL     1      -0.522   9.101  22.475  0.00  0.00    +0.000 NA
ATOM      4  C   UNL     1       0.103   8.057  21.889  0.00  0.00    +0.000 A 
ATOM      5  C   UNL     1       1.097   8.179  20.924  0.00  0.00    +0.000 A 
ATOM      6  C   UNL     1       1.456   9.473  20.529  0.00  0.00    +0.000 A 
ATOM      7  C   UNL     1       0.807  10.578  21.096  0.00  0.00    +0.000 A 
ENDROOT
BRANCH   5   8
ATOM      8  C   UNL     1       1.664   6.959  20.323  0.00  0.00    +0.000 A 
ATOM      9  C   UNL     1       1.484   5.654  20.928  0.00  0.00    +0.000 A 
ATOM     10  C   UNL     1       2.104   4.571  20.446  0.00  0.00    +0.000 A 
ATOM     11  C   UNL     1       2.988   4.689  19.257  0.00  0.00    +0.000 A 
ATOM     12  N   UNL     1       3.582   3.622  18.814  0.00  0.00    +0.000 NA
ATOM     13  C   UNL     1       4.393   3.768  17.727  0.00  0.00    +0.000 A 
ATOM     14  C   UNL     1       4.622   4.921  17.100  0.00  0.00    +0.000 A 
ATOM     15  C   UNL     1       3.955   6.135  17.602  0.00  0.00    +0.000 A 
ATOM     16  O   UNL     1       4.174   7.206  17.037  0.00  0.00    +0.000 OA
ATOM     17  N   UNL     1       3.124   5.957  18.700  0.00  0.00    +0.000 N 
ATOM     18  C   UNL     1       2.465   7.061  19.246  0.00  0.00    +0.000 A 
ENDBRANCH   5   8
BRANCH   7  19
ATOM     19  N   UNL     1       1.198  11.901  20.744  0.00  0.00    +0.000 N 
ATOM     20  H   UNL     1       1.872  12.405  21.317  0.00  0.00    +0.000 HD
BRANCH  19  21
ATOM     21  S   UNL     1       0.955  12.501  19.198  0.00  0.00    +0.000 S 
ATOM     22  O   UNL     1       0.721  13.922  19.352  0.00  0.00    +0.000 OA
ATOM     23  O   UNL     1       1.980  12.000  18.312  0.00  0.00    +0.000 OA
BRANCH  21  24
ATOM     24  C   UNL     1      -0.595  11.759  18.728  0.00  0.00    +0.000 A 
ATOM     25  C   UNL     1      -1.803  12.361  19.109  0.00  0.00    +0.000 A 
ATOM     26  C   UNL     1      -3.011  11.768  18.739  0.00  0.00    +0.000 A 
ATOM     27  C   UNL     1      -3.000  10.595  17.987  0.00  0.00    +0.000 A 
ATOM     28  F   UNL     1      -4.163  10.027  17.638  0.00  0.00    +0.000 F 
ATOM     29  C   UNL     1      -1.804  10.006  17.589  0.00  0.00    +0.000 A 
ATOM     30  C   UNL     1      -0.592  10.593  17.953  0.00  0.00    +0.000 A 
ENDBRANCH  21  24
ENDBRANCH  19  21
ENDBRANCH   7  19
TORSDOF 4
ENDMDL
MODEL 9
REMARK VINA RESULT:      -8.3      4.186      8.853
REMARK  Name = 
REMARK  5 active torsions:
REMARK  status: ('A' for Active; 'I' for Inactive)
REMARK    1  A    between atoms: C_1  and  C_2
REMARK    2  A    between atoms: C_5  and  C_6
REMARK    3  A    between atoms: C_18  and  N_19
REMARK    4  A    between atoms: N_19  and  S_20
REMARK    5  A    between atoms: S_20  and  C_23
REMARK                            x       y       z     vdW  Elec       q    Type
REMARK                         _______ _______ _______ _____ _____    ______ ____
ROOT
ATOM      1  C   UNL     1       0.803  12.064  18.705  0.00  0.00    +0.000 C 
ATOM      2  C   UNL     1       1.253  10.634  18.667  0.00  0.00    +0.000 A 
ATOM      3  N   UNL     1       2.216  10.358  17.752  0.00  0.00    +0.000 NA
ATOM      4  C   UNL     1       2.644   9.080  17.662  0.00  0.00    +0.000 A 
ATOM      5  C   UNL     1       2.152   8.032  18.434  0.00  0.00    +0.000 A 
ATOM      6  C   UNL     1       1.159   8.334  19.372  0.00  0.00    +0.000 A 
ATOM      7  C   UNL     1       0.713   9.655  19.512  0.00  0.00    +0.000 A 
ENDROOT
BRANCH   5   8
ATOM      8  C   UNL     1       2.742   6.691  18.276  0.00  0.00    +0.000 A 
ATOM      9  C   UNL     1       3.927   6.466  17.472  0.00  0.00    +0.000 A 
ATOM     10  C   UNL     1       4.382   5.231  17.234  0.00  0.00    +0.000 A 
ATOM     11  C   UNL     1       3.679   4.055  17.810  0.00  0.00    +0.000 A 
ATOM     12  N   UNL     1       4.141   2.868  17.557  0.00  0.00    +0.000 NA
ATOM     13  C   UNL     1       3.465   1.811  18.094  0.00  0.00    +0.000 A 
ATOM     14  C   UNL     1       2.372   1.913  18.848  0.00  0.00    +0.000 A 
ATOM     15  C   UNL     1       1.841   3.258  19.132  0.00  0.00    +0.000 A 
ATOM     16  O   UNL     1       0.821   3.358  19.815  0.00  0.00    +0.000 OA
ATOM     17  N   UNL     1       2.554   4.316  18.585  0.00  0.00    +0.000 N 
ATOM     18  C   UNL     1       2.109   5.623  18.797  0.00  0.00    +0.000 A 
ENDBRANCH   5   8
BRANCH   7  19
ATOM     19  N   UNL     1      -0.334   9.968  20.424  0.00  0.00    +0.000 N 
ATOM     20  H   UNL     1      -1.307   9.844  20.150  0.00  0.00    +0.000 HD
BRANCH  19  21
ATOM     21  S   UNL     1      -0.047  10.100  22.071  0.00  0.00    +0.000 S 
ATOM     22  O   UNL     1      -0.780   9.017  22.692  0.00  0.00    +0.000 OA
ATOM     23  O   UNL     1       1.366  10.284  22.307  0.00  0.00    +0.000 OA
BRANCH  21  24
ATOM     24  C   UNL     1      -0.882  11.615  22.494  0.00  0.00    +0.000 A 
ATOM     25  C   UNL     1      -2.099  11.573  23.192  0.00  0.00    +0.000 A 
ATOM     26  C   UNL     1      -2.746  12.767  23.514  0.00  0.00    +0.000 A 
ATOM     27  C   UNL     1      -2.171  13.982  23.150  0.00  0.00    +0.000 A 
ATOM     28  F   UNL     1      -2.798  15.125  23.457  0.00  0.00    +0.000 F 
ATOM     29  C   UNL     1      -0.954  14.029  22.476  0.00  0.00    +0.000 A 
ATOM     30  C   UNL     1      -0.299  12.841  22.151  0.00  0.00    +0.000 A 
ENDBRANCH  21  24
ENDBRANCH  19  21
ENDBRANCH   7  19
TORSDOF 4
ENDMDL
