MODEL 1
REMARK VINA RESULT:      -8.1      0.000      0.000
REMARK  Name = 
REMARK  6 active torsions:
REMARK  status: ('A' for Active; 'I' for Inactive)
REMARK    1  A    between atoms: C_1  and  C_2
REMARK    2  A    between atoms: C_2  and  C_3
REMARK    3  A    between atoms: C_3  and  C_4
REMARK    4  A    between atoms: C_4  and  N_5
REMARK    5  A    between atoms: C_6  and  C_7
REMARK    6  A    between atoms: C_8  and  C_9
REMARK                            x       y       z     vdW  Elec       q    Type
REMARK                         _______ _______ _______ _____ _____    ______ ____
ROOT
ATOM      1  N   UNL     1       3.226   4.881  19.947  0.00  0.00    +0.000 N 
ATOM      2  C   UNL     1       2.824   6.146  19.532  0.00  0.00    +0.000 A 
ATOM      3  N   UNL     1       3.275   6.720  18.458  0.00  0.00    +0.000 NA
ATOM      4  C   UNL     1       4.196   6.043  17.654  0.00  0.00    +0.000 A 
ATOM      5  C   UNL     1       4.618   6.628  16.459  0.00  0.00    +0.000 A 
ATOM      6  C   UNL     1       5.545   5.981  15.634  0.00  0.00    +0.000 A 
ATOM      7  C   UNL     1       6.058   4.739  16.002  0.00  0.00    +0.000 A 
ATOM      8  C   UNL     1       5.647   4.147  17.194  0.00  0.00    +0.000 A 
ATOM      9  C   UNL     1       4.718   4.806  18.010  0.00  0.00    +0.000 A 
ATOM     10  C   UNL     1       4.248   4.208  19.267  0.00  0.00    +0.000 A 
ATOM     11  O   UNL     1       4.778   3.169  19.656  0.00  0.00    +0.000 OA
ENDROOT
BRANCH   2  12
ATOM     12  C   UNL     1       1.851   6.894  20.389  0.00  0.00    +0.000 C 
ATOM     13  C   UNL     1       1.709   8.226  20.253  0.00  0.00    +0.000 C 
BRANCH  13  14
ATOM     14  C   UNL     1       0.793   9.076  21.046  0.00  0.00    +0.000 A 
ATOM     15  C   UNL     1       0.756   8.954  22.447  0.00  0.00    +0.000 A 
ATOM     16  C   UNL     1      -0.084   9.756  23.228  0.00  0.00    +0.000 A 
ATOM     17  C   UNL     1      -0.899  10.714  22.628  0.00  0.00    +0.000 A 
ATOM     18  C   UNL     1      -0.860  10.872  21.243  0.00  0.00    +0.000 A 
ATOM     19  C   UNL     1      -0.020  10.069  20.458  0.00  0.00    +0.000 A 
ATOM     20 BR   UNL     1      -0.061  10.393  18.582  0.00  0.00    +0.000 Br
ENDBRANCH  13  14
ENDBRANCH   2  12
BRANCH   1  21
ATOM     21  C   UNL     1       2.688   4.185  21.126  0.00  0.00    +0.000 C 
BRANCH  21  22
ATOM     22  C   UNL     1       1.315   3.531  20.918  0.00  0.00    +0.000 C 
BRANCH  22  24
ATOM     23  C   UNL     1       0.910   2.532  18.650  0.00  0.00    +0.000 C 
ATOM     24  C   UNL     1       1.367   2.257  20.075  0.00  0.00    +0.000 C 
ENDBRANCH  22  24
ENDBRANCH  21  22
ENDBRANCH   1  21
TORSDOF 5
ENDMDL
MODEL 2
REMARK VINA RESULT:      -7.6      1.246      1.457
REMARK  Name = 
REMARK  6 active torsions:
REMARK  status: ('A' for Active; 'I' for Inactive)
REMARK    1  A    between atoms: C_1  and  C_2
REMARK    2  A    between atoms: C_2  and  C_3
REMARK    3  A    between atoms: C_3  and  C_4
REMARK    4  A    between atoms: C_4  and  N_5
REMARK    5  A    between atoms: C_6  and  C_7
REMARK    6  A    between atoms: C_8  and  C_9
REMARK                            x       y       z     vdW  Elec       q    Type
REMARK                         _______ _______ _______ _____ _____    ______ ____
ROOT
ATOM      1  N   UNL     1       2.475   4.766  18.478  0.00  0.00    +0.000 N 
ATOM      2  C   UNL     1       2.953   6.014  18.865  0.00  0.00    +0.000 A 
ATOM      3  N   UNL     1       4.071   6.513  18.433  0.00  0.00    +0.000 NA
ATOM      4  C   UNL     1       4.839   5.787  17.520  0.00  0.00    +0.000 A 
ATOM      5  C   UNL     1       6.000   6.361  16.997  0.00  0.00    +0.000 A 
ATOM      6  C   UNL     1       6.797   5.659  16.086  0.00  0.00    +0.000 A 
ATOM      7  C   UNL     1       6.436   4.372  15.691  0.00  0.00    +0.000 A 
ATOM      8  C   UNL     1       5.283   3.788  16.210  0.00  0.00    +0.000 A 
ATOM      9  C   UNL     1       4.493   4.503  17.120  0.00  0.00    +0.000 A 
ATOM     10  C   UNL     1       3.262   3.928  17.678  0.00  0.00    +0.000 A 
ATOM     11  O   UNL     1       2.996   2.754  17.425  0.00  0.00    +0.000 OA
ENDROOT
BRANCH   2  12
ATOM     12  C   UNL     1       2.152   6.800  19.856  0.00  0.00    +0.000 C 
ATOM     13  C   UNL     1       1.823   8.080  19.602  0.00  0.00    +0.000 C 
BRANCH  13  14
ATOM     14  C   UNL     1       1.048   8.962  20.504  0.00  0.00    +0.000 A 
ATOM     15  C   UNL     1       0.569   8.466  21.731  0.00  0.00    +0.000 A 
ATOM     16  C   UNL     1      -0.148   9.279  22.615  0.00  0.00    +0.000 A 
ATOM     17  C   UNL     1      -0.393  10.615  22.303  0.00  0.00    +0.000 A 
ATOM     18  C   UNL     1       0.094  11.136  21.105  0.00  0.00    +0.000 A 
ATOM     19  C   UNL     1       0.814  10.323  20.216  0.00  0.00    +0.000 A 
ATOM     20 BR   UNL     1       1.427  11.162  18.620  0.00  0.00    +0.000 Br
ENDBRANCH  13  14
ENDBRANCH   2  12
BRANCH   1  21
ATOM     21  C   UNL     1       1.186   4.201  18.905  0.00  0.00    +0.000 C 
BRANCH  21  22
ATOM     22  C   UNL     1       1.008   4.079  20.425  0.00  0.00    +0.000 C 
BRANCH  22  24
ATOM     23  C   UNL     1       2.771   2.643  21.493  0.00  0.00    +0.000 C 
ATOM     24  C   UNL     1       1.343   2.690  20.969  0.00  0.00    +0.000 C 
ENDBRANCH  22  24
ENDBRANCH  21  22
ENDBRANCH   1  21
TORSDOF 5
ENDMDL
MODEL 3
REMARK VINA RESULT:      -7.3      1.525      2.127
REMARK  Name = 
REMARK  6 active torsions:
REMARK  status: ('A' for Active; 'I' for Inactive)
REMARK    1  A    between atoms: C_1  and  C_2
REMARK    2  A    between atoms: C_2  and  C_3
REMARK    3  A    between atoms: C_3  and  C_4
REMARK    4  A    between atoms: C_4  and  N_5
REMARK    5  A    between atoms: C_6  and  C_7
REMARK    6  A    between atoms: C_8  and  C_9
REMARK                            x       y       z     vdW  Elec       q    Type
REMARK                         _______ _______ _______ _____ _____    ______ ____
ROOT
ATOM      1  N   UNL     1       3.480   5.304  19.112  0.00  0.00    +0.000 N 
ATOM      2  C   UNL     1       3.092   6.370  18.307  0.00  0.00    +0.000 A 
ATOM      3  N   UNL     1       3.698   6.685  17.202  0.00  0.00    +0.000 NA
ATOM      4  C   UNL     1       4.784   5.918  16.773  0.00  0.00    +0.000 A 
ATOM      5  C   UNL     1       5.382   6.210  15.546  0.00  0.00    +0.000 A 
ATOM      6  C   UNL     1       6.476   5.467  15.089  0.00  0.00    +0.000 A 
ATOM      7  C   UNL     1       6.982   4.422  15.861  0.00  0.00    +0.000 A 
ATOM      8  C   UNL     1       6.395   4.125  17.089  0.00  0.00    +0.000 A 
ATOM      9  C   UNL     1       5.299   4.876  17.534  0.00  0.00    +0.000 A 
ATOM     10  C   UNL     1       4.643   4.584  18.815  0.00  0.00    +0.000 A 
ATOM     11  O   UNL     1       5.150   3.742  19.554  0.00  0.00    +0.000 OA
ENDROOT
BRANCH   2  12
ATOM     12  C   UNL     1       1.941   7.213  18.759  0.00  0.00    +0.000 C 
ATOM     13  C   UNL     1       1.975   8.550  18.603  0.00  0.00    +0.000 C 
BRANCH  13  14
ATOM     14  C   UNL     1       0.908   9.489  19.017  0.00  0.00    +0.000 A 
ATOM     15  C   UNL     1       0.165  10.183  18.045  0.00  0.00    +0.000 A 
ATOM     16  C   UNL     1      -0.863  11.062  18.403  0.00  0.00    +0.000 A 
ATOM     17  C   UNL     1      -1.186  11.260  19.744  0.00  0.00    +0.000 A 
ATOM     18  C   UNL     1      -0.481  10.564  20.724  0.00  0.00    +0.000 A 
ATOM     19  C   UNL     1       0.551   9.682  20.369  0.00  0.00    +0.000 A 
ATOM     20 BR   UNL     1       1.428   8.792  21.806  0.00  0.00    +0.000 Br
ENDBRANCH  13  14
ENDBRANCH   2  12
BRANCH   1  21
ATOM     21  C   UNL     1       2.776   4.890  20.337  0.00  0.00    +0.000 C 
BRANCH  21  22
ATOM     22  C   UNL     1       1.408   4.234  20.103  0.00  0.00    +0.000 C 
BRANCH  22  24
ATOM     23  C   UNL     1       2.438   2.610  21.719  0.00  0.00    +0.000 C 
ATOM     24  C   UNL     1       1.177   2.985  20.953  0.00  0.00    +0.000 C 
ENDBRANCH  22  24
ENDBRANCH  21  22
ENDBRANCH   1  21
TORSDOF 5
ENDMDL
MODEL 4
REMARK VINA RESULT:      -7.3      2.252      4.449
REMARK  Name = 
REMARK  6 active torsions:
REMARK  status: ('A' for Active; 'I' for Inactive)
REMARK    1  A    between atoms: C_1  and  C_2
REMARK    2  A    between atoms: C_2  and  C_3
REMARK    3  A    between atoms: C_3  and  C_4
REMARK    4  A    between atoms: C_4  and  N_5
REMARK    5  A    between atoms: C_6  and  C_7
REMARK    6  A    between atoms: C_8  and  C_9
REMARK                            x       y       z     vdW  Elec       q    Type
REMARK                         _______ _______ _______ _____ _____    ______ ____
ROOT
ATOM      1  N   UNL     1       3.955   6.012  17.229  0.00  0.00    +0.000 N 
ATOM      2  C   UNL     1       2.962   6.594  18.010  0.00  0.00    +0.000 A 
ATOM      3  N   UNL     1       2.092   5.905  18.685  0.00  0.00    +0.000 NA
ATOM      4  C   UNL     1       2.149   4.510  18.654  0.00  0.00    +0.000 A 
ATOM      5  C   UNL     1       1.264   3.773  19.444  0.00  0.00    +0.000 A 
ATOM      6  C   UNL     1       1.289   2.375  19.432  0.00  0.00    +0.000 A 
ATOM      7  C   UNL     1       2.203   1.700  18.624  0.00  0.00    +0.000 A 
ATOM      8  C   UNL     1       3.088   2.425  17.829  0.00  0.00    +0.000 A 
ATOM      9  C   UNL     1       3.054   3.825  17.853  0.00  0.00    +0.000 A 
ATOM     10  C   UNL     1       3.981   4.625  17.040  0.00  0.00    +0.000 A 
ATOM     11  O   UNL     1       4.712   4.042  16.242  0.00  0.00    +0.000 OA
ENDROOT
BRANCH   2  12
ATOM     12  C   UNL     1       2.875   8.088  18.043  0.00  0.00    +0.000 C 
ATOM     13  C   UNL     1       1.858   8.696  18.682  0.00  0.00    +0.000 C 
BRANCH  13  14
ATOM     14  C   UNL     1       1.656  10.159  18.775  0.00  0.00    +0.000 A 
ATOM     15  C   UNL     1       2.359  11.022  17.914  0.00  0.00    +0.000 A 
ATOM     16  C   UNL     1       2.175  12.409  17.962  0.00  0.00    +0.000 A 
ATOM     17  C   UNL     1       1.271  12.968  18.862  0.00  0.00    +0.000 A 
ATOM     18  C   UNL     1       0.543  12.132  19.707  0.00  0.00    +0.000 A 
ATOM     19  C   UNL     1       0.726  10.742  19.662  0.00  0.00    +0.000 A 
ATOM     20 BR   UNL     1      -0.336   9.716  20.866  0.00  0.00    +0.000 Br
ENDBRANCH  13  14
ENDBRANCH   2  12
BRANCH   1  21
ATOM     21  C   UNL     1       4.988   6.766  16.501  0.00  0.00    +0.000 C 
BRANCH  21  22
ATOM     22  C   UNL     1       6.234   7.115  17.327  0.00  0.00    +0.000 C 
BRANCH  22  24
ATOM     23  C   UNL     1       7.526   5.120  18.139  0.00  0.00    +0.000 C 
ATOM     24  C   UNL     1       7.421   6.189  17.061  0.00  0.00    +0.000 C 
ENDBRANCH  22  24
ENDBRANCH  21  22
ENDBRANCH   1  21
TORSDOF 5
ENDMDL
MODEL 5
REMARK VINA RESULT:      -7.2      1.387      1.731
REMARK  Name = 
REMARK  6 active torsions:
REMARK  status: ('A' for Active; 'I' for Inactive)
REMARK    1  A    between atoms: C_1  and  C_2
REMARK    2  A    between atoms: C_2  and  C_3
REMARK    3  A    between atoms: C_3  and  C_4
REMARK    4  A    between atoms: C_4  and  N_5
REMARK    5  A    between atoms: C_6  and  C_7
REMARK    6  A    between atoms: C_8  and  C_9
REMARK                            x       y       z     vdW  Elec       q    Type
REMARK                         _______ _______ _______ _____ _____    ______ ____
ROOT
ATOM      1  N   UNL     1       2.975   5.755  19.486  0.00  0.00    +0.000 N 
ATOM      2  C   UNL     1       2.847   6.995  18.869  0.00  0.00    +0.000 A 
ATOM      3  N   UNL     1       3.448   7.303  17.759  0.00  0.00    +0.000 NA
ATOM      4  C   UNL     1       4.254   6.352  17.129  0.00  0.00    +0.000 A 
ATOM      5  C   UNL     1       4.834   6.659  15.896  0.00  0.00    +0.000 A 
ATOM      6  C   UNL     1       5.651   5.732  15.240  0.00  0.00    +0.000 A 
ATOM      7  C   UNL     1       5.895   4.486  15.816  0.00  0.00    +0.000 A 
ATOM      8  C   UNL     1       5.325   4.171  17.047  0.00  0.00    +0.000 A 
ATOM      9  C   UNL     1       4.507   5.108  17.692  0.00  0.00    +0.000 A 
ATOM     10  C   UNL     1       3.875   4.808  18.984  0.00  0.00    +0.000 A 
ATOM     11  O   UNL     1       4.174   3.759  19.553  0.00  0.00    +0.000 OA
ENDROOT
BRANCH   2  12
ATOM     12  C   UNL     1       2.002   8.034  19.538  0.00  0.00    +0.000 C 
ATOM     13  C   UNL     1       1.578   9.111  18.852  0.00  0.00    +0.000 C 
BRANCH  13  14
ATOM     14  C   UNL     1       0.751  10.208  19.403  0.00  0.00    +0.000 A 
ATOM     15  C   UNL     1      -0.323   9.915  20.264  0.00  0.00    +0.000 A 
ATOM     16  C   UNL     1      -1.111  10.930  20.818  0.00  0.00    +0.000 A 
ATOM     17  C   UNL     1      -0.836  12.267  20.538  0.00  0.00    +0.000 A 
ATOM     18  C   UNL     1       0.239  12.584  19.709  0.00  0.00    +0.000 A 
ATOM     19  C   UNL     1       1.030  11.569  19.152  0.00  0.00    +0.000 A 
ATOM     20 BR   UNL     1       2.470  12.140  18.043  0.00  0.00    +0.000 Br
ENDBRANCH  13  14
ENDBRANCH   2  12
BRANCH   1  21
ATOM     21  C   UNL     1       2.260   5.360  20.710  0.00  0.00    +0.000 C 
BRANCH  21  22
ATOM     22  C   UNL     1       0.949   4.597  20.472  0.00  0.00    +0.000 C 
BRANCH  22  24
ATOM     23  C   UNL     1       1.522   2.522  21.767  0.00  0.00    +0.000 C 
ATOM     24  C   UNL     1       1.130   3.080  20.406  0.00  0.00    +0.000 C 
ENDBRANCH  22  24
ENDBRANCH  21  22
ENDBRANCH   1  21
TORSDOF 5
ENDMDL
MODEL 6
REMARK VINA RESULT:      -7.2      0.884      1.021
REMARK  Name = 
REMARK  6 active torsions:
REMARK  status: ('A' for Active; 'I' for Inactive)
REMARK    1  A    between atoms: C_1  and  C_2
REMARK    2  A    between atoms: C_2  and  C_3
REMARK    3  A    between atoms: C_3  and  C_4
REMARK    4  A    between atoms: C_4  and  N_5
REMARK    5  A    between atoms: C_6  and  C_7
REMARK    6  A    between atoms: C_8  and  C_9
REMARK                            x       y       z     vdW  Elec       q    Type
REMARK                         _______ _______ _______ _____ _____    ______ ____
ROOT
ATOM      1  N   UNL     1       2.949   5.570  19.530  0.00  0.00    +0.000 N 
ATOM      2  C   UNL     1       2.656   6.767  18.886  0.00  0.00    +0.000 A 
ATOM      3  N   UNL     1       3.277   7.172  17.819  0.00  0.00    +0.000 NA
ATOM      4  C   UNL     1       4.280   6.373  17.265  0.00  0.00    +0.000 A 
ATOM      5  C   UNL     1       4.891   6.773  16.074  0.00  0.00    +0.000 A 
ATOM      6  C   UNL     1       5.903   6.000  15.496  0.00  0.00    +0.000 A 
ATOM      7  C   UNL     1       6.315   4.817  16.108  0.00  0.00    +0.000 A 
ATOM      8  C   UNL     1       5.716   4.411  17.298  0.00  0.00    +0.000 A 
ATOM      9  C   UNL     1       4.702   5.194  17.866  0.00  0.00    +0.000 A 
ATOM     10  C   UNL     1       4.035   4.791  19.111  0.00  0.00    +0.000 A 
ATOM     11  O   UNL     1       4.467   3.813  19.718  0.00  0.00    +0.000 OA
ENDROOT
BRANCH   2  12
ATOM     12  C   UNL     1       1.596   7.645  19.474  0.00  0.00    +0.000 C 
ATOM     13  C   UNL     1       1.886   8.469  20.497  0.00  0.00    +0.000 C 
BRANCH  13  14
ATOM     14  C   UNL     1       0.925   9.374  21.169  0.00  0.00    +0.000 A 
ATOM     15  C   UNL     1       0.419   9.043  22.439  0.00  0.00    +0.000 A 
ATOM     16  C   UNL     1      -0.474   9.885  23.111  0.00  0.00    +0.000 A 
ATOM     17  C   UNL     1      -0.873  11.090  22.535  0.00  0.00    +0.000 A 
ATOM     18  C   UNL     1      -0.365  11.452  21.289  0.00  0.00    +0.000 A 
ATOM     19  C   UNL     1       0.531  10.609  20.613  0.00  0.00    +0.000 A 
ATOM     20 BR   UNL     1       1.153  11.227  18.922  0.00  0.00    +0.000 Br
ENDBRANCH  13  14
ENDBRANCH   2  12
BRANCH   1  21
ATOM     21  C   UNL     1       2.222   5.059  20.704  0.00  0.00    +0.000 C 
BRANCH  21  22
ATOM     22  C   UNL     1       1.056   4.116  20.379  0.00  0.00    +0.000 C 
BRANCH  22  24
ATOM     23  C   UNL     1       2.472   2.513  21.696  0.00  0.00    +0.000 C 
ATOM     24  C   UNL     1       1.068   2.826  21.199  0.00  0.00    +0.000 C 
ENDBRANCH  22  24
ENDBRANCH  21  22
ENDBRANCH   1  21
TORSDOF 5
ENDMDL
MODEL 7
REMARK VINA RESULT:      -7.2      3.842      7.795
REMARK  Name = 
REMARK  6 active torsions:
REMARK  status: ('A' for Active; 'I' for Inactive)
REMARK    1  A    between atoms: C_1  and  C_2
REMARK    2  A    between atoms: C_2  and  C_3
REMARK    3  A    between atoms: C_3  and  C_4
REMARK    4  A    between atoms: C_4  and  N_5
REMARK    5  A    between atoms: C_6  and  C_7
REMARK    6  A    between atoms: C_8  and  C_9
REMARK                            x       y       z     vdW  Elec       q    Type
REMARK                         _______ _______ _______ _____ _____    ______ ____
ROOT
ATOM      1  N   UNL     1      -0.012  10.648  19.385  0.00  0.00    +0.000 N 
ATOM      2  C   UNL     1       0.317   9.817  18.320  0.00  0.00    +0.000 A 
ATOM      3  N   UNL     1      -0.483   9.587  17.323  0.00  0.00    +0.000 NA
ATOM      4  C   UNL     1      -1.734  10.209  17.290  0.00  0.00    +0.000 A 
ATOM      5  C   UNL     1      -2.559  10.023  16.178  0.00  0.00    +0.000 A 
ATOM      6  C   UNL     1      -3.820  10.626  16.116  0.00  0.00    +0.000 A 
ATOM      7  C   UNL     1      -4.267  11.421  17.170  0.00  0.00    +0.000 A 
ATOM      8  C   UNL     1      -3.454  11.610  18.285  0.00  0.00    +0.000 A 
ATOM      9  C   UNL     1      -2.192  11.002  18.334  0.00  0.00    +0.000 A 
ATOM     10  C   UNL     1      -1.300  11.189  19.486  0.00  0.00    +0.000 A 
ATOM     11  O   UNL     1      -1.728  11.793  20.467  0.00  0.00    +0.000 OA
ENDROOT
BRANCH   2  12
ATOM     12  C   UNL     1       1.646   9.128  18.345  0.00  0.00    +0.000 C 
ATOM     13  C   UNL     1       1.719   7.788  18.248  0.00  0.00    +0.000 C 
BRANCH  13  14
ATOM     14  C   UNL     1       2.968   6.993  18.273  0.00  0.00    +0.000 A 
ATOM     15  C   UNL     1       4.007   7.288  17.371  0.00  0.00    +0.000 A 
ATOM     16  C   UNL     1       5.208   6.569  17.381  0.00  0.00    +0.000 A 
ATOM     17  C   UNL     1       5.407   5.546  18.306  0.00  0.00    +0.000 A 
ATOM     18  C   UNL     1       4.403   5.253  19.227  0.00  0.00    +0.000 A 
ATOM     19  C   UNL     1       3.198   5.971  19.218  0.00  0.00    +0.000 A 
ATOM     20 BR   UNL     1       1.914   5.473  20.534  0.00  0.00    +0.000 Br
ENDBRANCH  13  14
ENDBRANCH   2  12
BRANCH   1  21
ATOM     21  C   UNL     1       0.896  10.971  20.497  0.00  0.00    +0.000 C 
BRANCH  21  22
ATOM     22  C   UNL     1       1.171   9.810  21.463  0.00  0.00    +0.000 C 
BRANCH  22  24
ATOM     23  C   UNL     1      -0.655   9.805  23.188  0.00  0.00    +0.000 C 
ATOM     24  C   UNL     1      -0.097   9.111  21.953  0.00  0.00    +0.000 C 
ENDBRANCH  22  24
ENDBRANCH  21  22
ENDBRANCH   1  21
TORSDOF 5
ENDMDL
MODEL 8
REMARK VINA RESULT:      -7.2      3.809      6.160
REMARK  Name = 
REMARK  6 active torsions:
REMARK  status: ('A' for Active; 'I' for Inactive)
REMARK    1  A    between atoms: C_1  and  C_2
REMARK    2  A    between atoms: C_2  and  C_3
REMARK    3  A    between atoms: C_3  and  C_4
REMARK    4  A    between atoms: C_4  and  N_5
REMARK    5  A    between atoms: C_6  and  C_7
REMARK    6  A    between atoms: C_8  and  C_9
REMARK                            x       y       z     vdW  Elec       q    Type
REMARK                         _______ _______ _______ _____ _____    ______ ____
ROOT
ATOM      1  N   UNL     1       6.687   4.774  16.264  0.00  0.00    +0.000 N 
ATOM      2  C   UNL     1       5.546   3.988  16.146  0.00  0.00    +0.000 A 
ATOM      3  N   UNL     1       5.116   3.523  15.012  0.00  0.00    +0.000 NA
ATOM      4  C   UNL     1       5.831   3.798  13.843  0.00  0.00    +0.000 A 
ATOM      5  C   UNL     1       5.411   3.231  12.638  0.00  0.00    +0.000 A 
ATOM      6  C   UNL     1       6.099   3.491  11.447  0.00  0.00    +0.000 A 
ATOM      7  C   UNL     1       7.215   4.326  11.454  0.00  0.00    +0.000 A 
ATOM      8  C   UNL     1       7.640   4.900  12.650  0.00  0.00    +0.000 A 
ATOM      9  C   UNL     1       6.943   4.630  13.835  0.00  0.00    +0.000 A 
ATOM     10  C   UNL     1       7.368   5.204  15.118  0.00  0.00    +0.000 A 
ATOM     11  O   UNL     1       8.280   6.029  15.117  0.00  0.00    +0.000 OA
ENDROOT
BRANCH   2  12
ATOM     12  C   UNL     1       4.758   3.696  17.384  0.00  0.00    +0.000 C 
ATOM     13  C   UNL     1       3.478   4.099  17.487  0.00  0.00    +0.000 C 
BRANCH  13  14
ATOM     14  C   UNL     1       2.602   3.882  18.660  0.00  0.00    +0.000 A 
ATOM     15  C   UNL     1       2.232   2.575  19.030  0.00  0.00    +0.000 A 
ATOM     16  C   UNL     1       1.423   2.334  20.145  0.00  0.00    +0.000 A 
ATOM     17  C   UNL     1       0.973   3.393  20.931  0.00  0.00    +0.000 A 
ATOM     18  C   UNL     1       1.348   4.695  20.600  0.00  0.00    +0.000 A 
ATOM     19  C   UNL     1       2.159   4.940  19.482  0.00  0.00    +0.000 A 
ATOM     20 BR   UNL     1       2.600   6.762  19.148  0.00  0.00    +0.000 Br
ENDBRANCH  13  14
ENDBRANCH   2  12
BRANCH   1  21
ATOM     21  C   UNL     1       7.229   5.265  17.541  0.00  0.00    +0.000 C 
BRANCH  21  22
ATOM     22  C   UNL     1       6.916   6.735  17.851  0.00  0.00    +0.000 C 
BRANCH  22  24
ATOM     23  C   UNL     1       8.078   8.962  17.855  0.00  0.00    +0.000 C 
ATOM     24  C   UNL     1       8.125   7.524  18.352  0.00  0.00    +0.000 C 
ENDBRANCH  22  24
ENDBRANCH  21  22
ENDBRANCH   1  21
TORSDOF 5
ENDMDL
MODEL 9
REMARK VINA RESULT:      -7.2      4.484      6.548
REMARK  Name = 
REMARK  6 active torsions:
REMARK  status: ('A' for Active; 'I' for Inactive)
REMARK    1  A    between atoms: C_1  and  C_2
REMARK    2  A    between atoms: C_2  and  C_3
REMARK    3  A    between atoms: C_3  and  C_4
REMARK    4  A    between atoms: C_4  and  N_5
REMARK    5  A    between atoms: C_6  and  C_7
REMARK    6  A    between atoms: C_8  and  C_9
REMARK                            x       y       z     vdW  Elec       q    Type
REMARK                         _______ _______ _______ _____ _____    ______ ____
ROOT
ATOM      1  N   UNL     1       6.492   5.058  16.114  0.00  0.00    +0.000 N 
ATOM      2  C   UNL     1       5.217   4.504  16.124  0.00  0.00    +0.000 A 
ATOM      3  N   UNL     1       4.671   3.955  15.081  0.00  0.00    +0.000 NA
ATOM      4  C   UNL     1       5.390   3.891  13.885  0.00  0.00    +0.000 A 
ATOM      5  C   UNL     1       4.833   3.229  12.789  0.00  0.00    +0.000 A 
ATOM      6  C   UNL     1       5.522   3.152  11.574  0.00  0.00    +0.000 A 
ATOM      7  C   UNL     1       6.780   3.740  11.447  0.00  0.00    +0.000 A 
ATOM      8  C   UNL     1       7.344   4.406  12.532  0.00  0.00    +0.000 A 
ATOM      9  C   UNL     1       6.643   4.474  13.744  0.00  0.00    +0.000 A 
ATOM     10  C   UNL     1       7.210   5.154  14.916  0.00  0.00    +0.000 A 
ATOM     11  O   UNL     1       8.265   5.772  14.781  0.00  0.00    +0.000 OA
ENDROOT
BRANCH   2  12
ATOM     12  C   UNL     1       4.424   4.579  17.392  0.00  0.00    +0.000 C 
ATOM     13  C   UNL     1       3.743   3.505  17.831  0.00  0.00    +0.000 C 
BRANCH  13  14
ATOM     14  C   UNL     1       2.916   3.457  19.059  0.00  0.00    +0.000 A 
ATOM     15  C   UNL     1       1.671   4.111  19.094  0.00  0.00    +0.000 A 
ATOM     16  C   UNL     1       0.856   4.069  20.231  0.00  0.00    +0.000 A 
ATOM     17  C   UNL     1       1.259   3.356  21.359  0.00  0.00    +0.000 A 
ATOM     18  C   UNL     1       2.476   2.678  21.338  0.00  0.00    +0.000 A 
ATOM     19  C   UNL     1       3.295   2.719  20.200  0.00  0.00    +0.000 A 
ATOM     20 BR   UNL     1       4.928   1.744  20.305  0.00  0.00    +0.000 Br
ENDBRANCH  13  14
ENDBRANCH   2  12
BRANCH   1  21
ATOM     21  C   UNL     1       7.157   5.634  17.295  0.00  0.00    +0.000 C 
BRANCH  21  22
ATOM     22  C   UNL     1       7.057   7.161  17.409  0.00  0.00    +0.000 C 
BRANCH  22  24
ATOM     23  C   UNL     1       8.286   9.268  18.007  0.00  0.00    +0.000 C 
ATOM     24  C   UNL     1       8.144   7.779  18.289  0.00  0.00    +0.000 C 
ENDBRANCH  22  24
ENDBRANCH  21  22
ENDBRANCH   1  21
TORSDOF 5
ENDMDL
