MODEL 1
REMARK VINA RESULT:      -6.9      0.000      0.000
REMARK  Name = 
REMARK  7 active torsions:
REMARK  status: ('A' for Active; 'I' for Inactive)
REMARK    1  A    between atoms: C_1  and  C_2
REMARK    2  A    between atoms: C_2  and  C_3
REMARK    3  A    between atoms: C_5  and  N_6
REMARK    4  A    between atoms: C_5  and  C_16
REMARK    5  A    between atoms: N_6  and  C_7
REMARK    6  A    between atoms: C_7  and  N_9
REMARK    7  A    between atoms: N_9  and  C_10
REMARK                            x       y       z     vdW  Elec       q    Type
REMARK                         _______ _______ _______ _____ _____    ______ ____
ROOT
ATOM      1  C   UNL     1       5.385   6.866  14.559  0.00  0.00    +0.000 C 
ATOM      2  C   UNL     1       5.533   5.742  15.603  0.00  0.00    +0.000 C 
ATOM      3  C   UNL     1       5.298   4.422  14.863  0.00  0.00    +0.000 C 
ATOM      4  C   UNL     1       4.536   6.017  16.750  0.00  0.00    +0.000 C 
ATOM      5  C   UNL     1       4.826   5.374  18.142  0.00  0.00    +0.000 C 
ATOM      6  C   UNL     1       6.362   5.494  18.389  0.00  0.00    +0.000 C 
ATOM      7  C   UNL     1       7.199   5.062  17.197  0.00  0.00    +0.000 C 
ATOM      8  O   UNL     1       6.885   5.838  16.051  0.00  0.00    +0.000 OA
ENDROOT
BRANCH   5   9
ATOM      9  C   UNL     1       4.393   3.911  18.361  0.00  0.00    +0.000 A 
ATOM     10  C   UNL     1       3.498   3.240  17.512  0.00  0.00    +0.000 A 
ATOM     11  C   UNL     1       3.143   1.906  17.724  0.00  0.00    +0.000 A 
ATOM     12  C   UNL     1       3.650   1.206  18.811  0.00  0.00    +0.000 A 
ATOM     13  C   UNL     1       4.502   1.858  19.701  0.00  0.00    +0.000 A 
ATOM     14  C   UNL     1       4.854   3.191  19.482  0.00  0.00    +0.000 A 
ENDBRANCH   5   9
BRANCH   5  15
ATOM     15  N   UNL     1       4.153   6.259  19.164  0.00  0.00    +0.000 N 
ATOM     16  H   UNL     1       4.718   6.522  19.962  0.00  0.00    +0.000 HD
BRANCH  15  17
ATOM     17  C   UNL     1       2.901   6.853  19.151  0.00  0.00    +0.000 C 
ATOM     18  S   UNL     1       2.386   8.064  18.119  0.00  0.00    +0.000 S 
BRANCH  17  19
ATOM     19  N   UNL     1       2.156   6.379  20.231  0.00  0.00    +0.000 N 
ATOM     20  H   UNL     1       1.489   7.057  20.578  0.00  0.00    +0.000 HD
BRANCH  19  21
ATOM     21  C   UNL     1       1.872   5.031  20.533  0.00  0.00    +0.000 A 
ATOM     22  C   UNL     1       2.420   4.413  21.660  0.00  0.00    +0.000 A 
ATOM     23  C   UNL     1       2.067   3.104  21.990  0.00  0.00    +0.000 A 
ATOM     24  C   UNL     1       1.168   2.399  21.192  0.00  0.00    +0.000 A 
ATOM     25  C   UNL     1       0.617   3.008  20.065  0.00  0.00    +0.000 A 
ATOM     26  C   UNL     1       0.955   4.326  19.744  0.00  0.00    +0.000 A 
ENDBRANCH  19  21
ENDBRANCH  17  19
ENDBRANCH  15  17
ENDBRANCH   5  15
TORSDOF 5
ENDMDL
MODEL 2
REMARK VINA RESULT:      -6.9      2.484      6.350
REMARK  Name = 
REMARK  7 active torsions:
REMARK  status: ('A' for Active; 'I' for Inactive)
REMARK    1  A    between atoms: C_1  and  C_2
REMARK    2  A    between atoms: C_2  and  C_3
REMARK    3  A    between atoms: C_5  and  N_6
REMARK    4  A    between atoms: C_5  and  C_16
REMARK    5  A    between atoms: N_6  and  C_7
REMARK    6  A    between atoms: C_7  and  N_9
REMARK    7  A    between atoms: N_9  and  C_10
REMARK                            x       y       z     vdW  Elec       q    Type
REMARK                         _______ _______ _______ _____ _____    ______ ____
ROOT
ATOM      1  C   UNL     1       2.762   1.981  17.465  0.00  0.00    +0.000 C 
ATOM      2  C   UNL     1       2.864   3.331  18.200  0.00  0.00    +0.000 C 
ATOM      3  C   UNL     1       1.456   3.667  18.700  0.00  0.00    +0.000 C 
ATOM      4  C   UNL     1       3.457   4.368  17.220  0.00  0.00    +0.000 C 
ATOM      5  C   UNL     1       4.149   5.631  17.820  0.00  0.00    +0.000 C 
ATOM      6  C   UNL     1       4.974   5.156  19.057  0.00  0.00    +0.000 C 
ATOM      7  C   UNL     1       4.193   4.240  19.985  0.00  0.00    +0.000 C 
ATOM      8  O   UNL     1       3.745   3.084  19.295  0.00  0.00    +0.000 OA
ENDROOT
BRANCH   5   9
ATOM      9  C   UNL     1       3.250   6.811  18.238  0.00  0.00    +0.000 A 
ATOM     10  C   UNL     1       3.007   7.921  17.413  0.00  0.00    +0.000 A 
ATOM     11  C   UNL     1       2.168   8.965  17.812  0.00  0.00    +0.000 A 
ATOM     12  C   UNL     1       1.566   8.947  19.062  0.00  0.00    +0.000 A 
ATOM     13  C   UNL     1       1.825   7.883  19.925  0.00  0.00    +0.000 A 
ATOM     14  C   UNL     1       2.663   6.842  19.520  0.00  0.00    +0.000 A 
ENDBRANCH   5   9
BRANCH   5  15
ATOM     15  N   UNL     1       5.147   6.097  16.788  0.00  0.00    +0.000 N 
ATOM     16  H   UNL     1       4.757   6.453  15.924  0.00  0.00    +0.000 HD
BRANCH  15  17
ATOM     17  C   UNL     1       6.527   6.205  16.859  0.00  0.00    +0.000 C 
ATOM     18  S   UNL     1       7.392   7.477  17.514  0.00  0.00    +0.000 S 
BRANCH  17  19
ATOM     19  N   UNL     1       7.107   5.137  16.175  0.00  0.00    +0.000 N 
ATOM     20  H   UNL     1       7.322   4.352  16.778  0.00  0.00    +0.000 HD
BRANCH  19  21
ATOM     21  C   UNL     1       6.963   4.834  14.806  0.00  0.00    +0.000 A 
ATOM     22  C   UNL     1       7.783   5.430  13.844  0.00  0.00    +0.000 A 
ATOM     23  C   UNL     1       7.683   5.062  12.501  0.00  0.00    +0.000 A 
ATOM     24  C   UNL     1       6.756   4.098  12.108  0.00  0.00    +0.000 A 
ATOM     25  C   UNL     1       5.932   3.499  13.061  0.00  0.00    +0.000 A 
ATOM     26  C   UNL     1       6.046   3.853  14.409  0.00  0.00    +0.000 A 
ENDBRANCH  19  21
ENDBRANCH  17  19
ENDBRANCH  15  17
ENDBRANCH   5  15
TORSDOF 5
ENDMDL
MODEL 3
REMARK VINA RESULT:      -6.7      0.198      1.401
REMARK  Name = 
REMARK  7 active torsions:
REMARK  status: ('A' for Active; 'I' for Inactive)
REMARK    1  A    between atoms: C_1  and  C_2
REMARK    2  A    between atoms: C_2  and  C_3
REMARK    3  A    between atoms: C_5  and  N_6
REMARK    4  A    between atoms: C_5  and  C_16
REMARK    5  A    between atoms: N_6  and  C_7
REMARK    6  A    between atoms: C_7  and  N_9
REMARK    7  A    between atoms: N_9  and  C_10
REMARK                            x       y       z     vdW  Elec       q    Type
REMARK                         _______ _______ _______ _____ _____    ______ ____
ROOT
ATOM      1  C   UNL     1       5.709   6.738  14.700  0.00  0.00    +0.000 C 
ATOM      2  C   UNL     1       5.787   5.633  15.772  0.00  0.00    +0.000 C 
ATOM      3  C   UNL     1       5.578   4.301  15.046  0.00  0.00    +0.000 C 
ATOM      4  C   UNL     1       4.732   5.941  16.856  0.00  0.00    +0.000 C 
ATOM      5  C   UNL     1       4.936   5.324  18.274  0.00  0.00    +0.000 C 
ATOM      6  C   UNL     1       6.458   5.432  18.604  0.00  0.00    +0.000 C 
ATOM      7  C   UNL     1       7.354   4.967  17.468  0.00  0.00    +0.000 C 
ATOM      8  O   UNL     1       7.113   5.723  16.292  0.00  0.00    +0.000 OA
ENDROOT
BRANCH   5   9
ATOM      9  C   UNL     1       4.475   3.870  18.498  0.00  0.00    +0.000 A 
ATOM     10  C   UNL     1       4.953   3.065  19.545  0.00  0.00    +0.000 A 
ATOM     11  C   UNL     1       4.498   1.758  19.734  0.00  0.00    +0.000 A 
ATOM     12  C   UNL     1       3.570   1.201  18.864  0.00  0.00    +0.000 A 
ATOM     13  C   UNL     1       3.113   1.957  17.785  0.00  0.00    +0.000 A 
ATOM     14  C   UNL     1       3.571   3.263  17.603  0.00  0.00    +0.000 A 
ENDBRANCH   5   9
BRANCH   5  15
ATOM     15  N   UNL     1       4.219   6.235  19.241  0.00  0.00    +0.000 N 
ATOM     16  H   UNL     1       4.763   6.560  20.030  0.00  0.00    +0.000 HD
BRANCH  15  17
ATOM     17  C   UNL     1       2.947   6.783  19.181  0.00  0.00    +0.000 C 
ATOM     18  S   UNL     1       2.392   7.887  18.056  0.00  0.00    +0.000 S 
BRANCH  17  19
ATOM     19  N   UNL     1       2.217   6.371  20.297  0.00  0.00    +0.000 N 
ATOM     20  H   UNL     1       1.632   7.105  20.678  0.00  0.00    +0.000 HD
BRANCH  19  21
ATOM     21  C   UNL     1       1.829   5.053  20.612  0.00  0.00    +0.000 A 
ATOM     22  C   UNL     1       0.897   4.369  19.829  0.00  0.00    +0.000 A 
ATOM     23  C   UNL     1       0.581   3.037  20.106  0.00  0.00    +0.000 A 
ATOM     24  C   UNL     1       1.190   2.382  21.174  0.00  0.00    +0.000 A 
ATOM     25  C   UNL     1       2.121   3.058  21.963  0.00  0.00    +0.000 A 
ATOM     26  C   UNL     1       2.452   4.386  21.674  0.00  0.00    +0.000 A 
ENDBRANCH  19  21
ENDBRANCH  17  19
ENDBRANCH  15  17
ENDBRANCH   5  15
TORSDOF 5
ENDMDL
MODEL 4
REMARK VINA RESULT:      -6.7      2.505      6.465
REMARK  Name = 
REMARK  7 active torsions:
REMARK  status: ('A' for Active; 'I' for Inactive)
REMARK    1  A    between atoms: C_1  and  C_2
REMARK    2  A    between atoms: C_2  and  C_3
REMARK    3  A    between atoms: C_5  and  N_6
REMARK    4  A    between atoms: C_5  and  C_16
REMARK    5  A    between atoms: N_6  and  C_7
REMARK    6  A    between atoms: C_7  and  N_9
REMARK    7  A    between atoms: N_9  and  C_10
REMARK                            x       y       z     vdW  Elec       q    Type
REMARK                         _______ _______ _______ _____ _____    ______ ____
ROOT
ATOM      1  C   UNL     1       2.554   2.127  17.658  0.00  0.00    +0.000 C 
ATOM      2  C   UNL     1       2.638   3.483  18.384  0.00  0.00    +0.000 C 
ATOM      3  C   UNL     1       1.219   3.820  18.852  0.00  0.00    +0.000 C 
ATOM      4  C   UNL     1       3.249   4.513  17.409  0.00  0.00    +0.000 C 
ATOM      5  C   UNL     1       3.926   5.782  18.013  0.00  0.00    +0.000 C 
ATOM      6  C   UNL     1       4.725   5.319  19.271  0.00  0.00    +0.000 C 
ATOM      7  C   UNL     1       3.927   4.409  20.189  0.00  0.00    +0.000 C 
ATOM      8  O   UNL     1       3.496   3.246  19.499  0.00  0.00    +0.000 OA
ENDROOT
BRANCH   5   9
ATOM      9  C   UNL     1       3.016   6.964  18.402  0.00  0.00    +0.000 A 
ATOM     10  C   UNL     1       2.406   7.081  19.662  0.00  0.00    +0.000 A 
ATOM     11  C   UNL     1       1.605   8.176  19.993  0.00  0.00    +0.000 A 
ATOM     12  C   UNL     1       1.362   9.179  19.063  0.00  0.00    +0.000 A 
ATOM     13  C   UNL     1       1.912   9.068  17.787  0.00  0.00    +0.000 A 
ATOM     14  C   UNL     1       2.714   7.972  17.463  0.00  0.00    +0.000 A 
ENDBRANCH   5   9
BRANCH   5  15
ATOM     15  N   UNL     1       4.945   6.243  16.998  0.00  0.00    +0.000 N 
ATOM     16  H   UNL     1       4.592   6.825  16.249  0.00  0.00    +0.000 HD
BRANCH  15  17
ATOM     17  C   UNL     1       6.320   6.073  16.968  0.00  0.00    +0.000 C 
ATOM     18  S   UNL     1       7.470   7.190  17.441  0.00  0.00    +0.000 S 
BRANCH  17  19
ATOM     19  N   UNL     1       6.619   4.858  16.350  0.00  0.00    +0.000 N 
ATOM     20  H   UNL     1       6.354   4.056  16.909  0.00  0.00    +0.000 HD
BRANCH  19  21
ATOM     21  C   UNL     1       6.746   4.624  14.966  0.00  0.00    +0.000 A 
ATOM     22  C   UNL     1       5.914   3.714  14.309  0.00  0.00    +0.000 A 
ATOM     23  C   UNL     1       5.998   3.551  12.925  0.00  0.00    +0.000 A 
ATOM     24  C   UNL     1       6.919   4.292  12.188  0.00  0.00    +0.000 A 
ATOM     25  C   UNL     1       7.754   5.201  12.836  0.00  0.00    +0.000 A 
ATOM     26  C   UNL     1       7.658   5.380  14.219  0.00  0.00    +0.000 A 
ENDBRANCH  19  21
ENDBRANCH  17  19
ENDBRANCH  15  17
ENDBRANCH   5  15
TORSDOF 5
ENDMDL
MODEL 5
REMARK VINA RESULT:      -6.7      2.611      6.417
REMARK  Name = 
REMARK  7 active torsions:
REMARK  status: ('A' for Active; 'I' for Inactive)
REMARK    1  A    between atoms: C_1  and  C_2
REMARK    2  A    between atoms: C_2  and  C_3
REMARK    3  A    between atoms: C_5  and  N_6
REMARK    4  A    between atoms: C_5  and  C_16
REMARK    5  A    between atoms: N_6  and  C_7
REMARK    6  A    between atoms: C_7  and  N_9
REMARK    7  A    between atoms: N_9  and  C_10
REMARK                            x       y       z     vdW  Elec       q    Type
REMARK                         _______ _______ _______ _____ _____    ______ ____
ROOT
ATOM      1  C   UNL     1       2.763   2.256  17.295  0.00  0.00    +0.000 C 
ATOM      2  C   UNL     1       2.683   3.557  18.118  0.00  0.00    +0.000 C 
ATOM      3  C   UNL     1       1.197   3.904  18.248  0.00  0.00    +0.000 C 
ATOM      4  C   UNL     1       3.529   4.632  17.402  0.00  0.00    +0.000 C 
ATOM      5  C   UNL     1       4.052   5.835  18.245  0.00  0.00    +0.000 C 
ATOM      6  C   UNL     1       4.510   5.263  19.623  0.00  0.00    +0.000 C 
ATOM      7  C   UNL     1       3.499   4.316  20.248  0.00  0.00    +0.000 C 
ATOM      8  O   UNL     1       3.237   3.218  19.389  0.00  0.00    +0.000 OA
ENDROOT
BRANCH   5   9
ATOM      9  C   UNL     1       3.089   7.015  18.486  0.00  0.00    +0.000 A 
ATOM     10  C   UNL     1       2.867   8.030  17.542  0.00  0.00    +0.000 A 
ATOM     11  C   UNL     1       1.971   9.074  17.781  0.00  0.00    +0.000 A 
ATOM     12  C   UNL     1       1.286   9.153  18.986  0.00  0.00    +0.000 A 
ATOM     13  C   UNL     1       1.520   8.188  19.965  0.00  0.00    +0.000 A 
ATOM     14  C   UNL     1       2.417   7.146  19.719  0.00  0.00    +0.000 A 
ENDBRANCH   5   9
BRANCH   5  15
ATOM     15  N   UNL     1       5.295   6.333  17.548  0.00  0.00    +0.000 N 
ATOM     16  H   UNL     1       5.474   7.326  17.616  0.00  0.00    +0.000 HD
BRANCH  15  17
ATOM     17  C   UNL     1       6.298   5.633  16.896  0.00  0.00    +0.000 C 
ATOM     18  S   UNL     1       7.435   4.632  17.603  0.00  0.00    +0.000 S 
BRANCH  17  19
ATOM     19  N   UNL     1       6.306   5.993  15.547  0.00  0.00    +0.000 N 
ATOM     20  H   UNL     1       6.652   6.933  15.393  0.00  0.00    +0.000 HD
BRANCH  19  21
ATOM     21  C   UNL     1       6.385   5.123  14.442  0.00  0.00    +0.000 A 
ATOM     22  C   UNL     1       5.363   4.211  14.167  0.00  0.00    +0.000 A 
ATOM     23  C   UNL     1       5.416   3.411  13.024  0.00  0.00    +0.000 A 
ATOM     24  C   UNL     1       6.498   3.511  12.151  0.00  0.00    +0.000 A 
ATOM     25  C   UNL     1       7.524   4.416  12.419  0.00  0.00    +0.000 A 
ATOM     26  C   UNL     1       7.461   5.233  13.552  0.00  0.00    +0.000 A 
ENDBRANCH  19  21
ENDBRANCH  17  19
ENDBRANCH  15  17
ENDBRANCH   5  15
TORSDOF 5
ENDMDL
MODEL 6
REMARK VINA RESULT:      -6.6      2.861      5.035
REMARK  Name = 
REMARK  7 active torsions:
REMARK  status: ('A' for Active; 'I' for Inactive)
REMARK    1  A    between atoms: C_1  and  C_2
REMARK    2  A    between atoms: C_2  and  C_3
REMARK    3  A    between atoms: C_5  and  N_6
REMARK    4  A    between atoms: C_5  and  C_16
REMARK    5  A    between atoms: N_6  and  C_7
REMARK    6  A    between atoms: C_7  and  N_9
REMARK    7  A    between atoms: N_9  and  C_10
REMARK                            x       y       z     vdW  Elec       q    Type
REMARK                         _______ _______ _______ _____ _____    ______ ____
ROOT
ATOM      1  C   UNL     1       1.588   2.527  21.585  0.00  0.00    +0.000 C 
ATOM      2  C   UNL     1       2.432   2.849  20.337  0.00  0.00    +0.000 C 
ATOM      3  C   UNL     1       3.849   2.344  20.623  0.00  0.00    +0.000 C 
ATOM      4  C   UNL     1       2.336   4.367  20.071  0.00  0.00    +0.000 C 
ATOM      5  C   UNL     1       2.633   4.878  18.627  0.00  0.00    +0.000 C 
ATOM      6  C   UNL     1       1.976   3.864  17.639  0.00  0.00    +0.000 C 
ATOM      7  C   UNL     1       2.278   2.413  17.978  0.00  0.00    +0.000 C 
ATOM      8  O   UNL     1       1.828   2.096  19.286  0.00  0.00    +0.000 OA
ENDROOT
BRANCH   5   9
ATOM      9  C   UNL     1       4.108   5.085  18.228  0.00  0.00    +0.000 A 
ATOM     10  C   UNL     1       4.549   5.089  16.895  0.00  0.00    +0.000 A 
ATOM     11  C   UNL     1       5.890   5.302  16.565  0.00  0.00    +0.000 A 
ATOM     12  C   UNL     1       6.840   5.491  17.559  0.00  0.00    +0.000 A 
ATOM     13  C   UNL     1       6.443   5.445  18.895  0.00  0.00    +0.000 A 
ATOM     14  C   UNL     1       5.101   5.232  19.218  0.00  0.00    +0.000 A 
ENDBRANCH   5   9
BRANCH   5  15
ATOM     15  N   UNL     1       1.881   6.179  18.475  0.00  0.00    +0.000 N 
ATOM     16  H   UNL     1       0.913   6.099  18.194  0.00  0.00    +0.000 HD
BRANCH  15  17
ATOM     17  C   UNL     1       2.276   7.480  18.746  0.00  0.00    +0.000 C 
ATOM     18  S   UNL     1       2.955   8.558  17.664  0.00  0.00    +0.000 S 
BRANCH  17  19
ATOM     19  N   UNL     1       2.143   7.724  20.113  0.00  0.00    +0.000 N 
ATOM     20  H   UNL     1       2.997   7.549  20.629  0.00  0.00    +0.000 HD
BRANCH  19  21
ATOM     21  C   UNL     1       1.224   8.598  20.728  0.00  0.00    +0.000 A 
ATOM     22  C   UNL     1       1.107   8.660  22.119  0.00  0.00    +0.000 A 
ATOM     23  C   UNL     1       0.251   9.586  22.717  0.00  0.00    +0.000 A 
ATOM     24  C   UNL     1      -0.501  10.454  21.928  0.00  0.00    +0.000 A 
ATOM     25  C   UNL     1      -0.392  10.398  20.539  0.00  0.00    +0.000 A 
ATOM     26  C   UNL     1       0.480   9.484  19.939  0.00  0.00    +0.000 A 
ENDBRANCH  19  21
ENDBRANCH  17  19
ENDBRANCH  15  17
ENDBRANCH   5  15
TORSDOF 5
ENDMDL
MODEL 7
REMARK VINA RESULT:      -6.6      0.507      1.101
REMARK  Name = 
REMARK  7 active torsions:
REMARK  status: ('A' for Active; 'I' for Inactive)
REMARK    1  A    between atoms: C_1  and  C_2
REMARK    2  A    between atoms: C_2  and  C_3
REMARK    3  A    between atoms: C_5  and  N_6
REMARK    4  A    between atoms: C_5  and  C_16
REMARK    5  A    between atoms: N_6  and  C_7
REMARK    6  A    between atoms: C_7  and  N_9
REMARK    7  A    between atoms: N_9  and  C_10
REMARK                            x       y       z     vdW  Elec       q    Type
REMARK                         _______ _______ _______ _____ _____    ______ ____
ROOT
ATOM      1  C   UNL     1       6.084   6.182  14.323  0.00  0.00    +0.000 C 
ATOM      2  C   UNL     1       6.087   5.177  15.491  0.00  0.00    +0.000 C 
ATOM      3  C   UNL     1       5.803   3.799  14.886  0.00  0.00    +0.000 C 
ATOM      4  C   UNL     1       5.046   5.645  16.530  0.00  0.00    +0.000 C 
ATOM      5  C   UNL     1       5.203   5.148  18.001  0.00  0.00    +0.000 C 
ATOM      6  C   UNL     1       6.726   5.195  18.338  0.00  0.00    +0.000 C 
ATOM      7  C   UNL     1       7.600   4.577  17.260  0.00  0.00    +0.000 C 
ATOM      8  O   UNL     1       7.413   5.235  16.017  0.00  0.00    +0.000 OA
ENDROOT
BRANCH   5   9
ATOM      9  C   UNL     1       4.654   3.751  18.349  0.00  0.00    +0.000 A 
ATOM     10  C   UNL     1       5.019   3.049  19.510  0.00  0.00    +0.000 A 
ATOM     11  C   UNL     1       4.486   1.794  19.809  0.00  0.00    +0.000 A 
ATOM     12  C   UNL     1       3.589   1.183  18.941  0.00  0.00    +0.000 A 
ATOM     13  C   UNL     1       3.244   1.831  17.757  0.00  0.00    +0.000 A 
ATOM     14  C   UNL     1       3.779   3.087  17.464  0.00  0.00    +0.000 A 
ENDBRANCH   5   9
BRANCH   5  15
ATOM     15  N   UNL     1       4.535   6.185  18.872  0.00  0.00    +0.000 N 
ATOM     16  H   UNL     1       5.117   6.604  19.586  0.00  0.00    +0.000 HD
BRANCH  15  17
ATOM     17  C   UNL     1       3.264   6.733  18.800  0.00  0.00    +0.000 C 
ATOM     18  S   UNL     1       2.697   7.778  17.624  0.00  0.00    +0.000 S 
BRANCH  17  19
ATOM     19  N   UNL     1       2.548   6.384  19.945  0.00  0.00    +0.000 N 
ATOM     20  H   UNL     1       2.018   7.158  20.329  0.00  0.00    +0.000 HD
BRANCH  19  21
ATOM     21  C   UNL     1       2.095   5.097  20.298  0.00  0.00    +0.000 A 
ATOM     22  C   UNL     1       2.479   4.503  21.503  0.00  0.00    +0.000 A 
ATOM     23  C   UNL     1       1.959   3.261  21.877  0.00  0.00    +0.000 A 
ATOM     24  C   UNL     1       1.058   2.602  21.043  0.00  0.00    +0.000 A 
ATOM     25  C   UNL     1       0.672   3.187  19.838  0.00  0.00    +0.000 A 
ATOM     26  C   UNL     1       1.176   4.439  19.473  0.00  0.00    +0.000 A 
ENDBRANCH  19  21
ENDBRANCH  17  19
ENDBRANCH  15  17
ENDBRANCH   5  15
TORSDOF 5
ENDMDL
MODEL 8
REMARK VINA RESULT:      -6.5      2.753      5.050
REMARK  Name = 
REMARK  7 active torsions:
REMARK  status: ('A' for Active; 'I' for Inactive)
REMARK    1  A    between atoms: C_1  and  C_2
REMARK    2  A    between atoms: C_2  and  C_3
REMARK    3  A    between atoms: C_5  and  N_6
REMARK    4  A    between atoms: C_5  and  C_16
REMARK    5  A    between atoms: N_6  and  C_7
REMARK    6  A    between atoms: C_7  and  N_9
REMARK    7  A    between atoms: N_9  and  C_10
REMARK                            x       y       z     vdW  Elec       q    Type
REMARK                         _______ _______ _______ _____ _____    ______ ____
ROOT
ATOM      1  C   UNL     1       1.851   2.515  21.651  0.00  0.00    +0.000 C 
ATOM      2  C   UNL     1       2.642   2.739  20.347  0.00  0.00    +0.000 C 
ATOM      3  C   UNL     1       4.057   2.206  20.594  0.00  0.00    +0.000 C 
ATOM      4  C   UNL     1       2.578   4.242  19.999  0.00  0.00    +0.000 C 
ATOM      5  C   UNL     1       2.818   4.661  18.516  0.00  0.00    +0.000 C 
ATOM      6  C   UNL     1       2.084   3.614  17.620  0.00  0.00    +0.000 C 
ATOM      7  C   UNL     1       2.360   2.177  18.027  0.00  0.00    +0.000 C 
ATOM      8  O   UNL     1       1.966   1.947  19.371  0.00  0.00    +0.000 OA
ENDROOT
BRANCH   5   9
ATOM      9  C   UNL     1       4.277   4.799  18.036  0.00  0.00    +0.000 A 
ATOM     10  C   UNL     1       5.342   5.109  18.897  0.00  0.00    +0.000 A 
ATOM     11  C   UNL     1       6.657   5.204  18.435  0.00  0.00    +0.000 A 
ATOM     12  C   UNL     1       6.947   5.020  17.090  0.00  0.00    +0.000 A 
ATOM     13  C   UNL     1       5.906   4.759  16.201  0.00  0.00    +0.000 A 
ATOM     14  C   UNL     1       4.594   4.664  16.669  0.00  0.00    +0.000 A 
ENDBRANCH   5   9
BRANCH   5  15
ATOM     15  N   UNL     1       2.098   5.974  18.324  0.00  0.00    +0.000 N 
ATOM     16  H   UNL     1       1.142   5.912  17.999  0.00  0.00    +0.000 HD
BRANCH  15  17
ATOM     17  C   UNL     1       2.502   7.269  18.610  0.00  0.00    +0.000 C 
ATOM     18  S   UNL     1       3.280   8.320  17.569  0.00  0.00    +0.000 S 
BRANCH  17  19
ATOM     19  N   UNL     1       2.280   7.532  19.962  0.00  0.00    +0.000 N 
ATOM     20  H   UNL     1       3.085   7.324  20.541  0.00  0.00    +0.000 HD
BRANCH  19  21
ATOM     21  C   UNL     1       1.358   8.450  20.503  0.00  0.00    +0.000 A 
ATOM     22  C   UNL     1       1.089   8.480  21.874  0.00  0.00    +0.000 A 
ATOM     23  C   UNL     1       0.233   9.447  22.406  0.00  0.00    +0.000 A 
ATOM     24  C   UNL     1      -0.366  10.387  21.570  0.00  0.00    +0.000 A 
ATOM     25  C   UNL     1      -0.105  10.362  20.200  0.00  0.00    +0.000 A 
ATOM     26  C   UNL     1       0.767   9.407  19.669  0.00  0.00    +0.000 A 
ENDBRANCH  19  21
ENDBRANCH  17  19
ENDBRANCH  15  17
ENDBRANCH   5  15
TORSDOF 5
ENDMDL
MODEL 9
REMARK VINA RESULT:      -6.5      3.284      5.449
REMARK  Name = 
REMARK  7 active torsions:
REMARK  status: ('A' for Active; 'I' for Inactive)
REMARK    1  A    between atoms: C_1  and  C_2
REMARK    2  A    between atoms: C_2  and  C_3
REMARK    3  A    between atoms: C_5  and  N_6
REMARK    4  A    between atoms: C_5  and  C_16
REMARK    5  A    between atoms: N_6  and  C_7
REMARK    6  A    between atoms: C_7  and  N_9
REMARK    7  A    between atoms: N_9  and  C_10
REMARK                            x       y       z     vdW  Elec       q    Type
REMARK                         _______ _______ _______ _____ _____    ______ ____
ROOT
ATOM      1  C   UNL     1       1.763   2.643  21.284  0.00  0.00    +0.000 C 
ATOM      2  C   UNL     1       2.471   3.289  20.078  0.00  0.00    +0.000 C 
ATOM      3  C   UNL     1       3.688   2.414  19.762  0.00  0.00    +0.000 C 
ATOM      4  C   UNL     1       2.814   4.749  20.447  0.00  0.00    +0.000 C 
ATOM      5  C   UNL     1       3.039   5.766  19.286  0.00  0.00    +0.000 C 
ATOM      6  C   UNL     1       1.961   5.462  18.198  0.00  0.00    +0.000 C 
ATOM      7  C   UNL     1       1.843   3.984  17.864  0.00  0.00    +0.000 C 
ATOM      8  O   UNL     1       1.515   3.229  19.020  0.00  0.00    +0.000 OA
ENDROOT
BRANCH   5   9
ATOM      9  C   UNL     1       4.429   5.799  18.620  0.00  0.00    +0.000 A 
ATOM     10  C   UNL     1       5.589   5.307  19.239  0.00  0.00    +0.000 A 
ATOM     11  C   UNL     1       6.831   5.331  18.601  0.00  0.00    +0.000 A 
ATOM     12  C   UNL     1       6.960   5.876  17.330  0.00  0.00    +0.000 A 
ATOM     13  C   UNL     1       5.836   6.418  16.707  0.00  0.00    +0.000 A 
ATOM     14  C   UNL     1       4.598   6.389  17.351  0.00  0.00    +0.000 A 
ENDBRANCH   5   9
BRANCH   5  15
ATOM     15  N   UNL     1       2.714   7.129  19.847  0.00  0.00    +0.000 N 
ATOM     16  H   UNL     1       3.308   7.450  20.601  0.00  0.00    +0.000 HD
BRANCH  15  17
ATOM     17  C   UNL     1       1.781   8.068  19.438  0.00  0.00    +0.000 C 
ATOM     18  S   UNL     1       1.950   9.155  18.179  0.00  0.00    +0.000 S 
BRANCH  17  19
ATOM     19  N   UNL     1       0.707   8.067  20.329  0.00  0.00    +0.000 N 
ATOM     20  H   UNL     1       0.538   7.156  20.740  0.00  0.00    +0.000 HD
BRANCH  19  21
ATOM     21  C   UNL     1       0.211   9.168  21.055  0.00  0.00    +0.000 A 
ATOM     22  C   UNL     1      -0.246  10.316  20.403  0.00  0.00    +0.000 A 
ATOM     23  C   UNL     1      -0.808  11.367  21.131  0.00  0.00    +0.000 A 
ATOM     24  C   UNL     1      -0.910  11.281  22.517  0.00  0.00    +0.000 A 
ATOM     25  C   UNL     1      -0.455  10.139  23.177  0.00  0.00    +0.000 A 
ATOM     26  C   UNL     1       0.089   9.078  22.448  0.00  0.00    +0.000 A 
ENDBRANCH  19  21
ENDBRANCH  17  19
ENDBRANCH  15  17
ENDBRANCH   5  15
TORSDOF 5
ENDMDL
