MODEL 1
REMARK VINA RESULT:      -6.5      0.000      0.000
REMARK  Name = 
REMARK  8 active torsions:
REMARK  status: ('A' for Active; 'I' for Inactive)
REMARK    1  A    between atoms: C_1  and  C_2
REMARK    2  A    between atoms: C_2  and  C_3
REMARK    3  A    between atoms: C_3  and  N_4
REMARK    4  A    between atoms: N_4  and  C_5
REMARK    5  A    between atoms: N_4  and  C_6
REMARK    6  A    between atoms: C_6  and  C_7
REMARK    7  A    between atoms: C_6  and  C_8
REMARK    8  A    between atoms: C_11  and  C_12
REMARK                            x       y       z     vdW  Elec       q    Type
REMARK                         _______ _______ _______ _____ _____    ______ ____
ROOT
ATOM      1  C   UNL     1       4.878   6.036  16.921  0.00  0.00    +0.000 A 
ATOM      2  N   UNL     1       4.241   7.104  17.350  0.00  0.00    +0.000 NA
ATOM      3  N   UNL     1       3.219   6.648  18.152  0.00  0.00    +0.000 NA
ATOM      4  C   UNL     1       3.293   5.327  18.167  0.00  0.00    +0.000 A 
ATOM      5  O   UNL     1       4.329   4.869  17.385  0.00  0.00    +0.000 OA
ENDROOT
BRANCH   4   6
ATOM      6  C   UNL     1       2.400   4.492  18.921  0.00  0.00    +0.000 A 
ATOM      7  C   UNL     1       1.579   3.495  18.426  0.00  0.00    +0.000 A 
ATOM      8  C   UNL     1       0.814   2.859  19.447  0.00  0.00    +0.000 A 
ATOM      9  C   UNL     1       1.075   3.391  20.691  0.00  0.00    +0.000 A 
ATOM     10  S   UNL     1       2.234   4.647  20.619  0.00  0.00    +0.000 S 
ENDBRANCH   4   6
BRANCH   1  11
ATOM     11  C   UNL     1       6.120   5.959  16.067  0.00  0.00    +0.000 C 
ATOM     12  C   UNL     1       5.930   4.803  15.068  0.00  0.00    +0.000 C 
BRANCH  11  13
ATOM     13  N   UNL     1       7.389   5.852  16.864  0.00  0.00    +0.000 NA
ATOM     14  C   UNL     1       7.506   4.502  17.445  0.00  0.00    +0.000 C 
BRANCH  13  15
ATOM     15  C   UNL     1       7.439   6.877  17.932  0.00  0.00    +0.000 C 
BRANCH  15  17
ATOM     16  C   UNL     1       8.540   9.092  18.453  0.00  0.00    +0.000 C 
ATOM     17  C   UNL     1       7.732   8.302  17.433  0.00  0.00    +0.000 C 
ENDBRANCH  15  17
ENDBRANCH  13  15
ENDBRANCH  11  13
ENDBRANCH   1  11
TORSDOF 5
ENDMDL
MODEL 2
REMARK VINA RESULT:      -6.5      3.356      5.573
REMARK  Name = 
REMARK  8 active torsions:
REMARK  status: ('A' for Active; 'I' for Inactive)
REMARK    1  A    between atoms: C_1  and  C_2
REMARK    2  A    between atoms: C_2  and  C_3
REMARK    3  A    between atoms: C_3  and  N_4
REMARK    4  A    between atoms: N_4  and  C_5
REMARK    5  A    between atoms: N_4  and  C_6
REMARK    6  A    between atoms: C_6  and  C_7
REMARK    7  A    between atoms: C_6  and  C_8
REMARK    8  A    between atoms: C_11  and  C_12
REMARK                            x       y       z     vdW  Elec       q    Type
REMARK                         _______ _______ _______ _____ _____    ______ ____
ROOT
ATOM      1  C   UNL     1       6.445   4.408  14.041  0.00  0.00    +0.000 A 
ATOM      2  N   UNL     1       7.271   5.256  14.613  0.00  0.00    +0.000 NA
ATOM      3  N   UNL     1       6.651   5.679  15.768  0.00  0.00    +0.000 NA
ATOM      4  C   UNL     1       5.482   5.063  15.834  0.00  0.00    +0.000 A 
ATOM      5  O   UNL     1       5.282   4.241  14.747  0.00  0.00    +0.000 OA
ENDROOT
BRANCH   4   6
ATOM      6  C   UNL     1       4.555   5.234  16.917  0.00  0.00    +0.000 A 
ATOM      7  C   UNL     1       4.307   6.397  17.622  0.00  0.00    +0.000 A 
ATOM      8  C   UNL     1       3.327   6.222  18.642  0.00  0.00    +0.000 A 
ATOM      9  C   UNL     1       2.857   4.927  18.684  0.00  0.00    +0.000 A 
ATOM     10  S   UNL     1       3.597   3.939  17.500  0.00  0.00    +0.000 S 
ENDBRANCH   4   6
BRANCH   1  11
ATOM     11  C   UNL     1       6.651   3.592  12.788  0.00  0.00    +0.000 C 
ATOM     12  C   UNL     1       7.309   4.506  11.739  0.00  0.00    +0.000 C 
BRANCH  11  13
ATOM     13  N   UNL     1       5.398   2.928  12.293  0.00  0.00    +0.000 NA
ATOM     14  C   UNL     1       5.742   1.762  11.459  0.00  0.00    +0.000 C 
BRANCH  13  15
ATOM     15  C   UNL     1       4.555   3.876  11.527  0.00  0.00    +0.000 C 
BRANCH  15  17
ATOM     16  C   UNL     1       2.949   4.137   9.592  0.00  0.00    +0.000 C 
ATOM     17  C   UNL     1       3.448   3.211  10.692  0.00  0.00    +0.000 C 
ENDBRANCH  15  17
ENDBRANCH  13  15
ENDBRANCH  11  13
ENDBRANCH   1  11
TORSDOF 5
ENDMDL
MODEL 3
REMARK VINA RESULT:      -6.4      0.925      1.054
REMARK  Name = 
REMARK  8 active torsions:
REMARK  status: ('A' for Active; 'I' for Inactive)
REMARK    1  A    between atoms: C_1  and  C_2
REMARK    2  A    between atoms: C_2  and  C_3
REMARK    3  A    between atoms: C_3  and  N_4
REMARK    4  A    between atoms: N_4  and  C_5
REMARK    5  A    between atoms: N_4  and  C_6
REMARK    6  A    between atoms: C_6  and  C_7
REMARK    7  A    between atoms: C_6  and  C_8
REMARK    8  A    between atoms: C_11  and  C_12
REMARK                            x       y       z     vdW  Elec       q    Type
REMARK                         _______ _______ _______ _____ _____    ______ ____
ROOT
ATOM      1  C   UNL     1       4.983   5.993  16.925  0.00  0.00    +0.000 A 
ATOM      2  N   UNL     1       4.298   6.980  17.462  0.00  0.00    +0.000 NA
ATOM      3  N   UNL     1       3.251   6.397  18.141  0.00  0.00    +0.000 NA
ATOM      4  C   UNL     1       3.360   5.088  17.980  0.00  0.00    +0.000 A 
ATOM      5  O   UNL     1       4.445   4.763  17.197  0.00  0.00    +0.000 OA
ENDROOT
BRANCH   4   6
ATOM      6  C   UNL     1       2.454   4.140  18.566  0.00  0.00    +0.000 A 
ATOM      7  C   UNL     1       1.624   4.347  19.652  0.00  0.00    +0.000 A 
ATOM      8  C   UNL     1       0.854   3.192  19.981  0.00  0.00    +0.000 A 
ATOM      9  C   UNL     1       1.122   2.139  19.134  0.00  0.00    +0.000 A 
ATOM     10  S   UNL     1       2.293   2.547  17.956  0.00  0.00    +0.000 S 
ENDBRANCH   4   6
BRANCH   1  11
ATOM     11  C   UNL     1       6.267   6.059  16.133  0.00  0.00    +0.000 C 
ATOM     12  C   UNL     1       6.168   5.027  14.996  0.00  0.00    +0.000 C 
BRANCH  11  13
ATOM     13  N   UNL     1       7.499   5.897  16.977  0.00  0.00    +0.000 NA
ATOM     14  C   UNL     1       7.523   4.552  17.580  0.00  0.00    +0.000 C 
BRANCH  13  15
ATOM     15  C   UNL     1       7.567   6.934  18.032  0.00  0.00    +0.000 C 
BRANCH  15  17
ATOM     16  C   UNL     1       8.591   9.203  18.471  0.00  0.00    +0.000 C 
ATOM     17  C   UNL     1       7.765   8.365  17.505  0.00  0.00    +0.000 C 
ENDBRANCH  15  17
ENDBRANCH  13  15
ENDBRANCH  11  13
ENDBRANCH   1  11
TORSDOF 5
ENDMDL
MODEL 4
REMARK VINA RESULT:      -6.4      1.849      3.447
REMARK  Name = 
REMARK  8 active torsions:
REMARK  status: ('A' for Active; 'I' for Inactive)
REMARK    1  A    between atoms: C_1  and  C_2
REMARK    2  A    between atoms: C_2  and  C_3
REMARK    3  A    between atoms: C_3  and  N_4
REMARK    4  A    between atoms: N_4  and  C_5
REMARK    5  A    between atoms: N_4  and  C_6
REMARK    6  A    between atoms: C_6  and  C_7
REMARK    7  A    between atoms: C_6  and  C_8
REMARK    8  A    between atoms: C_11  and  C_12
REMARK                            x       y       z     vdW  Elec       q    Type
REMARK                         _______ _______ _______ _____ _____    ______ ____
ROOT
ATOM      1  C   UNL     1       6.267   5.298  17.946  0.00  0.00    +0.000 A 
ATOM      2  N   UNL     1       6.705   4.329  18.721  0.00  0.00    +0.000 NA
ATOM      3  N   UNL     1       5.601   3.830  19.376  0.00  0.00    +0.000 NA
ATOM      4  C   UNL     1       4.553   4.522  18.961  0.00  0.00    +0.000 A 
ATOM      5  O   UNL     1       4.914   5.490  18.050  0.00  0.00    +0.000 OA
ENDROOT
BRANCH   4   6
ATOM      6  C   UNL     1       3.211   4.273  19.408  0.00  0.00    +0.000 A 
ATOM      7  C   UNL     1       2.514   4.975  20.374  0.00  0.00    +0.000 A 
ATOM      8  C   UNL     1       1.200   4.463  20.582  0.00  0.00    +0.000 A 
ATOM      9  C   UNL     1       0.935   3.385  19.767  0.00  0.00    +0.000 A 
ATOM     10  S   UNL     1       2.265   2.999  18.762  0.00  0.00    +0.000 S 
ENDBRANCH   4   6
BRANCH   1  11
ATOM     11  C   UNL     1       7.040   6.137  16.958  0.00  0.00    +0.000 C 
ATOM     12  C   UNL     1       6.920   7.607  17.398  0.00  0.00    +0.000 C 
BRANCH  11  13
ATOM     13  N   UNL     1       6.631   5.910  15.530  0.00  0.00    +0.000 NA
ATOM     14  C   UNL     1       5.286   6.467  15.297  0.00  0.00    +0.000 C 
BRANCH  13  15
ATOM     15  C   UNL     1       6.656   4.469  15.188  0.00  0.00    +0.000 C 
BRANCH  15  17
ATOM     16  C   UNL     1       6.370   3.714  12.793  0.00  0.00    +0.000 C 
ATOM     17  C   UNL     1       5.658   4.058  14.093  0.00  0.00    +0.000 C 
ENDBRANCH  15  17
ENDBRANCH  13  15
ENDBRANCH  11  13
ENDBRANCH   1  11
TORSDOF 5
ENDMDL
MODEL 5
REMARK VINA RESULT:      -6.3      2.365      3.687
REMARK  Name = 
REMARK  8 active torsions:
REMARK  status: ('A' for Active; 'I' for Inactive)
REMARK    1  A    between atoms: C_1  and  C_2
REMARK    2  A    between atoms: C_2  and  C_3
REMARK    3  A    between atoms: C_3  and  N_4
REMARK    4  A    between atoms: N_4  and  C_5
REMARK    5  A    between atoms: N_4  and  C_6
REMARK    6  A    between atoms: C_6  and  C_7
REMARK    7  A    between atoms: C_6  and  C_8
REMARK    8  A    between atoms: C_11  and  C_12
REMARK                            x       y       z     vdW  Elec       q    Type
REMARK                         _______ _______ _______ _____ _____    ______ ____
ROOT
ATOM      1  C   UNL     1       5.782   4.989  17.295  0.00  0.00    +0.000 A 
ATOM      2  N   UNL     1       6.471   4.399  18.248  0.00  0.00    +0.000 NA
ATOM      3  N   UNL     1       5.551   3.967  19.177  0.00  0.00    +0.000 NA
ATOM      4  C   UNL     1       4.353   4.317  18.735  0.00  0.00    +0.000 A 
ATOM      5  O   UNL     1       4.433   4.989  17.536  0.00  0.00    +0.000 OA
ENDROOT
BRANCH   4   6
ATOM      6  C   UNL     1       3.133   4.014  19.429  0.00  0.00    +0.000 A 
ATOM      7  C   UNL     1       2.258   4.918  20.003  0.00  0.00    +0.000 A 
ATOM      8  C   UNL     1       1.140   4.283  20.619  0.00  0.00    +0.000 A 
ATOM      9  C   UNL     1       1.198   2.912  20.497  0.00  0.00    +0.000 A 
ATOM     10  S   UNL     1       2.591   2.403  19.645  0.00  0.00    +0.000 S 
ENDBRANCH   4   6
BRANCH   1  11
ATOM     11  C   UNL     1       6.283   5.582  16.000  0.00  0.00    +0.000 C 
ATOM     12  C   UNL     1       5.195   6.533  15.470  0.00  0.00    +0.000 C 
BRANCH  11  13
ATOM     13  N   UNL     1       6.710   4.550  14.995  0.00  0.00    +0.000 NA
ATOM     14  C   UNL     1       7.750   5.108  14.112  0.00  0.00    +0.000 C 
BRANCH  13  15
ATOM     15  C   UNL     1       5.559   4.072  14.195  0.00  0.00    +0.000 C 
BRANCH  15  17
ATOM     16  C   UNL     1       4.699   3.378  11.922  0.00  0.00    +0.000 C 
ATOM     17  C   UNL     1       5.930   3.542  12.800  0.00  0.00    +0.000 C 
ENDBRANCH  15  17
ENDBRANCH  13  15
ENDBRANCH  11  13
ENDBRANCH   1  11
TORSDOF 5
ENDMDL
MODEL 6
REMARK VINA RESULT:      -6.3      3.401      5.409
REMARK  Name = 
REMARK  8 active torsions:
REMARK  status: ('A' for Active; 'I' for Inactive)
REMARK    1  A    between atoms: C_1  and  C_2
REMARK    2  A    between atoms: C_2  and  C_3
REMARK    3  A    between atoms: C_3  and  N_4
REMARK    4  A    between atoms: N_4  and  C_5
REMARK    5  A    between atoms: N_4  and  C_6
REMARK    6  A    between atoms: C_6  and  C_7
REMARK    7  A    between atoms: C_6  and  C_8
REMARK    8  A    between atoms: C_11  and  C_12
REMARK                            x       y       z     vdW  Elec       q    Type
REMARK                         _______ _______ _______ _____ _____    ______ ____
ROOT
ATOM      1  C   UNL     1       6.238   4.390  14.085  0.00  0.00    +0.000 A 
ATOM      2  N   UNL     1       6.810   5.491  14.521  0.00  0.00    +0.000 NA
ATOM      3  N   UNL     1       6.221   5.779  15.732  0.00  0.00    +0.000 NA
ATOM      4  C   UNL     1       5.324   4.834  15.965  0.00  0.00    +0.000 A 
ATOM      5  O   UNL     1       5.276   3.917  14.939  0.00  0.00    +0.000 OA
ENDROOT
BRANCH   4   6
ATOM      6  C   UNL     1       4.518   4.782  17.153  0.00  0.00    +0.000 A 
ATOM      7  C   UNL     1       3.322   4.107  17.316  0.00  0.00    +0.000 A 
ATOM      8  C   UNL     1       2.777   4.267  18.624  0.00  0.00    +0.000 A 
ATOM      9  C   UNL     1       3.575   5.059  19.419  0.00  0.00    +0.000 A 
ATOM     10  S   UNL     1       4.968   5.603  18.588  0.00  0.00    +0.000 S 
ENDBRANCH   4   6
BRANCH   1  11
ATOM     11  C   UNL     1       6.551   3.595  12.841  0.00  0.00    +0.000 C 
ATOM     12  C   UNL     1       7.276   4.532  11.858  0.00  0.00    +0.000 C 
BRANCH  11  13
ATOM     13  N   UNL     1       5.349   2.921  12.242  0.00  0.00    +0.000 NA
ATOM     14  C   UNL     1       5.777   1.837  11.339  0.00  0.00    +0.000 C 
BRANCH  13  15
ATOM     15  C   UNL     1       4.499   3.891  11.513  0.00  0.00    +0.000 C 
BRANCH  15  17
ATOM     16  C   UNL     1       2.887   4.235   9.597  0.00  0.00    +0.000 C 
ATOM     17  C   UNL     1       3.419   3.249  10.627  0.00  0.00    +0.000 C 
ENDBRANCH  15  17
ENDBRANCH  13  15
ENDBRANCH  11  13
ENDBRANCH   1  11
TORSDOF 5
ENDMDL
MODEL 7
REMARK VINA RESULT:      -6.2      2.380      3.702
REMARK  Name = 
REMARK  8 active torsions:
REMARK  status: ('A' for Active; 'I' for Inactive)
REMARK    1  A    between atoms: C_1  and  C_2
REMARK    2  A    between atoms: C_2  and  C_3
REMARK    3  A    between atoms: C_3  and  N_4
REMARK    4  A    between atoms: N_4  and  C_5
REMARK    5  A    between atoms: N_4  and  C_6
REMARK    6  A    between atoms: C_6  and  C_7
REMARK    7  A    between atoms: C_6  and  C_8
REMARK    8  A    between atoms: C_11  and  C_12
REMARK                            x       y       z     vdW  Elec       q    Type
REMARK                         _______ _______ _______ _____ _____    ______ ____
ROOT
ATOM      1  C   UNL     1       5.876   4.967  17.331  0.00  0.00    +0.000 A 
ATOM      2  N   UNL     1       6.657   4.456  18.258  0.00  0.00    +0.000 NA
ATOM      3  N   UNL     1       5.823   3.993  19.252  0.00  0.00    +0.000 NA
ATOM      4  C   UNL     1       4.582   4.246  18.872  0.00  0.00    +0.000 A 
ATOM      5  O   UNL     1       4.546   4.883  17.651  0.00  0.00    +0.000 OA
ENDROOT
BRANCH   4   6
ATOM      6  C   UNL     1       3.427   3.884  19.644  0.00  0.00    +0.000 A 
ATOM      7  C   UNL     1       3.235   2.711  20.351  0.00  0.00    +0.000 A 
ATOM      8  C   UNL     1       1.970   2.668  21.008  0.00  0.00    +0.000 A 
ATOM      9  C   UNL     1       1.235   3.811  20.782  0.00  0.00    +0.000 A 
ATOM     10  S   UNL     1       2.071   4.921  19.784  0.00  0.00    +0.000 S 
ENDBRANCH   4   6
BRANCH   1  11
ATOM     11  C   UNL     1       6.260   5.549  15.992  0.00  0.00    +0.000 C 
ATOM     12  C   UNL     1       5.084   6.415  15.505  0.00  0.00    +0.000 C 
BRANCH  11  13
ATOM     13  N   UNL     1       6.690   4.515  14.991  0.00  0.00    +0.000 NA
ATOM     14  C   UNL     1       7.742   5.068  14.117  0.00  0.00    +0.000 C 
BRANCH  13  15
ATOM     15  C   UNL     1       5.544   4.044  14.180  0.00  0.00    +0.000 C 
BRANCH  15  17
ATOM     16  C   UNL     1       4.685   3.366  11.901  0.00  0.00    +0.000 C 
ATOM     17  C   UNL     1       5.920   3.557  12.770  0.00  0.00    +0.000 C 
ENDBRANCH  15  17
ENDBRANCH  13  15
ENDBRANCH  11  13
ENDBRANCH   1  11
TORSDOF 5
ENDMDL
MODEL 8
REMARK VINA RESULT:      -6.2      3.211      5.989
REMARK  Name = 
REMARK  8 active torsions:
REMARK  status: ('A' for Active; 'I' for Inactive)
REMARK    1  A    between atoms: C_1  and  C_2
REMARK    2  A    between atoms: C_2  and  C_3
REMARK    3  A    between atoms: C_3  and  N_4
REMARK    4  A    between atoms: N_4  and  C_5
REMARK    5  A    between atoms: N_4  and  C_6
REMARK    6  A    between atoms: C_6  and  C_7
REMARK    7  A    between atoms: C_6  and  C_8
REMARK    8  A    between atoms: C_11  and  C_12
REMARK                            x       y       z     vdW  Elec       q    Type
REMARK                         _______ _______ _______ _____ _____    ______ ____
ROOT
ATOM      1  C   UNL     1       3.958   3.161  19.092  0.00  0.00    +0.000 A 
ATOM      2  N   UNL     1       4.985   3.729  19.685  0.00  0.00    +0.000 NA
ATOM      3  N   UNL     1       5.821   4.162  18.679  0.00  0.00    +0.000 NA
ATOM      4  C   UNL     1       5.252   3.835  17.530  0.00  0.00    +0.000 A 
ATOM      5  O   UNL     1       4.059   3.177  17.725  0.00  0.00    +0.000 OA
ENDROOT
BRANCH   4   6
ATOM      6  C   UNL     1       5.821   4.145  16.248  0.00  0.00    +0.000 A 
ATOM      7  C   UNL     1       5.497   3.567  15.034  0.00  0.00    +0.000 A 
ATOM      8  C   UNL     1       6.255   4.103  13.952  0.00  0.00    +0.000 A 
ATOM      9  C   UNL     1       7.134   5.075  14.375  0.00  0.00    +0.000 A 
ATOM     10  S   UNL     1       7.042   5.332  16.064  0.00  0.00    +0.000 S 
ENDBRANCH   4   6
BRANCH   1  11
ATOM     11  C   UNL     1       2.713   2.579  19.717  0.00  0.00    +0.000 C 
ATOM     12  C   UNL     1       1.686   2.357  18.592  0.00  0.00    +0.000 C 
BRANCH  11  13
ATOM     13  N   UNL     1       2.177   3.397  20.857  0.00  0.00    +0.000 NA
ATOM     14  C   UNL     1       1.433   2.533  21.790  0.00  0.00    +0.000 C 
BRANCH  13  15
ATOM     15  C   UNL     1       1.309   4.493  20.369  0.00  0.00    +0.000 C 
BRANCH  15  17
ATOM     16  C   UNL     1       2.479   6.444  19.267  0.00  0.00    +0.000 C 
ATOM     17  C   UNL     1       1.894   5.903  20.563  0.00  0.00    +0.000 C 
ENDBRANCH  15  17
ENDBRANCH  13  15
ENDBRANCH  11  13
ENDBRANCH   1  11
TORSDOF 5
ENDMDL
MODEL 9
REMARK VINA RESULT:      -6.2      0.943      1.294
REMARK  Name = 
REMARK  8 active torsions:
REMARK  status: ('A' for Active; 'I' for Inactive)
REMARK    1  A    between atoms: C_1  and  C_2
REMARK    2  A    between atoms: C_2  and  C_3
REMARK    3  A    between atoms: C_3  and  N_4
REMARK    4  A    between atoms: N_4  and  C_5
REMARK    5  A    between atoms: N_4  and  C_6
REMARK    6  A    between atoms: C_6  and  C_7
REMARK    7  A    between atoms: C_6  and  C_8
REMARK    8  A    between atoms: C_11  and  C_12
REMARK                            x       y       z     vdW  Elec       q    Type
REMARK                         _______ _______ _______ _____ _____    ______ ____
ROOT
ATOM      1  C   UNL     1       4.663   6.006  16.587  0.00  0.00    +0.000 A 
ATOM      2  N   UNL     1       4.190   7.091  17.161  0.00  0.00    +0.000 NA
ATOM      3  N   UNL     1       3.256   6.666  18.079  0.00  0.00    +0.000 NA
ATOM      4  C   UNL     1       3.216   5.345  18.014  0.00  0.00    +0.000 A 
ATOM      5  O   UNL     1       4.087   4.858  17.065  0.00  0.00    +0.000 OA
ENDROOT
BRANCH   4   6
ATOM      6  C   UNL     1       2.369   4.536  18.846  0.00  0.00    +0.000 A 
ATOM      7  C   UNL     1       1.543   3.506  18.436  0.00  0.00    +0.000 A 
ATOM      8  C   UNL     1       0.833   2.909  19.519  0.00  0.00    +0.000 A 
ATOM      9  C   UNL     1       1.140   3.504  20.723  0.00  0.00    +0.000 A 
ATOM     10  S   UNL     1       2.276   4.770  20.540  0.00  0.00    +0.000 S 
ENDBRANCH   4   6
BRANCH   1  11
ATOM     11  C   UNL     1       5.760   5.887  15.557  0.00  0.00    +0.000 C 
ATOM     12  C   UNL     1       5.431   4.680  14.661  0.00  0.00    +0.000 C 
BRANCH  11  13
ATOM     13  N   UNL     1       7.138   5.825  16.154  0.00  0.00    +0.000 NA
ATOM     14  C   UNL     1       7.497   4.425  16.446  0.00  0.00    +0.000 C 
BRANCH  13  15
ATOM     15  C   UNL     1       7.226   6.644  17.385  0.00  0.00    +0.000 C 
BRANCH  15  17
ATOM     16  C   UNL     1       6.621   5.469  19.540  0.00  0.00    +0.000 C 
ATOM     17  C   UNL     1       7.755   5.888  18.616  0.00  0.00    +0.000 C 
ENDBRANCH  15  17
ENDBRANCH  13  15
ENDBRANCH  11  13
ENDBRANCH   1  11
TORSDOF 5
ENDMDL
