MODEL 1
REMARK VINA RESULT:      -7.4      0.000      0.000
REMARK  Name = 
REMARK  10 active torsions:
REMARK  status: ('A' for Active; 'I' for Inactive)
REMARK    1  A    between atoms: C_1  and  C_2
REMARK    2  A    between atoms: C_2  and  C_3
REMARK    3  A    between atoms: C_2  and  C_4
REMARK    4  A    between atoms: C_2  and  C_5
REMARK    5  A    between atoms: C_8  and  C_9
REMARK    6  A    between atoms: C_12  and  C_13
REMARK    7  A    between atoms: C_14  and  C_15
REMARK    8  A    between atoms: C_15  and  C_16
REMARK    9  A    between atoms: C_16  and  C_17
REMARK   10  A    between atoms: C_17  and  C_19
REMARK                            x       y       z     vdW  Elec       q    Type
REMARK                         _______ _______ _______ _____ _____    ______ ____
ROOT
ATOM      1  C   UNL     1       9.879  12.465  19.255  0.00  0.00    +0.000 A 
ATOM      2  C   UNL     1       9.307  12.332  17.974  0.00  0.00    +0.000 A 
ATOM      3  C   UNL     1       8.748  11.123  17.546  0.00  0.00    +0.000 A 
ATOM      4  C   UNL     1       8.772  10.010  18.377  0.00  0.00    +0.000 A 
ATOM      5  C   UNL     1       9.385  10.093  19.623  0.00  0.00    +0.000 A 
ATOM      6  C   UNL     1       9.947  11.304  20.049  0.00  0.00    +0.000 A 
ENDROOT
BRANCH   1  10
ATOM      7  C   UNL     1       7.818  15.629  19.538  0.00  0.00    +0.000 C 
ATOM      8  C   UNL     1       8.649  15.309  18.276  0.00  0.00    +0.000 C 
ATOM      9  S   UNL     1      10.447  15.150  18.473  0.00  0.00    +0.000 S 
ATOM     10  C   UNL     1      10.500  13.796  19.697  0.00  0.00    +0.000 C 
ATOM     11  S   UNL     1       9.868  14.519  21.244  0.00  0.00    +0.000 S 
ATOM     12  C   UNL     1       8.131  14.766  20.781  0.00  0.00    +0.000 C 
BRANCH   7  14
ATOM     13  C   UNL     1       5.902  14.833  17.945  0.00  0.00    +0.000 C 
ATOM     14  C   UNL     1       6.258  15.632  19.219  0.00  0.00    +0.000 C 
ATOM     15  C   UNL     1       5.755  17.080  19.027  0.00  0.00    +0.000 C 
ATOM     16  C   UNL     1       5.452  15.022  20.388  0.00  0.00    +0.000 C 
ENDBRANCH   7  14
ENDBRANCH   1  10
BRANCH   4  17
ATOM     17  C   UNL     1       8.165   8.794  17.942  0.00  0.00    +0.000 C 
ATOM     18  C   UNL     1       7.679   7.765  17.557  0.00  0.00    +0.000 C 
BRANCH  18  19
ATOM     19  C   UNL     1       7.092   6.538  17.007  0.00  0.00    +0.000 C 
BRANCH  19  20
ATOM     20  C   UNL     1       7.566   5.348  17.832  0.00  0.00    +0.000 C 
BRANCH  20  21
ATOM     21  C   UNL     1       6.960   5.332  19.209  0.00  0.00    +0.000 C 
ATOM     22  O   UNL     1       7.559   5.527  20.256  0.00  0.00    +0.000 OA
BRANCH  21  23
ATOM     23  C   UNL     1       5.493   5.108  19.325  0.00  0.00    +0.000 C 
ATOM     24  N   UNL     1       5.117   3.868  19.524  0.00  0.00    +0.000 NA
ATOM     25  N   UNL     1       4.797   2.786  19.688  0.00  0.00    +0.000 NA
ENDBRANCH  21  23
ENDBRANCH  20  21
ENDBRANCH  19  20
ENDBRANCH  18  19
ENDBRANCH   4  17
TORSDOF 7
ENDMDL
MODEL 2
REMARK VINA RESULT:      -7.3      7.334     10.444
REMARK  Name = 
REMARK  10 active torsions:
REMARK  status: ('A' for Active; 'I' for Inactive)
REMARK    1  A    between atoms: C_1  and  C_2
REMARK    2  A    between atoms: C_2  and  C_3
REMARK    3  A    between atoms: C_2  and  C_4
REMARK    4  A    between atoms: C_2  and  C_5
REMARK    5  A    between atoms: C_8  and  C_9
REMARK    6  A    between atoms: C_12  and  C_13
REMARK    7  A    between atoms: C_14  and  C_15
REMARK    8  A    between atoms: C_15  and  C_16
REMARK    9  A    between atoms: C_16  and  C_17
REMARK   10  A    between atoms: C_17  and  C_19
REMARK                            x       y       z     vdW  Elec       q    Type
REMARK                         _______ _______ _______ _____ _____    ______ ____
ROOT
ATOM      1  C   UNL     1       2.164   5.264  19.247  0.00  0.00    +0.000 A 
ATOM      2  C   UNL     1       1.769   5.783  20.496  0.00  0.00    +0.000 A 
ATOM      3  C   UNL     1       1.506   7.146  20.670  0.00  0.00    +0.000 A 
ATOM      4  C   UNL     1       1.658   8.028  19.608  0.00  0.00    +0.000 A 
ATOM      5  C   UNL     1       2.106   7.555  18.378  0.00  0.00    +0.000 A 
ATOM      6  C   UNL     1       2.372   6.190  18.206  0.00  0.00    +0.000 A 
ENDROOT
BRANCH   1  10
ATOM      7  C   UNL     1       5.353   4.035  17.617  0.00  0.00    +0.000 C 
ATOM      8  C   UNL     1       4.034   4.170  16.825  0.00  0.00    +0.000 C 
ATOM      9  S   UNL     1       2.622   3.167  17.366  0.00  0.00    +0.000 S 
ATOM     10  C   UNL     1       2.462   3.769  19.083  0.00  0.00    +0.000 C 
ATOM     11  S   UNL     1       3.925   3.126  19.957  0.00  0.00    +0.000 S 
ATOM     12  C   UNL     1       5.220   4.111  19.154  0.00  0.00    +0.000 C 
BRANCH   7  14
ATOM     13  C   UNL     1       6.956   4.709  15.663  0.00  0.00    +0.000 C 
ATOM     14  C   UNL     1       6.457   5.052  17.085  0.00  0.00    +0.000 C 
ATOM     15  C   UNL     1       7.678   5.057  18.028  0.00  0.00    +0.000 C 
ATOM     16  C   UNL     1       5.906   6.496  17.045  0.00  0.00    +0.000 C 
ENDBRANCH   7  14
ENDBRANCH   1  10
BRANCH   4  17
ATOM     17  C   UNL     1       1.350   9.409  19.790  0.00  0.00    +0.000 C 
ATOM     18  C   UNL     1       1.063  10.568  19.927  0.00  0.00    +0.000 C 
BRANCH  18  19
ATOM     19  C   UNL     1       0.710  11.989  20.009  0.00  0.00    +0.000 C 
BRANCH  19  20
ATOM     20  C   UNL     1      -0.688  12.120  20.598  0.00  0.00    +0.000 C 
BRANCH  20  21
ATOM     21  C   UNL     1      -0.660  12.335  22.087  0.00  0.00    +0.000 C 
ATOM     22  O   UNL     1      -0.285  13.349  22.656  0.00  0.00    +0.000 OA
BRANCH  21  23
ATOM     23  C   UNL     1      -1.176  11.246  22.961  0.00  0.00    +0.000 C 
ATOM     24  N   UNL     1      -0.299  10.345  23.332  0.00  0.00    +0.000 NA
ATOM     25  N   UNL     1       0.468   9.562  23.644  0.00  0.00    +0.000 NA
ENDBRANCH  21  23
ENDBRANCH  20  21
ENDBRANCH  19  20
ENDBRANCH  18  19
ENDBRANCH   4  17
TORSDOF 7
ENDMDL
MODEL 3
REMARK VINA RESULT:      -7.2      7.060      8.478
REMARK  Name = 
REMARK  10 active torsions:
REMARK  status: ('A' for Active; 'I' for Inactive)
REMARK    1  A    between atoms: C_1  and  C_2
REMARK    2  A    between atoms: C_2  and  C_3
REMARK    3  A    between atoms: C_2  and  C_4
REMARK    4  A    between atoms: C_2  and  C_5
REMARK    5  A    between atoms: C_8  and  C_9
REMARK    6  A    between atoms: C_12  and  C_13
REMARK    7  A    between atoms: C_14  and  C_15
REMARK    8  A    between atoms: C_15  and  C_16
REMARK    9  A    between atoms: C_16  and  C_17
REMARK   10  A    between atoms: C_17  and  C_19
REMARK                            x       y       z     vdW  Elec       q    Type
REMARK                         _______ _______ _______ _____ _____    ______ ____
ROOT
ATOM      1  C   UNL     1       0.955  10.690  19.572  0.00  0.00    +0.000 A 
ATOM      2  C   UNL     1       1.594  10.494  18.332  0.00  0.00    +0.000 A 
ATOM      3  C   UNL     1       2.115   9.248  17.967  0.00  0.00    +0.000 A 
ATOM      4  C   UNL     1       2.036   8.174  18.844  0.00  0.00    +0.000 A 
ATOM      5  C   UNL     1       1.467   8.352  20.101  0.00  0.00    +0.000 A 
ATOM      6  C   UNL     1       0.947   9.601  20.466  0.00  0.00    +0.000 A 
ENDROOT
BRANCH   1  10
ATOM      7  C   UNL     1      -2.375  11.939  18.274  0.00  0.00    +0.000 C 
ATOM      8  C   UNL     1      -1.042  12.322  17.596  0.00  0.00    +0.000 C 
ATOM      9  S   UNL     1       0.167  13.248  18.583  0.00  0.00    +0.000 S 
ATOM     10  C   UNL     1       0.405  12.068  19.957  0.00  0.00    +0.000 C 
ATOM     11  S   UNL     1      -1.159  12.093  20.890  0.00  0.00    +0.000 S 
ATOM     12  C   UNL     1      -2.253  11.302  19.677  0.00  0.00    +0.000 C 
BRANCH   7  14
ATOM     13  C   UNL     1      -3.331   9.563  17.747  0.00  0.00    +0.000 C 
ATOM     14  C   UNL     1      -3.279  11.045  17.314  0.00  0.00    +0.000 C 
ATOM     15  C   UNL     1      -2.738  11.098  15.869  0.00  0.00    +0.000 C 
ATOM     16  C   UNL     1      -4.732  11.568  17.276  0.00  0.00    +0.000 C 
ENDBRANCH   7  14
ENDBRANCH   1  10
BRANCH   4  17
ATOM     17  C   UNL     1       2.538   6.900  18.444  0.00  0.00    +0.000 C 
ATOM     18  C   UNL     1       2.942   5.828  18.081  0.00  0.00    +0.000 C 
BRANCH  18  19
ATOM     19  C   UNL     1       3.355   4.492  17.639  0.00  0.00    +0.000 C 
BRANCH  19  20
ATOM     20  C   UNL     1       3.051   3.488  18.743  0.00  0.00    +0.000 C 
BRANCH  20  21
ATOM     21  C   UNL     1       1.573   3.266  18.919  0.00  0.00    +0.000 C 
ATOM     22  O   UNL     1       0.809   2.832  18.070  0.00  0.00    +0.000 OA
BRANCH  21  23
ATOM     23  C   UNL     1       0.976   3.549  20.254  0.00  0.00    +0.000 C 
ATOM     24  N   UNL     1       1.708   3.218  21.290  0.00  0.00    +0.000 NA
ATOM     25  N   UNL     1       2.347   2.922  22.186  0.00  0.00    +0.000 NA
ENDBRANCH  21  23
ENDBRANCH  20  21
ENDBRANCH  19  20
ENDBRANCH  18  19
ENDBRANCH   4  17
TORSDOF 7
ENDMDL
MODEL 4
REMARK VINA RESULT:      -7.2      7.294     10.397
REMARK  Name = 
REMARK  10 active torsions:
REMARK  status: ('A' for Active; 'I' for Inactive)
REMARK    1  A    between atoms: C_1  and  C_2
REMARK    2  A    between atoms: C_2  and  C_3
REMARK    3  A    between atoms: C_2  and  C_4
REMARK    4  A    between atoms: C_2  and  C_5
REMARK    5  A    between atoms: C_8  and  C_9
REMARK    6  A    between atoms: C_12  and  C_13
REMARK    7  A    between atoms: C_14  and  C_15
REMARK    8  A    between atoms: C_15  and  C_16
REMARK    9  A    between atoms: C_16  and  C_17
REMARK   10  A    between atoms: C_17  and  C_19
REMARK                            x       y       z     vdW  Elec       q    Type
REMARK                         _______ _______ _______ _____ _____    ______ ____
ROOT
ATOM      1  C   UNL     1       2.461   5.140  19.324  0.00  0.00    +0.000 A 
ATOM      2  C   UNL     1       2.520   6.080  18.276  0.00  0.00    +0.000 A 
ATOM      3  C   UNL     1       2.148   7.415  18.470  0.00  0.00    +0.000 A 
ATOM      4  C   UNL     1       1.680   7.837  19.708  0.00  0.00    +0.000 A 
ATOM      5  C   UNL     1       1.552   6.919  20.745  0.00  0.00    +0.000 A 
ATOM      6  C   UNL     1       1.922   5.581  20.549  0.00  0.00    +0.000 A 
ENDROOT
BRANCH   1  10
ATOM      7  C   UNL     1       5.317   4.206  17.021  0.00  0.00    +0.000 C 
ATOM      8  C   UNL     1       3.850   4.204  16.540  0.00  0.00    +0.000 C 
ATOM      9  S   UNL     1       2.695   3.075  17.368  0.00  0.00    +0.000 S 
ATOM     10  C   UNL     1       2.859   3.679  19.084  0.00  0.00    +0.000 C 
ATOM     11  S   UNL     1       4.533   3.192  19.609  0.00  0.00    +0.000 S 
ATOM     12  C   UNL     1       5.518   4.288  18.550  0.00  0.00    +0.000 C 
BRANCH   7  14
ATOM     13  C   UNL     1       6.930   4.767  15.040  0.00  0.00    +0.000 C 
ATOM     14  C   UNL     1       6.173   5.319  16.269  0.00  0.00    +0.000 C 
ATOM     15  C   UNL     1       7.213   5.933  17.230  0.00  0.00    +0.000 C 
ATOM     16  C   UNL     1       5.270   6.473  15.776  0.00  0.00    +0.000 C 
ENDBRANCH   7  14
ENDBRANCH   1  10
BRANCH   4  17
ATOM     17  C   UNL     1       1.340   9.209  19.901  0.00  0.00    +0.000 C 
ATOM     18  C   UNL     1       1.049  10.367  20.033  0.00  0.00    +0.000 C 
BRANCH  18  19
ATOM     19  C   UNL     1       0.754  11.800  20.137  0.00  0.00    +0.000 C 
BRANCH  19  20
ATOM     20  C   UNL     1      -0.694  11.979  20.572  0.00  0.00    +0.000 C 
BRANCH  20  21
ATOM     21  C   UNL     1      -0.807  12.455  21.995  0.00  0.00    +0.000 C 
ATOM     22  O   UNL     1      -0.584  13.590  22.389  0.00  0.00    +0.000 OA
BRANCH  21  23
ATOM     23  C   UNL     1      -1.276  11.485  23.023  0.00  0.00    +0.000 C 
ATOM     24  N   UNL     1      -0.441  10.519  23.322  0.00  0.00    +0.000 NA
ATOM     25  N   UNL     1       0.286   9.678  23.571  0.00  0.00    +0.000 NA
ENDBRANCH  21  23
ENDBRANCH  20  21
ENDBRANCH  19  20
ENDBRANCH  18  19
ENDBRANCH   4  17
TORSDOF 7
ENDMDL
MODEL 5
REMARK VINA RESULT:      -7.2      5.589      6.896
REMARK  Name = 
REMARK  10 active torsions:
REMARK  status: ('A' for Active; 'I' for Inactive)
REMARK    1  A    between atoms: C_1  and  C_2
REMARK    2  A    between atoms: C_2  and  C_3
REMARK    3  A    between atoms: C_2  and  C_4
REMARK    4  A    between atoms: C_2  and  C_5
REMARK    5  A    between atoms: C_8  and  C_9
REMARK    6  A    between atoms: C_12  and  C_13
REMARK    7  A    between atoms: C_14  and  C_15
REMARK    8  A    between atoms: C_15  and  C_16
REMARK    9  A    between atoms: C_16  and  C_17
REMARK   10  A    between atoms: C_17  and  C_19
REMARK                            x       y       z     vdW  Elec       q    Type
REMARK                         _______ _______ _______ _____ _____    ______ ____
ROOT
ATOM      1  C   UNL     1       0.305   9.638  19.542  0.00  0.00    +0.000 A 
ATOM      2  C   UNL     1       0.699   9.801  18.199  0.00  0.00    +0.000 A 
ATOM      3  C   UNL     1       1.706   9.012  17.632  0.00  0.00    +0.000 A 
ATOM      4  C   UNL     1       2.363   8.060  18.402  0.00  0.00    +0.000 A 
ATOM      5  C   UNL     1       2.039   7.919  19.748  0.00  0.00    +0.000 A 
ATOM      6  C   UNL     1       1.032   8.712  20.314  0.00  0.00    +0.000 A 
ENDROOT
BRANCH   1  10
ATOM      7  C   UNL     1       0.705  13.394  19.810  0.00  0.00    +0.000 C 
ATOM      8  C   UNL     1       1.023  12.455  20.994  0.00  0.00    +0.000 C 
ATOM      9  S   UNL     1      -0.334  11.448  21.655  0.00  0.00    +0.000 S 
ATOM     10  C   UNL     1      -0.790  10.525  20.146  0.00  0.00    +0.000 C 
ATOM     11  S   UNL     1      -1.547  11.757  19.039  0.00  0.00    +0.000 S 
ATOM     12  C   UNL     1      -0.084  12.756  18.644  0.00  0.00    +0.000 C 
BRANCH   7  14
ATOM     13  C   UNL     1       2.717  13.358  18.139  0.00  0.00    +0.000 C 
ATOM     14  C   UNL     1       2.017  14.127  19.282  0.00  0.00    +0.000 C 
ATOM     15  C   UNL     1       3.033  14.297  20.431  0.00  0.00    +0.000 C 
ATOM     16  C   UNL     1       1.685  15.541  18.753  0.00  0.00    +0.000 C 
ENDBRANCH   7  14
ENDBRANCH   1  10
BRANCH   4  17
ATOM     17  C   UNL     1       3.361   7.237  17.802  0.00  0.00    +0.000 C 
ATOM     18  C   UNL     1       4.187   6.546  17.268  0.00  0.00    +0.000 C 
BRANCH  18  19
ATOM     19  C   UNL     1       5.132   5.649  16.593  0.00  0.00    +0.000 C 
BRANCH  19  20
ATOM     20  C   UNL     1       4.928   4.232  17.112  0.00  0.00    +0.000 C 
BRANCH  20  21
ATOM     21  C   UNL     1       5.301   4.099  18.564  0.00  0.00    +0.000 C 
ATOM     22  O   UNL     1       6.316   4.536  19.085  0.00  0.00    +0.000 OA
BRANCH  21  23
ATOM     23  C   UNL     1       4.338   3.418  19.474  0.00  0.00    +0.000 C 
ATOM     24  N   UNL     1       4.809   2.394  20.143  0.00  0.00    +0.000 NA
ATOM     25  N   UNL     1       5.223   1.499  20.715  0.00  0.00    +0.000 NA
ENDBRANCH  21  23
ENDBRANCH  20  21
ENDBRANCH  19  20
ENDBRANCH  18  19
ENDBRANCH   4  17
TORSDOF 7
ENDMDL
MODEL 6
REMARK VINA RESULT:      -7.2      5.544      7.259
REMARK  Name = 
REMARK  10 active torsions:
REMARK  status: ('A' for Active; 'I' for Inactive)
REMARK    1  A    between atoms: C_1  and  C_2
REMARK    2  A    between atoms: C_2  and  C_3
REMARK    3  A    between atoms: C_2  and  C_4
REMARK    4  A    between atoms: C_2  and  C_5
REMARK    5  A    between atoms: C_8  and  C_9
REMARK    6  A    between atoms: C_12  and  C_13
REMARK    7  A    between atoms: C_14  and  C_15
REMARK    8  A    between atoms: C_15  and  C_16
REMARK    9  A    between atoms: C_16  and  C_17
REMARK   10  A    between atoms: C_17  and  C_19
REMARK                            x       y       z     vdW  Elec       q    Type
REMARK                         _______ _______ _______ _____ _____    ______ ____
ROOT
ATOM      1  C   UNL     1       0.119  10.021  19.531  0.00  0.00    +0.000 A 
ATOM      2  C   UNL     1       0.659   9.129  20.479  0.00  0.00    +0.000 A 
ATOM      3  C   UNL     1       1.599   8.158  20.116  0.00  0.00    +0.000 A 
ATOM      4  C   UNL     1       2.000   8.035  18.792  0.00  0.00    +0.000 A 
ATOM      5  C   UNL     1       1.438   8.860  17.823  0.00  0.00    +0.000 A 
ATOM      6  C   UNL     1       0.495   9.831  18.188  0.00  0.00    +0.000 A 
ENDROOT
BRANCH   1  10
ATOM      7  C   UNL     1       0.968  13.705  19.730  0.00  0.00    +0.000 C 
ATOM      8  C   UNL     1       1.001  12.794  20.976  0.00  0.00    +0.000 C 
ATOM      9  S   UNL     1      -0.551  11.999  21.477  0.00  0.00    +0.000 S 
ATOM     10  C   UNL     1      -0.921  11.067  19.950  0.00  0.00    +0.000 C 
ATOM     11  S   UNL     1      -1.356  12.328  18.710  0.00  0.00    +0.000 S 
ATOM     12  C   UNL     1       0.264  13.114  18.488  0.00  0.00    +0.000 C 
BRANCH   7  14
ATOM     13  C   UNL     1       2.419  15.709  18.881  0.00  0.00    +0.000 C 
ATOM     14  C   UNL     1       2.423  14.241  19.364  0.00  0.00    +0.000 C 
ATOM     15  C   UNL     1       3.046  13.376  18.248  0.00  0.00    +0.000 C 
ATOM     16  C   UNL     1       3.366  14.158  20.585  0.00  0.00    +0.000 C 
ENDBRANCH   7  14
ENDBRANCH   1  10
BRANCH   4  17
ATOM     17  C   UNL     1       2.986   7.066  18.443  0.00  0.00    +0.000 C 
ATOM     18  C   UNL     1       3.828   6.250  18.179  0.00  0.00    +0.000 C 
BRANCH  18  19
ATOM     19  C   UNL     1       4.915   5.311  17.881  0.00  0.00    +0.000 C 
BRANCH  19  20
ATOM     20  C   UNL     1       6.250   6.018  18.078  0.00  0.00    +0.000 C 
BRANCH  20  21
ATOM     21  C   UNL     1       7.006   6.177  16.787  0.00  0.00    +0.000 C 
ATOM     22  O   UNL     1       7.835   7.042  16.546  0.00  0.00    +0.000 OA
BRANCH  21  23
ATOM     23  C   UNL     1       6.772   5.175  15.710  0.00  0.00    +0.000 C 
ATOM     24  N   UNL     1       7.460   5.348  14.608  0.00  0.00    +0.000 NA
ATOM     25  N   UNL     1       8.056   5.508  13.650  0.00  0.00    +0.000 NA
ENDBRANCH  21  23
ENDBRANCH  20  21
ENDBRANCH  19  20
ENDBRANCH  18  19
ENDBRANCH   4  17
TORSDOF 7
ENDMDL
MODEL 7
REMARK VINA RESULT:      -7.1      0.464      1.381
REMARK  Name = 
REMARK  10 active torsions:
REMARK  status: ('A' for Active; 'I' for Inactive)
REMARK    1  A    between atoms: C_1  and  C_2
REMARK    2  A    between atoms: C_2  and  C_3
REMARK    3  A    between atoms: C_2  and  C_4
REMARK    4  A    between atoms: C_2  and  C_5
REMARK    5  A    between atoms: C_8  and  C_9
REMARK    6  A    between atoms: C_12  and  C_13
REMARK    7  A    between atoms: C_14  and  C_15
REMARK    8  A    between atoms: C_15  and  C_16
REMARK    9  A    between atoms: C_16  and  C_17
REMARK   10  A    between atoms: C_17  and  C_19
REMARK                            x       y       z     vdW  Elec       q    Type
REMARK                         _______ _______ _______ _____ _____    ______ ____
ROOT
ATOM      1  C   UNL     1       9.871  12.420  19.400  0.00  0.00    +0.000 A 
ATOM      2  C   UNL     1       9.891  11.227  20.150  0.00  0.00    +0.000 A 
ATOM      3  C   UNL     1       9.327  10.045  19.658  0.00  0.00    +0.000 A 
ATOM      4  C   UNL     1       8.704  10.033  18.416  0.00  0.00    +0.000 A 
ATOM      5  C   UNL     1       8.613  11.210  17.679  0.00  0.00    +0.000 A 
ATOM      6  C   UNL     1       9.176  12.394  18.175  0.00  0.00    +0.000 A 
ENDROOT
BRANCH   1  10
ATOM      7  C   UNL     1       7.847  15.602  19.745  0.00  0.00    +0.000 C 
ATOM      8  C   UNL     1       8.757  15.345  18.524  0.00  0.00    +0.000 C 
ATOM      9  S   UNL     1      10.534  15.137  18.830  0.00  0.00    +0.000 S 
ATOM     10  C   UNL     1      10.482  13.708  19.966  0.00  0.00    +0.000 C 
ATOM     11  S   UNL     1       9.758  14.346  21.510  0.00  0.00    +0.000 S 
ATOM     12  C   UNL     1       8.060  14.656  20.948  0.00  0.00    +0.000 C 
BRANCH   7  14
ATOM     13  C   UNL     1       5.365  15.145  20.431  0.00  0.00    +0.000 C 
ATOM     14  C   UNL     1       6.312  15.657  19.323  0.00  0.00    +0.000 C 
ATOM     15  C   UNL     1       6.074  14.800  18.061  0.00  0.00    +0.000 C 
ATOM     16  C   UNL     1       5.885  17.102  18.980  0.00  0.00    +0.000 C 
ENDBRANCH   7  14
ENDBRANCH   1  10
BRANCH   4  17
ATOM     17  C   UNL     1       8.167   8.812  17.911  0.00  0.00    +0.000 C 
ATOM     18  C   UNL     1       7.685   7.797  17.485  0.00  0.00    +0.000 C 
BRANCH  18  19
ATOM     19  C   UNL     1       7.045   6.556  17.034  0.00  0.00    +0.000 C 
BRANCH  19  20
ATOM     20  C   UNL     1       7.550   5.399  17.886  0.00  0.00    +0.000 C 
BRANCH  20  21
ATOM     21  C   UNL     1       6.922   5.383  19.253  0.00  0.00    +0.000 C 
ATOM     22  O   UNL     1       7.517   5.489  20.315  0.00  0.00    +0.000 OA
BRANCH  21  23
ATOM     23  C   UNL     1       5.439   5.275  19.341  0.00  0.00    +0.000 C 
ATOM     24  N   UNL     1       4.891   4.324  18.624  0.00  0.00    +0.000 NA
ATOM     25  N   UNL     1       4.420   3.500  17.993  0.00  0.00    +0.000 NA
ENDBRANCH  21  23
ENDBRANCH  20  21
ENDBRANCH  19  20
ENDBRANCH  18  19
ENDBRANCH   4  17
TORSDOF 7
ENDMDL
MODEL 8
REMARK VINA RESULT:      -7.1      2.029      2.377
REMARK  Name = 
REMARK  10 active torsions:
REMARK  status: ('A' for Active; 'I' for Inactive)
REMARK    1  A    between atoms: C_1  and  C_2
REMARK    2  A    between atoms: C_2  and  C_3
REMARK    3  A    between atoms: C_2  and  C_4
REMARK    4  A    between atoms: C_2  and  C_5
REMARK    5  A    between atoms: C_8  and  C_9
REMARK    6  A    between atoms: C_12  and  C_13
REMARK    7  A    between atoms: C_14  and  C_15
REMARK    8  A    between atoms: C_15  and  C_16
REMARK    9  A    between atoms: C_16  and  C_17
REMARK   10  A    between atoms: C_17  and  C_19
REMARK                            x       y       z     vdW  Elec       q    Type
REMARK                         _______ _______ _______ _____ _____    ______ ____
ROOT
ATOM      1  C   UNL     1      10.319  12.913  19.401  0.00  0.00    +0.000 A 
ATOM      2  C   UNL     1      10.172  12.416  18.091  0.00  0.00    +0.000 A 
ATOM      3  C   UNL     1       9.644  11.143  17.847  0.00  0.00    +0.000 A 
ATOM      4  C   UNL     1       9.277  10.325  18.909  0.00  0.00    +0.000 A 
ATOM      5  C   UNL     1       9.467  10.764  20.215  0.00  0.00    +0.000 A 
ATOM      6  C   UNL     1       9.999  12.038  20.457  0.00  0.00    +0.000 A 
ENDROOT
BRANCH   1  10
ATOM      7  C   UNL     1       8.140  16.003  19.614  0.00  0.00    +0.000 C 
ATOM      8  C   UNL     1       8.847  15.594  18.303  0.00  0.00    +0.000 C 
ATOM      9  S   UNL     1      10.660  15.529  18.312  0.00  0.00    +0.000 S 
ATOM     10  C   UNL     1      10.914  14.305  19.644  0.00  0.00    +0.000 C 
ATOM     11  S   UNL     1      10.415  15.151  21.177  0.00  0.00    +0.000 S 
ATOM     12  C   UNL     1       8.627  15.280  20.889  0.00  0.00    +0.000 C 
BRANCH   7  14
ATOM     13  C   UNL     1       5.889  15.165  20.649  0.00  0.00    +0.000 C 
ATOM     14  C   UNL     1       6.556  15.911  19.472  0.00  0.00    +0.000 C 
ATOM     15  C   UNL     1       6.178  15.174  18.169  0.00  0.00    +0.000 C 
ATOM     16  C   UNL     1       5.924  17.319  19.398  0.00  0.00    +0.000 C 
ENDBRANCH   7  14
ENDBRANCH   1  10
BRANCH   4  17
ATOM     17  C   UNL     1       8.705   9.045  18.645  0.00  0.00    +0.000 C 
ATOM     18  C   UNL     1       8.230   7.958  18.453  0.00  0.00    +0.000 C 
BRANCH  18  19
ATOM     19  C   UNL     1       7.725   6.597  18.241  0.00  0.00    +0.000 C 
BRANCH  19  20
ATOM     20  C   UNL     1       6.874   6.574  16.979  0.00  0.00    +0.000 C 
BRANCH  20  21
ATOM     21  C   UNL     1       6.902   5.232  16.298  0.00  0.00    +0.000 C 
ATOM     22  O   UNL     1       7.818   4.425  16.346  0.00  0.00    +0.000 OA
BRANCH  21  23
ATOM     23  C   UNL     1       5.697   4.811  15.531  0.00  0.00    +0.000 C 
ATOM     24  N   UNL     1       5.926   4.235  14.375  0.00  0.00    +0.000 NA
ATOM     25  N   UNL     1       6.132   3.742  13.369  0.00  0.00    +0.000 NA
ENDBRANCH  21  23
ENDBRANCH  20  21
ENDBRANCH  19  20
ENDBRANCH  18  19
ENDBRANCH   4  17
TORSDOF 7
ENDMDL
MODEL 9
REMARK VINA RESULT:      -7.1      5.404      7.137
REMARK  Name = 
REMARK  10 active torsions:
REMARK  status: ('A' for Active; 'I' for Inactive)
REMARK    1  A    between atoms: C_1  and  C_2
REMARK    2  A    between atoms: C_2  and  C_3
REMARK    3  A    between atoms: C_2  and  C_4
REMARK    4  A    between atoms: C_2  and  C_5
REMARK    5  A    between atoms: C_8  and  C_9
REMARK    6  A    between atoms: C_12  and  C_13
REMARK    7  A    between atoms: C_14  and  C_15
REMARK    8  A    between atoms: C_15  and  C_16
REMARK    9  A    between atoms: C_16  and  C_17
REMARK   10  A    between atoms: C_17  and  C_19
REMARK                            x       y       z     vdW  Elec       q    Type
REMARK                         _______ _______ _______ _____ _____    ______ ____
ROOT
ATOM      1  C   UNL     1       0.077  10.136  19.720  0.00  0.00    +0.000 A 
ATOM      2  C   UNL     1       0.554   9.207  20.666  0.00  0.00    +0.000 A 
ATOM      3  C   UNL     1       1.481   8.220  20.317  0.00  0.00    +0.000 A 
ATOM      4  C   UNL     1       1.933   8.118  19.007  0.00  0.00    +0.000 A 
ATOM      5  C   UNL     1       1.434   8.981  18.037  0.00  0.00    +0.000 A 
ATOM      6  C   UNL     1       0.502   9.968  18.388  0.00  0.00    +0.000 A 
ENDROOT
BRANCH   1  10
ATOM      7  C   UNL     1       0.925  13.826  19.718  0.00  0.00    +0.000 C 
ATOM      8  C   UNL     1       1.000  12.975  21.004  0.00  0.00    +0.000 C 
ATOM      9  S   UNL     1      -0.534  12.203  21.591  0.00  0.00    +0.000 S 
ATOM     10  C   UNL     1      -0.951  11.200  20.122  0.00  0.00    +0.000 C 
ATOM     11  S   UNL     1      -1.429  12.401  18.839  0.00  0.00    +0.000 S 
ATOM     12  C   UNL     1       0.182  13.177  18.529  0.00  0.00    +0.000 C 
BRANCH   7  14
ATOM     13  C   UNL     1       3.032  13.445  18.217  0.00  0.00    +0.000 C 
ATOM     14  C   UNL     1       2.366  14.345  19.281  0.00  0.00    +0.000 C 
ATOM     15  C   UNL     1       3.305  14.408  20.505  0.00  0.00    +0.000 C 
ATOM     16  C   UNL     1       2.286  15.773  18.695  0.00  0.00    +0.000 C 
ENDBRANCH   7  14
ENDBRANCH   1  10
BRANCH   4  17
ATOM     17  C   UNL     1       2.907   7.130  18.674  0.00  0.00    +0.000 C 
ATOM     18  C   UNL     1       3.705   6.284  18.374  0.00  0.00    +0.000 C 
BRANCH  18  19
ATOM     19  C   UNL     1       4.625   5.192  18.036  0.00  0.00    +0.000 C 
BRANCH  19  20
ATOM     20  C   UNL     1       5.824   5.245  18.974  0.00  0.00    +0.000 C 
BRANCH  20  21
ATOM     21  C   UNL     1       7.110   5.514  18.239  0.00  0.00    +0.000 C 
ATOM     22  O   UNL     1       7.857   6.462  18.430  0.00  0.00    +0.000 OA
BRANCH  21  23
ATOM     23  C   UNL     1       7.553   4.525  17.218  0.00  0.00    +0.000 C 
ATOM     24  N   UNL     1       7.565   4.949  15.978  0.00  0.00    +0.000 NA
ATOM     25  N   UNL     1       7.566   5.322  14.901  0.00  0.00    +0.000 NA
ENDBRANCH  21  23
ENDBRANCH  20  21
ENDBRANCH  19  20
ENDBRANCH  18  19
ENDBRANCH   4  17
TORSDOF 7
ENDMDL
