MODEL 1
REMARK VINA RESULT:      -8.9      0.000      0.000
REMARK  Name = 
REMARK  9 active torsions:
REMARK  status: ('A' for Active; 'I' for Inactive)
REMARK    1  A    between atoms: C_1  and  C_2
REMARK    2  A    between atoms: C_2  and  N_3
REMARK    3  A    between atoms: N_3  and  C_26
REMARK    4  A    between atoms: C_4  and  C_6
REMARK    5  A    between atoms: C_6  and  O_7
REMARK    6  A    between atoms: O_7  and  C_8
REMARK    7  A    between atoms: C_8  and  C_10
REMARK    8  A    between atoms: C_12  and  C_13
REMARK    9  A    between atoms: C_16  and  C_17
REMARK                            x       y       z     vdW  Elec       q    Type
REMARK                         _______ _______ _______ _____ _____    ______ ____
ROOT
ATOM      1  C   UNL     1       2.555   7.157  18.773  0.00  0.00    +0.000 C 
ATOM      2  O   UNL     1       2.199   7.320  19.926  0.00  0.00    +0.000 OA
ENDROOT
BRANCH   1   3
ATOM      3  C   UNL     1       3.064   5.876  18.219  0.00  0.00    +0.000 A 
ATOM      4  C   UNL     1       4.100   5.927  17.280  0.00  0.00    +0.000 A 
ATOM      5  C   UNL     1       4.513   4.748  16.698  0.00  0.00    +0.000 A 
ATOM      6  N   UNL     1       3.976   3.550  17.028  0.00  0.00    +0.000 NA
ATOM      7  C   UNL     1       2.988   3.497  17.934  0.00  0.00    +0.000 A 
ATOM      8  C   UNL     1       2.459   2.251  18.244  0.00  0.00    +0.000 A 
ATOM      9  C   UNL     1       1.411   2.093  19.154  0.00  0.00    +0.000 A 
ATOM     10  C   UNL     1       0.872   3.207  19.774  0.00  0.00    +0.000 A 
ATOM     11  C   UNL     1       1.394   4.467  19.489  0.00  0.00    +0.000 A 
ATOM     12  C   UNL     1       2.463   4.640  18.567  0.00  0.00    +0.000 A 
BRANCH   5  13
ATOM     13  C   UNL     1       5.523   4.690  15.651  0.00  0.00    +0.000 A 
ATOM     14  C   UNL     1       6.812   5.179  15.558  0.00  0.00    +0.000 A 
ATOM     15  C   UNL     1       7.310   4.787  14.295  0.00  0.00    +0.000 A 
ATOM     16  C   UNL     1       6.296   4.089  13.680  0.00  0.00    +0.000 A 
ATOM     17  C   UNL     1       6.172   3.450  12.354  0.00  0.00    +0.000 C 
ATOM     18  O   UNL     1       5.208   4.016  14.501  0.00  0.00    +0.000 OA
ENDBRANCH   5  13
ENDBRANCH   1   3
BRANCH   1  19
ATOM     19  O   UNL     1       2.490   8.089  17.795  0.00  0.00    +0.000 OA
BRANCH  19  20
ATOM     20  C   UNL     1       1.393   8.990  17.943  0.00  0.00    +0.000 C 
BRANCH  20  22
ATOM     21  N   UNL     1       1.059  11.199  19.111  0.00  0.00    +0.000 N 
ATOM     22  C   UNL     1       1.811  10.463  18.174  0.00  0.00    +0.000 C 
ATOM     23  O   UNL     1       2.752  10.943  17.545  0.00  0.00    +0.000 OA
BRANCH  21  24
ATOM     24  C   UNL     1      -0.253  10.689  19.595  0.00  0.00    +0.000 C 
ATOM     25  C   UNL     1      -1.262  10.628  18.429  0.00  0.00    +0.000 C 
ATOM     26  C   UNL     1      -1.766  12.050  18.230  0.00  0.00    +0.000 C 
ATOM     27  S   UNL     1      -2.042  12.638  19.890  0.00  0.00    +0.000 S 
ATOM     28  O   UNL     1      -3.413  12.309  20.258  0.00  0.00    +0.000 OA
ATOM     29  O   UNL     1      -1.527  13.981  20.031  0.00  0.00    +0.000 OA
ATOM     30  C   UNL     1      -0.958  11.479  20.712  0.00  0.00    +0.000 C 
ENDBRANCH  21  24
BRANCH  21  32
ATOM     31  C   UNL     1       1.561  13.730  18.656  0.00  0.00    +0.000 C 
ATOM     32  C   UNL     1       1.503  12.530  19.581  0.00  0.00    +0.000 C 
ENDBRANCH  21  32
ENDBRANCH  20  22
ENDBRANCH  19  20
ENDBRANCH   1  19
TORSDOF 7
ENDMDL
MODEL 2
REMARK VINA RESULT:      -8.8      1.266      1.984
REMARK  Name = 
REMARK  9 active torsions:
REMARK  status: ('A' for Active; 'I' for Inactive)
REMARK    1  A    between atoms: C_1  and  C_2
REMARK    2  A    between atoms: C_2  and  N_3
REMARK    3  A    between atoms: N_3  and  C_26
REMARK    4  A    between atoms: C_4  and  C_6
REMARK    5  A    between atoms: C_6  and  O_7
REMARK    6  A    between atoms: O_7  and  C_8
REMARK    7  A    between atoms: C_8  and  C_10
REMARK    8  A    between atoms: C_12  and  C_13
REMARK    9  A    between atoms: C_16  and  C_17
REMARK                            x       y       z     vdW  Elec       q    Type
REMARK                         _______ _______ _______ _____ _____    ______ ____
ROOT
ATOM      1  C   UNL     1       2.237   7.453  19.068  0.00  0.00    +0.000 C 
ATOM      2  O   UNL     1       2.027   7.795  20.218  0.00  0.00    +0.000 OA
ENDROOT
BRANCH   1   3
ATOM      3  C   UNL     1       2.870   6.169  18.671  0.00  0.00    +0.000 A 
ATOM      4  C   UNL     1       3.872   6.200  17.695  0.00  0.00    +0.000 A 
ATOM      5  C   UNL     1       4.396   5.003  17.260  0.00  0.00    +0.000 A 
ATOM      6  N   UNL     1       4.003   3.811  17.767  0.00  0.00    +0.000 NA
ATOM      7  C   UNL     1       3.048   3.779  18.709  0.00  0.00    +0.000 A 
ATOM      8  C   UNL     1       2.665   2.538  19.202  0.00  0.00    +0.000 A 
ATOM      9  C   UNL     1       1.664   2.397  20.165  0.00  0.00    +0.000 A 
ATOM     10  C   UNL     1       1.021   3.522  20.651  0.00  0.00    +0.000 A 
ATOM     11  C   UNL     1       1.395   4.779  20.181  0.00  0.00    +0.000 A 
ATOM     12  C   UNL     1       2.416   4.936  19.203  0.00  0.00    +0.000 A 
BRANCH   5  13
ATOM     13  C   UNL     1       5.382   4.909  16.191  0.00  0.00    +0.000 A 
ATOM     14  C   UNL     1       6.672   5.386  16.055  0.00  0.00    +0.000 A 
ATOM     15  C   UNL     1       7.137   4.955  14.792  0.00  0.00    +0.000 A 
ATOM     16  C   UNL     1       6.104   4.248  14.220  0.00  0.00    +0.000 A 
ATOM     17  C   UNL     1       5.946   3.574  12.916  0.00  0.00    +0.000 C 
ATOM     18  O   UNL     1       5.036   4.206  15.068  0.00  0.00    +0.000 OA
ENDBRANCH   5  13
ENDBRANCH   1   3
BRANCH   1  19
ATOM     19  O   UNL     1       1.878   8.151  17.967  0.00  0.00    +0.000 OA
BRANCH  19  20
ATOM     20  C   UNL     1       1.767   9.555  18.198  0.00  0.00    +0.000 C 
BRANCH  20  22
ATOM     21  N   UNL     1       0.072  11.374  18.613  0.00  0.00    +0.000 N 
ATOM     22  C   UNL     1       0.326  10.107  18.053  0.00  0.00    +0.000 C 
ATOM     23  O   UNL     1      -0.535   9.441  17.482  0.00  0.00    +0.000 OA
BRANCH  21  24
ATOM     24  C   UNL     1       1.036  11.987  19.567  0.00  0.00    +0.000 C 
ATOM     25  C   UNL     1       0.999  11.238  20.915  0.00  0.00    +0.000 C 
ATOM     26  C   UNL     1      -0.227  11.757  21.654  0.00  0.00    +0.000 C 
ATOM     27  S   UNL     1      -0.176  13.516  21.378  0.00  0.00    +0.000 S 
ATOM     28  O   UNL     1       0.604  14.115  22.454  0.00  0.00    +0.000 OA
ATOM     29  O   UNL     1      -1.494  14.003  21.044  0.00  0.00    +0.000 OA
ATOM     30  C   UNL     1       0.849  13.475  19.914  0.00  0.00    +0.000 C 
ENDBRANCH  21  24
BRANCH  21  32
ATOM     31  C   UNL     1      -2.533  11.578  18.815  0.00  0.00    +0.000 C 
ATOM     32  C   UNL     1      -1.190  12.097  18.340  0.00  0.00    +0.000 C 
ENDBRANCH  21  32
ENDBRANCH  20  22
ENDBRANCH  19  20
ENDBRANCH   1  19
TORSDOF 7
ENDMDL
MODEL 3
REMARK VINA RESULT:      -8.7      1.269      1.329
REMARK  Name = 
REMARK  9 active torsions:
REMARK  status: ('A' for Active; 'I' for Inactive)
REMARK    1  A    between atoms: C_1  and  C_2
REMARK    2  A    between atoms: C_2  and  N_3
REMARK    3  A    between atoms: N_3  and  C_26
REMARK    4  A    between atoms: C_4  and  C_6
REMARK    5  A    between atoms: C_6  and  O_7
REMARK    6  A    between atoms: O_7  and  C_8
REMARK    7  A    between atoms: C_8  and  C_10
REMARK    8  A    between atoms: C_12  and  C_13
REMARK    9  A    between atoms: C_16  and  C_17
REMARK                            x       y       z     vdW  Elec       q    Type
REMARK                         _______ _______ _______ _____ _____    ______ ____
ROOT
ATOM      1  C   UNL     1       2.321   7.498  19.179  0.00  0.00    +0.000 C 
ATOM      2  O   UNL     1       1.821   7.703  20.272  0.00  0.00    +0.000 OA
ENDROOT
BRANCH   1   3
ATOM      3  C   UNL     1       2.928   6.210  18.758  0.00  0.00    +0.000 A 
ATOM      4  C   UNL     1       3.926   6.239  17.776  0.00  0.00    +0.000 A 
ATOM      5  C   UNL     1       4.426   5.039  17.318  0.00  0.00    +0.000 A 
ATOM      6  N   UNL     1       4.013   3.846  17.807  0.00  0.00    +0.000 NA
ATOM      7  C   UNL     1       3.062   3.816  18.754  0.00  0.00    +0.000 A 
ATOM      8  C   UNL     1       2.659   2.574  19.228  0.00  0.00    +0.000 A 
ATOM      9  C   UNL     1       1.660   2.435  20.194  0.00  0.00    +0.000 A 
ATOM     10  C   UNL     1       1.041   3.563  20.702  0.00  0.00    +0.000 A 
ATOM     11  C   UNL     1       1.435   4.821  20.251  0.00  0.00    +0.000 A 
ATOM     12  C   UNL     1       2.454   4.976  19.271  0.00  0.00    +0.000 A 
BRANCH   5  13
ATOM     13  C   UNL     1       5.404   4.945  16.243  0.00  0.00    +0.000 A 
ATOM     14  C   UNL     1       6.692   5.425  16.097  0.00  0.00    +0.000 A 
ATOM     15  C   UNL     1       7.149   4.993  14.832  0.00  0.00    +0.000 A 
ATOM     16  C   UNL     1       6.114   4.282  14.268  0.00  0.00    +0.000 A 
ATOM     17  C   UNL     1       5.947   3.605  12.966  0.00  0.00    +0.000 C 
ATOM     18  O   UNL     1       5.051   4.239  15.123  0.00  0.00    +0.000 OA
ENDBRANCH   5  13
ENDBRANCH   1   3
BRANCH   1  19
ATOM     19  O   UNL     1       2.354   8.381  18.156  0.00  0.00    +0.000 OA
BRANCH  19  20
ATOM     20  C   UNL     1       1.276   9.316  18.181  0.00  0.00    +0.000 C 
BRANCH  20  22
ATOM     21  N   UNL     1       1.171  11.246  19.799  0.00  0.00    +0.000 N 
ATOM     22  C   UNL     1       1.693  10.751  18.588  0.00  0.00    +0.000 C 
ATOM     23  O   UNL     1       2.437  11.406  17.862  0.00  0.00    +0.000 OA
BRANCH  21  24
ATOM     24  C   UNL     1       0.032  10.559  20.468  0.00  0.00    +0.000 C 
ATOM     25  C   UNL     1      -1.307  11.151  19.978  0.00  0.00    +0.000 C 
ATOM     26  C   UNL     1      -1.501  12.451  20.744  0.00  0.00    +0.000 C 
ATOM     27  S   UNL     1      -1.031  12.035  22.412  0.00  0.00    +0.000 S 
ATOM     28  O   UNL     1      -2.221  11.563  23.108  0.00  0.00    +0.000 OA
ATOM     29  O   UNL     1      -0.200  13.080  22.966  0.00  0.00    +0.000 OA
ATOM     30  C   UNL     1      -0.030  10.611  22.004  0.00  0.00    +0.000 C 
ENDBRANCH  21  24
BRANCH  21  32
ATOM     31  C   UNL     1       1.482  13.847  19.730  0.00  0.00    +0.000 C 
ATOM     32  C   UNL     1       1.674  12.501  20.400  0.00  0.00    +0.000 C 
ENDBRANCH  21  32
ENDBRANCH  20  22
ENDBRANCH  19  20
ENDBRANCH   1  19
TORSDOF 7
ENDMDL
MODEL 4
REMARK VINA RESULT:      -8.7      1.524      1.753
REMARK  Name = 
REMARK  9 active torsions:
REMARK  status: ('A' for Active; 'I' for Inactive)
REMARK    1  A    between atoms: C_1  and  C_2
REMARK    2  A    between atoms: C_2  and  N_3
REMARK    3  A    between atoms: N_3  and  C_26
REMARK    4  A    between atoms: C_4  and  C_6
REMARK    5  A    between atoms: C_6  and  O_7
REMARK    6  A    between atoms: O_7  and  C_8
REMARK    7  A    between atoms: C_8  and  C_10
REMARK    8  A    between atoms: C_12  and  C_13
REMARK    9  A    between atoms: C_16  and  C_17
REMARK                            x       y       z     vdW  Elec       q    Type
REMARK                         _______ _______ _______ _____ _____    ______ ____
ROOT
ATOM      1  C   UNL     1       2.514   7.212  18.821  0.00  0.00    +0.000 C 
ATOM      2  O   UNL     1       2.295   7.436  19.999  0.00  0.00    +0.000 OA
ENDROOT
BRANCH   1   3
ATOM      3  C   UNL     1       3.035   5.927  18.290  0.00  0.00    +0.000 A 
ATOM      4  C   UNL     1       4.064   5.972  17.342  0.00  0.00    +0.000 A 
ATOM      5  C   UNL     1       4.487   4.787  16.781  0.00  0.00    +0.000 A 
ATOM      6  N   UNL     1       3.968   3.588  17.138  0.00  0.00    +0.000 NA
ATOM      7  C   UNL     1       2.987   3.542  18.052  0.00  0.00    +0.000 A 
ATOM      8  C   UNL     1       2.475   2.296  18.391  0.00  0.00    +0.000 A 
ATOM      9  C   UNL     1       1.436   2.143  19.312  0.00  0.00    +0.000 A 
ATOM     10  C   UNL     1       0.887   3.262  19.913  0.00  0.00    +0.000 A 
ATOM     11  C   UNL     1       1.391   4.523  19.599  0.00  0.00    +0.000 A 
ATOM     12  C   UNL     1       2.451   4.690  18.666  0.00  0.00    +0.000 A 
BRANCH   5  13
ATOM     13  C   UNL     1       5.491   4.720  15.728  0.00  0.00    +0.000 A 
ATOM     14  C   UNL     1       6.771   5.226  15.614  0.00  0.00    +0.000 A 
ATOM     15  C   UNL     1       7.266   4.813  14.356  0.00  0.00    +0.000 A 
ATOM     16  C   UNL     1       6.257   4.085  13.764  0.00  0.00    +0.000 A 
ATOM     17  C   UNL     1       6.134   3.415  12.455  0.00  0.00    +0.000 C 
ATOM     18  O   UNL     1       5.177   4.016  14.595  0.00  0.00    +0.000 OA
ENDBRANCH   5  13
ENDBRANCH   1   3
BRANCH   1  19
ATOM     19  O   UNL     1       2.266   8.066  17.803  0.00  0.00    +0.000 OA
BRANCH  19  20
ATOM     20  C   UNL     1       1.205   8.981  18.077  0.00  0.00    +0.000 C 
BRANCH  20  22
ATOM     21  N   UNL     1       1.000  11.231  19.196  0.00  0.00    +0.000 N 
ATOM     22  C   UNL     1       1.664  10.454  18.227  0.00  0.00    +0.000 C 
ATOM     23  O   UNL     1       2.560  10.896  17.511  0.00  0.00    +0.000 OA
BRANCH  21  24
ATOM     24  C   UNL     1      -0.277  10.760  19.798  0.00  0.00    +0.000 C 
ATOM     25  C   UNL     1      -0.898  11.875  20.667  0.00  0.00    +0.000 C 
ATOM     26  C   UNL     1      -0.142  11.853  21.987  0.00  0.00    +0.000 C 
ATOM     27  S   UNL     1      -0.002  10.117  22.366  0.00  0.00    +0.000 S 
ATOM     28  O   UNL     1      -1.173   9.733  23.143  0.00  0.00    +0.000 OA
ATOM     29  O   UNL     1       1.335   9.817  22.825  0.00  0.00    +0.000 OA
ATOM     30  C   UNL     1      -0.226   9.514  20.699  0.00  0.00    +0.000 C 
ENDBRANCH  21  24
BRANCH  21  32
ATOM     31  C   UNL     1       1.351  13.777  18.683  0.00  0.00    +0.000 C 
ATOM     32  C   UNL     1       1.500  12.568  19.586  0.00  0.00    +0.000 C 
ENDBRANCH  21  32
ENDBRANCH  20  22
ENDBRANCH  19  20
ENDBRANCH   1  19
TORSDOF 7
ENDMDL
MODEL 5
REMARK VINA RESULT:      -8.3      1.593      2.360
REMARK  Name = 
REMARK  9 active torsions:
REMARK  status: ('A' for Active; 'I' for Inactive)
REMARK    1  A    between atoms: C_1  and  C_2
REMARK    2  A    between atoms: C_2  and  N_3
REMARK    3  A    between atoms: N_3  and  C_26
REMARK    4  A    between atoms: C_4  and  C_6
REMARK    5  A    between atoms: C_6  and  O_7
REMARK    6  A    between atoms: O_7  and  C_8
REMARK    7  A    between atoms: C_8  and  C_10
REMARK    8  A    between atoms: C_12  and  C_13
REMARK    9  A    between atoms: C_16  and  C_17
REMARK                            x       y       z     vdW  Elec       q    Type
REMARK                         _______ _______ _______ _____ _____    ______ ____
ROOT
ATOM      1  C   UNL     1       2.240   7.418  18.888  0.00  0.00    +0.000 C 
ATOM      2  O   UNL     1       1.683   8.033  17.995  0.00  0.00    +0.000 OA
ENDROOT
BRANCH   1   3
ATOM      3  C   UNL     1       3.084   6.214  18.683  0.00  0.00    +0.000 A 
ATOM      4  C   UNL     1       3.984   6.211  17.611  0.00  0.00    +0.000 A 
ATOM      5  C   UNL     1       4.702   5.062  17.364  0.00  0.00    +0.000 A 
ATOM      6  N   UNL     1       4.592   3.956  18.138  0.00  0.00    +0.000 NA
ATOM      7  C   UNL     1       3.736   3.959  19.171  0.00  0.00    +0.000 A 
ATOM      8  C   UNL     1       3.645   2.806  19.940  0.00  0.00    +0.000 A 
ATOM      9  C   UNL     1       2.766   2.699  21.020  0.00  0.00    +0.000 A 
ATOM     10  C   UNL     1       1.950   3.769  21.344  0.00  0.00    +0.000 A 
ATOM     11  C   UNL     1       2.031   4.941  20.595  0.00  0.00    +0.000 A 
ATOM     12  C   UNL     1       2.925   5.063  19.496  0.00  0.00    +0.000 A 
BRANCH   5  13
ATOM     13  C   UNL     1       5.605   4.917  16.230  0.00  0.00    +0.000 A 
ATOM     14  C   UNL     1       6.903   5.331  16.000  0.00  0.00    +0.000 A 
ATOM     15  C   UNL     1       7.258   4.875  14.711  0.00  0.00    +0.000 A 
ATOM     16  C   UNL     1       6.154   4.216  14.217  0.00  0.00    +0.000 A 
ATOM     17  C   UNL     1       5.872   3.546  12.932  0.00  0.00    +0.000 C 
ATOM     18  O   UNL     1       5.147   4.228  15.138  0.00  0.00    +0.000 OA
ENDBRANCH   5  13
ENDBRANCH   1   3
BRANCH   1  19
ATOM     19  O   UNL     1       2.232   7.760  20.196  0.00  0.00    +0.000 OA
BRANCH  19  20
ATOM     20  C   UNL     1       0.926   8.034  20.702  0.00  0.00    +0.000 C 
BRANCH  20  22
ATOM     21  N   UNL     1       0.162  10.372  21.249  0.00  0.00    +0.000 N 
ATOM     22  C   UNL     1       0.866   9.232  21.682  0.00  0.00    +0.000 C 
ATOM     23  O   UNL     1       1.428   9.164  22.773  0.00  0.00    +0.000 OA
BRANCH  21  24
ATOM     24  C   UNL     1      -0.211  10.533  19.817  0.00  0.00    +0.000 C 
ATOM     25  C   UNL     1       1.030  10.914  18.984  0.00  0.00    +0.000 C 
ATOM     26  C   UNL     1       1.250  12.403  19.205  0.00  0.00    +0.000 C 
ATOM     27  S   UNL     1      -0.390  13.092  19.106  0.00  0.00    +0.000 S 
ATOM     28  O   UNL     1      -0.647  13.438  17.714  0.00  0.00    +0.000 OA
ATOM     29  O   UNL     1      -0.588  14.053  20.167  0.00  0.00    +0.000 OA
ATOM     30  C   UNL     1      -1.280  11.585  19.472  0.00  0.00    +0.000 C 
ENDBRANCH  21  24
BRANCH  21  32
ATOM     31  C   UNL     1      -1.388  11.461  23.061  0.00  0.00    +0.000 C 
ATOM     32  C   UNL     1      -0.156  11.480  22.178  0.00  0.00    +0.000 C 
ENDBRANCH  21  32
ENDBRANCH  20  22
ENDBRANCH  19  20
ENDBRANCH   1  19
TORSDOF 7
ENDMDL
MODEL 6
REMARK VINA RESULT:      -8.0      3.033      9.381
REMARK  Name = 
REMARK  9 active torsions:
REMARK  status: ('A' for Active; 'I' for Inactive)
REMARK    1  A    between atoms: C_1  and  C_2
REMARK    2  A    between atoms: C_2  and  N_3
REMARK    3  A    between atoms: N_3  and  C_26
REMARK    4  A    between atoms: C_4  and  C_6
REMARK    5  A    between atoms: C_6  and  O_7
REMARK    6  A    between atoms: O_7  and  C_8
REMARK    7  A    between atoms: C_8  and  C_10
REMARK    8  A    between atoms: C_12  and  C_13
REMARK    9  A    between atoms: C_16  and  C_17
REMARK                            x       y       z     vdW  Elec       q    Type
REMARK                         _______ _______ _______ _____ _____    ______ ____
ROOT
ATOM      1  C   UNL     1       1.838   8.965  17.924  0.00  0.00    +0.000 C 
ATOM      2  O   UNL     1       2.753   9.700  17.596  0.00  0.00    +0.000 OA
ENDROOT
BRANCH   1   3
ATOM      3  C   UNL     1       0.609   9.411  18.629  0.00  0.00    +0.000 A 
ATOM      4  C   UNL     1      -0.478   9.839  17.859  0.00  0.00    +0.000 A 
ATOM      5  C   UNL     1      -1.584  10.338  18.511  0.00  0.00    +0.000 A 
ATOM      6  N   UNL     1      -1.667  10.395  19.861  0.00  0.00    +0.000 NA
ATOM      7  C   UNL     1      -0.629   9.978  20.602  0.00  0.00    +0.000 A 
ATOM      8  C   UNL     1      -0.747  10.056  21.984  0.00  0.00    +0.000 A 
ATOM      9  C   UNL     1       0.285   9.671  22.842  0.00  0.00    +0.000 A 
ATOM     10  C   UNL     1       1.472   9.197  22.311  0.00  0.00    +0.000 A 
ATOM     11  C   UNL     1       1.611   9.098  20.928  0.00  0.00    +0.000 A 
ATOM     12  C   UNL     1       0.565   9.483  20.045  0.00  0.00    +0.000 A 
BRANCH   5  13
ATOM     13  C   UNL     1      -2.738  10.887  17.811  0.00  0.00    +0.000 A 
ATOM     14  C   UNL     1      -3.086  10.953  16.476  0.00  0.00    +0.000 A 
ATOM     15  C   UNL     1      -4.346  11.590  16.411  0.00  0.00    +0.000 A 
ATOM     16  C   UNL     1      -4.696  11.888  17.709  0.00  0.00    +0.000 A 
ATOM     17  C   UNL     1      -5.860  12.571  18.307  0.00  0.00    +0.000 C 
ATOM     18  O   UNL     1      -3.728  11.456  18.568  0.00  0.00    +0.000 OA
ENDBRANCH   5  13
ENDBRANCH   1   3
BRANCH   1  19
ATOM     19  O   UNL     1       1.760   7.644  17.650  0.00  0.00    +0.000 OA
BRANCH  19  20
ATOM     20  C   UNL     1       2.723   6.862  18.355  0.00  0.00    +0.000 C 
BRANCH  20  22
ATOM     21  N   UNL     1       3.932   4.710  17.841  0.00  0.00    +0.000 N 
ATOM     22  C   UNL     1       2.690   5.353  18.006  0.00  0.00    +0.000 C 
ATOM     23  O   UNL     1       1.613   4.774  17.873  0.00  0.00    +0.000 OA
BRANCH  21  24
ATOM     24  C   UNL     1       5.181   5.506  17.685  0.00  0.00    +0.000 C 
ATOM     25  C   UNL     1       4.987   6.593  16.606  0.00  0.00    +0.000 C 
ATOM     26  C   UNL     1       5.140   5.890  15.266  0.00  0.00    +0.000 C 
ATOM     27  S   UNL     1       6.545   4.820  15.505  0.00  0.00    +0.000 S 
ATOM     28  O   UNL     1       7.742   5.566  15.138  0.00  0.00    +0.000 OA
ATOM     29  O   UNL     1       6.273   3.515  14.948  0.00  0.00    +0.000 OA
ATOM     30  C   UNL     1       6.463   4.753  17.289  0.00  0.00    +0.000 C 
ENDBRANCH  21  24
BRANCH  21  32
ATOM     31  C   UNL     1       3.831   2.330  18.932  0.00  0.00    +0.000 C 
ATOM     32  C   UNL     1       4.030   3.238  17.735  0.00  0.00    +0.000 C 
ENDBRANCH  21  32
ENDBRANCH  20  22
ENDBRANCH  19  20
ENDBRANCH   1  19
TORSDOF 7
ENDMDL
MODEL 7
REMARK VINA RESULT:      -8.0      3.222      9.052
REMARK  Name = 
REMARK  9 active torsions:
REMARK  status: ('A' for Active; 'I' for Inactive)
REMARK    1  A    between atoms: C_1  and  C_2
REMARK    2  A    between atoms: C_2  and  N_3
REMARK    3  A    between atoms: N_3  and  C_26
REMARK    4  A    between atoms: C_4  and  C_6
REMARK    5  A    between atoms: C_6  and  O_7
REMARK    6  A    between atoms: O_7  and  C_8
REMARK    7  A    between atoms: C_8  and  C_10
REMARK    8  A    between atoms: C_12  and  C_13
REMARK    9  A    between atoms: C_16  and  C_17
REMARK                            x       y       z     vdW  Elec       q    Type
REMARK                         _______ _______ _______ _____ _____    ______ ____
ROOT
ATOM      1  C   UNL     1       2.119   8.778  18.108  0.00  0.00    +0.000 C 
ATOM      2  O   UNL     1       3.118   9.466  17.990  0.00  0.00    +0.000 OA
ENDROOT
BRANCH   1   3
ATOM      3  C   UNL     1       0.826   9.257  18.661  0.00  0.00    +0.000 A 
ATOM      4  C   UNL     1      -0.193   9.593  17.762  0.00  0.00    +0.000 A 
ATOM      5  C   UNL     1      -1.360  10.123  18.268  0.00  0.00    +0.000 A 
ATOM      6  N   UNL     1      -1.564  10.295  19.596  0.00  0.00    +0.000 NA
ATOM      7  C   UNL     1      -0.592   9.966  20.459  0.00  0.00    +0.000 A 
ATOM      8  C   UNL     1      -0.834  10.161  21.813  0.00  0.00    +0.000 A 
ATOM      9  C   UNL     1       0.123   9.874  22.789  0.00  0.00    +0.000 A 
ATOM     10  C   UNL     1       1.359   9.381  22.408  0.00  0.00    +0.000 A 
ATOM     11  C   UNL     1       1.622   9.166  21.057  0.00  0.00    +0.000 A 
ATOM     12  C   UNL     1       0.655   9.450  20.055  0.00  0.00    +0.000 A 
BRANCH   5  13
ATOM     13  C   UNL     1      -2.454  10.584  17.424  0.00  0.00    +0.000 A 
ATOM     14  C   UNL     1      -3.495  11.469  17.631  0.00  0.00    +0.000 A 
ATOM     15  C   UNL     1      -4.231  11.526  16.427  0.00  0.00    +0.000 A 
ATOM     16  C   UNL     1      -3.608  10.666  15.551  0.00  0.00    +0.000 A 
ATOM     17  C   UNL     1      -3.897  10.257  14.162  0.00  0.00    +0.000 C 
ATOM     18  O   UNL     1      -2.520  10.095  16.146  0.00  0.00    +0.000 OA
ENDBRANCH   5  13
ENDBRANCH   1   3
BRANCH   1  19
ATOM     19  O   UNL     1       2.002   7.493  17.704  0.00  0.00    +0.000 OA
BRANCH  19  20
ATOM     20  C   UNL     1       2.771   6.581  18.487  0.00  0.00    +0.000 C 
BRANCH  20  22
ATOM     21  N   UNL     1       3.944   4.475  17.750  0.00  0.00    +0.000 N 
ATOM     22  C   UNL     1       2.713   5.115  17.989  0.00  0.00    +0.000 C 
ATOM     23  O   UNL     1       1.627   4.569  17.808  0.00  0.00    +0.000 OA
BRANCH  21  24
ATOM     24  C   UNL     1       5.203   5.265  17.664  0.00  0.00    +0.000 C 
ATOM     25  C   UNL     1       5.018   6.457  16.702  0.00  0.00    +0.000 C 
ATOM     26  C   UNL     1       5.150   5.891  15.296  0.00  0.00    +0.000 C 
ATOM     27  S   UNL     1       6.541   4.783  15.413  0.00  0.00    +0.000 S 
ATOM     28  O   UNL     1       7.746   5.544  15.113  0.00  0.00    +0.000 OA
ATOM     29  O   UNL     1       6.245   3.544  14.731  0.00  0.00    +0.000 OA
ATOM     30  C   UNL     1       6.471   4.537  17.183  0.00  0.00    +0.000 C 
ENDBRANCH  21  24
BRANCH  21  32
ATOM     31  C   UNL     1       3.664   1.998  18.558  0.00  0.00    +0.000 C 
ATOM     32  C   UNL     1       4.019   3.019  17.496  0.00  0.00    +0.000 C 
ENDBRANCH  21  32
ENDBRANCH  20  22
ENDBRANCH  19  20
ENDBRANCH   1  19
TORSDOF 7
ENDMDL
MODEL 8
REMARK VINA RESULT:      -8.0      3.107      9.932
REMARK  Name = 
REMARK  9 active torsions:
REMARK  status: ('A' for Active; 'I' for Inactive)
REMARK    1  A    between atoms: C_1  and  C_2
REMARK    2  A    between atoms: C_2  and  N_3
REMARK    3  A    between atoms: N_3  and  C_26
REMARK    4  A    between atoms: C_4  and  C_6
REMARK    5  A    between atoms: C_6  and  O_7
REMARK    6  A    between atoms: O_7  and  C_8
REMARK    7  A    between atoms: C_8  and  C_10
REMARK    8  A    between atoms: C_12  and  C_13
REMARK    9  A    between atoms: C_16  and  C_17
REMARK                            x       y       z     vdW  Elec       q    Type
REMARK                         _______ _______ _______ _____ _____    ______ ____
ROOT
ATOM      1  C   UNL     1       1.235   9.939  18.605  0.00  0.00    +0.000 C 
ATOM      2  O   UNL     1       1.889  10.070  17.586  0.00  0.00    +0.000 OA
ENDROOT
BRANCH   1   3
ATOM      3  C   UNL     1       0.069  10.783  18.974  0.00  0.00    +0.000 A 
ATOM      4  C   UNL     1       0.189  11.630  20.082  0.00  0.00    +0.000 A 
ATOM      5  C   UNL     1      -0.920  12.344  20.480  0.00  0.00    +0.000 A 
ATOM      6  N   UNL     1      -2.100  12.281  19.820  0.00  0.00    +0.000 NA
ATOM      7  C   UNL     1      -2.216  11.476  18.753  0.00  0.00    +0.000 A 
ATOM      8  C   UNL     1      -3.443  11.432  18.104  0.00  0.00    +0.000 A 
ATOM      9  C   UNL     1      -3.672  10.607  17.001  0.00  0.00    +0.000 A 
ATOM     10  C   UNL     1      -2.652   9.800  16.529  0.00  0.00    +0.000 A 
ATOM     11  C   UNL     1      -1.408   9.834  17.155  0.00  0.00    +0.000 A 
ATOM     12  C   UNL     1      -1.162  10.673  18.277  0.00  0.00    +0.000 A 
BRANCH   5  13
ATOM     13  C   UNL     1      -0.935  13.192  21.665  0.00  0.00    +0.000 A 
ATOM     14  C   UNL     1      -1.495  13.047  22.919  0.00  0.00    +0.000 A 
ATOM     15  C   UNL     1      -1.152  14.202  23.658  0.00  0.00    +0.000 A 
ATOM     16  C   UNL     1      -0.410  14.996  22.812  0.00  0.00    +0.000 A 
ATOM     17  C   UNL     1       0.211  16.326  22.966  0.00  0.00    +0.000 C 
ATOM     18  O   UNL     1      -0.265  14.385  21.600  0.00  0.00    +0.000 OA
ENDBRANCH   5  13
ENDBRANCH   1   3
BRANCH   1  19
ATOM     19  O   UNL     1       1.421   8.976  19.536  0.00  0.00    +0.000 OA
BRANCH  19  20
ATOM     20  C   UNL     1       2.133   7.842  19.042  0.00  0.00    +0.000 C 
BRANCH  20  22
ATOM     21  N   UNL     1       2.496   5.372  19.392  0.00  0.00    +0.000 N 
ATOM     22  C   UNL     1       1.993   6.576  19.924  0.00  0.00    +0.000 C 
ATOM     23  O   UNL     1       1.453   6.648  21.026  0.00  0.00    +0.000 OA
BRANCH  21  24
ATOM     24  C   UNL     1       2.835   5.268  17.946  0.00  0.00    +0.000 C 
ATOM     25  C   UNL     1       2.693   3.806  17.472  0.00  0.00    +0.000 C 
ATOM     26  C   UNL     1       3.953   3.087  17.930  0.00  0.00    +0.000 C 
ATOM     27  S   UNL     1       5.259   4.239  17.554  0.00  0.00    +0.000 S 
ATOM     28  O   UNL     1       5.717   3.969  16.198  0.00  0.00    +0.000 OA
ATOM     29  O   UNL     1       6.187   4.313  18.660  0.00  0.00    +0.000 OA
ATOM     30  C   UNL     1       4.243   5.709  17.509  0.00  0.00    +0.000 C 
ENDBRANCH  21  24
BRANCH  21  32
ATOM     31  C   UNL     1       1.421   3.461  20.826  0.00  0.00    +0.000 C 
ATOM     32  C   UNL     1       2.626   4.157  20.226  0.00  0.00    +0.000 C 
ENDBRANCH  21  32
ENDBRANCH  20  22
ENDBRANCH  19  20
ENDBRANCH   1  19
TORSDOF 7
ENDMDL
MODEL 9
REMARK VINA RESULT:      -7.9      1.160      1.409
REMARK  Name = 
REMARK  9 active torsions:
REMARK  status: ('A' for Active; 'I' for Inactive)
REMARK    1  A    between atoms: C_1  and  C_2
REMARK    2  A    between atoms: C_2  and  N_3
REMARK    3  A    between atoms: N_3  and  C_26
REMARK    4  A    between atoms: C_4  and  C_6
REMARK    5  A    between atoms: C_6  and  O_7
REMARK    6  A    between atoms: O_7  and  C_8
REMARK    7  A    between atoms: C_8  and  C_10
REMARK    8  A    between atoms: C_12  and  C_13
REMARK    9  A    between atoms: C_16  and  C_17
REMARK                            x       y       z     vdW  Elec       q    Type
REMARK                         _______ _______ _______ _____ _____    ______ ____
ROOT
ATOM      1  C   UNL     1       2.479   7.509  19.097  0.00  0.00    +0.000 C 
ATOM      2  O   UNL     1       1.941   7.701  20.173  0.00  0.00    +0.000 OA
ENDROOT
BRANCH   1   3
ATOM      3  C   UNL     1       3.029   6.204  18.650  0.00  0.00    +0.000 A 
ATOM      4  C   UNL     1       4.028   6.209  17.669  0.00  0.00    +0.000 A 
ATOM      5  C   UNL     1       4.475   4.998  17.187  0.00  0.00    +0.000 A 
ATOM      6  N   UNL     1       4.009   3.815  17.651  0.00  0.00    +0.000 NA
ATOM      7  C   UNL     1       3.056   3.807  18.597  0.00  0.00    +0.000 A 
ATOM      8  C   UNL     1       2.598   2.575  19.045  0.00  0.00    +0.000 A 
ATOM      9  C   UNL     1       1.592   2.461  20.007  0.00  0.00    +0.000 A 
ATOM     10  C   UNL     1       1.023   3.605  20.538  0.00  0.00    +0.000 A 
ATOM     11  C   UNL     1       1.473   4.853  20.113  0.00  0.00    +0.000 A 
ATOM     12  C   UNL     1       2.499   4.982  19.137  0.00  0.00    +0.000 A 
BRANCH   5  13
ATOM     13  C   UNL     1       5.450   4.883  16.111  0.00  0.00    +0.000 A 
ATOM     14  C   UNL     1       6.745   5.339  15.961  0.00  0.00    +0.000 A 
ATOM     15  C   UNL     1       7.193   4.894  14.697  0.00  0.00    +0.000 A 
ATOM     16  C   UNL     1       6.145   4.199  14.137  0.00  0.00    +0.000 A 
ATOM     17  C   UNL     1       5.964   3.521  12.838  0.00  0.00    +0.000 C 
ATOM     18  O   UNL     1       5.083   4.179  14.995  0.00  0.00    +0.000 OA
ENDBRANCH   5  13
ENDBRANCH   1   3
BRANCH   1  19
ATOM     19  O   UNL     1       2.611   8.428  18.114  0.00  0.00    +0.000 OA
BRANCH  19  20
ATOM     20  C   UNL     1       1.375   9.027  17.728  0.00  0.00    +0.000 C 
BRANCH  20  22
ATOM     21  N   UNL     1      -0.119  10.813  18.694  0.00  0.00    +0.000 N 
ATOM     22  C   UNL     1       1.176  10.468  18.263  0.00  0.00    +0.000 C 
ATOM     23  O   UNL     1       2.122  11.253  18.285  0.00  0.00    +0.000 OA
BRANCH  21  24
ATOM     24  C   UNL     1      -1.286   9.956  18.346  0.00  0.00    +0.000 C 
ATOM     25  C   UNL     1      -1.715  10.211  16.886  0.00  0.00    +0.000 C 
ATOM     26  C   UNL     1      -2.527  11.497  16.900  0.00  0.00    +0.000 C 
ATOM     27  S   UNL     1      -3.570  11.324  18.335  0.00  0.00    +0.000 S 
ATOM     28  O   UNL     1      -4.801  10.668  17.916  0.00  0.00    +0.000 OA
ATOM     29  O   UNL     1      -3.594  12.561  19.081  0.00  0.00    +0.000 OA
ATOM     30  C   UNL     1      -2.565  10.116  19.187  0.00  0.00    +0.000 C 
ENDBRANCH  21  24
BRANCH  21  32
ATOM     31  C   UNL     1      -0.073  12.214  20.908  0.00  0.00    +0.000 C 
ATOM     32  C   UNL     1      -0.377  12.071  19.430  0.00  0.00    +0.000 C 
ENDBRANCH  21  32
ENDBRANCH  20  22
ENDBRANCH  19  20
ENDBRANCH   1  19
TORSDOF 7
ENDMDL
