MODEL 1
REMARK VINA RESULT:      -6.5      0.000      0.000
REMARK  Name = 
REMARK  13 active torsions:
REMARK  status: ('A' for Active; 'I' for Inactive)
REMARK    1  A    between atoms: C_1  and  C_2
REMARK    2  A    between atoms: C_2  and  O_4
REMARK    3  A    between atoms: O_4  and  C_5
REMARK    4  A    between atoms: C_5  and  C_6
REMARK    5  A    between atoms: C_7  and  C_8
REMARK    6  A    between atoms: C_8  and  O_10
REMARK    7  A    between atoms: O_10  and  C_11
REMARK    8  A    between atoms: C_11  and  C_12
REMARK    9  A    between atoms: C_11  and  C_13
REMARK   10  A    between atoms: C_11  and  C_14
REMARK   11  A    between atoms: C_18  and  O_19
REMARK   12  A    between atoms: O_19  and  C_20
REMARK   13  A    between atoms: C_20  and  C_21
REMARK                            x       y       z     vdW  Elec       q    Type
REMARK                         _______ _______ _______ _____ _____    ______ ____
ROOT
ATOM      1  C   UNL     1       4.892   3.936  16.509  0.00  0.00    +0.000 C 
ATOM      2  C   UNL     1       4.516   5.107  17.102  0.00  0.00    +0.000 C 
ATOM      3  N   UNL     1       3.519   5.086  18.038  0.00  0.00    +0.000 N 
ATOM      4  C   UNL     1       2.568   5.916  18.533  0.00  0.00    +0.000 C 
ATOM      5  O   UNL     1       2.284   7.073  18.326  0.00  0.00    +0.000 OA
ATOM      6  C   UNL     1       1.959   4.748  19.373  0.00  0.00    +0.000 C 
ATOM      7  C   UNL     1       3.063   3.888  18.704  0.00  0.00    +0.000 C 
ATOM      8  S   UNL     1       2.503   2.742  17.426  0.00  0.00    +0.000 S 
ATOM      9  C   UNL     1       4.153   2.613  16.690  0.00  0.00    +0.000 C 
ENDROOT
BRANCH   2  10
ATOM     10  C   UNL     1       5.166   6.423  16.726  0.00  0.00    +0.000 C 
ATOM     11  O   UNL     1       5.077   6.932  15.618  0.00  0.00    +0.000 OA
BRANCH  10  12
ATOM     12  O   UNL     1       5.879   6.956  17.747  0.00  0.00    +0.000 OA
BRANCH  12  13
ATOM     13  C   UNL     1       7.333   6.921  17.729  0.00  0.00    +0.000 C 
ATOM     14  C   UNL     1       7.954   8.324  17.823  0.00  0.00    +0.000 C 
ATOM     15  C   UNL     1       7.759   6.134  18.981  0.00  0.00    +0.000 C 
ATOM     16  C   UNL     1       7.814   6.160  16.489  0.00  0.00    +0.000 C 
ENDBRANCH  12  13
ENDBRANCH  10  12
ENDBRANCH   2  10
BRANCH   1  17
ATOM     17  C   UNL     1       6.028   3.750  15.510  0.00  0.00    +0.000 C 
BRANCH  17  18
ATOM     18  O   UNL     1       5.547   4.118  14.201  0.00  0.00    +0.000 OA
BRANCH  18  20
ATOM     19  C   UNL     1       6.348   3.300  12.150  0.00  0.00    +0.000 C 
ATOM     20  C   UNL     1       6.496   4.311  13.246  0.00  0.00    +0.000 C 
ATOM     21  O   UNL     1       7.371   5.163  13.273  0.00  0.00    +0.000 OA
ENDBRANCH  18  20
ENDBRANCH  17  18
ENDBRANCH   1  17
BRANCH   6  22
ATOM     22  O   UNL     1       2.078   4.912  20.811  0.00  0.00    +0.000 OA
BRANCH  22  23
ATOM     23  C   UNL     1       1.910   3.765  21.522  0.00  0.00    +0.000 C 
ATOM     24  C   UNL     1       0.863   2.891  20.900  0.00  0.00    +0.000 C 
ATOM     25  O   UNL     1       2.505   3.487  22.552  0.00  0.00    +0.000 OA
ENDBRANCH  22  23
ENDBRANCH   6  22
TORSDOF 8
ENDMDL
MODEL 2
REMARK VINA RESULT:      -6.5      3.158      4.956
REMARK  Name = 
REMARK  13 active torsions:
REMARK  status: ('A' for Active; 'I' for Inactive)
REMARK    1  A    between atoms: C_1  and  C_2
REMARK    2  A    between atoms: C_2  and  O_4
REMARK    3  A    between atoms: O_4  and  C_5
REMARK    4  A    between atoms: C_5  and  C_6
REMARK    5  A    between atoms: C_7  and  C_8
REMARK    6  A    between atoms: C_8  and  O_10
REMARK    7  A    between atoms: O_10  and  C_11
REMARK    8  A    between atoms: C_11  and  C_12
REMARK    9  A    between atoms: C_11  and  C_13
REMARK   10  A    between atoms: C_11  and  C_14
REMARK   11  A    between atoms: C_18  and  O_19
REMARK   12  A    between atoms: O_19  and  C_20
REMARK   13  A    between atoms: C_20  and  C_21
REMARK                            x       y       z     vdW  Elec       q    Type
REMARK                         _______ _______ _______ _____ _____    ______ ____
ROOT
ATOM      1  C   UNL     1       3.918   2.606  20.228  0.00  0.00    +0.000 C 
ATOM      2  C   UNL     1       3.925   3.753  19.486  0.00  0.00    +0.000 C 
ATOM      3  N   UNL     1       3.035   4.746  19.793  0.00  0.00    +0.000 N 
ATOM      4  C   UNL     1       2.390   5.763  19.173  0.00  0.00    +0.000 C 
ATOM      5  O   UNL     1       2.420   6.204  18.047  0.00  0.00    +0.000 OA
ATOM      6  C   UNL     1       1.550   6.042  20.461  0.00  0.00    +0.000 C 
ATOM      7  C   UNL     1       2.321   4.830  21.046  0.00  0.00    +0.000 C 
ATOM      8  S   UNL     1       1.371   3.305  21.227  0.00  0.00    +0.000 S 
ATOM      9  C   UNL     1       2.860   2.274  21.276  0.00  0.00    +0.000 C 
ENDROOT
BRANCH   2  10
ATOM     10  C   UNL     1       4.880   3.932  18.324  0.00  0.00    +0.000 C 
ATOM     11  O   UNL     1       4.597   3.665  17.166  0.00  0.00    +0.000 OA
BRANCH  10  12
ATOM     12  O   UNL     1       6.090   4.395  18.719  0.00  0.00    +0.000 OA
BRANCH  12  13
ATOM     13  C   UNL     1       6.794   5.390  17.926  0.00  0.00    +0.000 C 
ATOM     14  C   UNL     1       5.865   6.513  17.435  0.00  0.00    +0.000 C 
ATOM     15  C   UNL     1       7.840   6.023  18.862  0.00  0.00    +0.000 C 
ATOM     16  C   UNL     1       7.527   4.703  16.770  0.00  0.00    +0.000 C 
ENDBRANCH  12  13
ENDBRANCH  10  12
ENDBRANCH   2  10
BRANCH   1  17
ATOM     17  C   UNL     1       4.878   1.431  20.087  0.00  0.00    +0.000 C 
BRANCH  17  18
ATOM     18  O   UNL     1       5.395   1.105  21.393  0.00  0.00    +0.000 OA
BRANCH  18  20
ATOM     19  C   UNL     1       6.962  -0.069  22.690  0.00  0.00    +0.000 C 
ATOM     20  C   UNL     1       6.052  -0.081  21.500  0.00  0.00    +0.000 C 
ATOM     21  O   UNL     1       5.951  -1.023  20.729  0.00  0.00    +0.000 OA
ENDBRANCH  18  20
ENDBRANCH  17  18
ENDBRANCH   1  17
BRANCH   6  22
ATOM     22  O   UNL     1       1.821   7.321  21.094  0.00  0.00    +0.000 OA
BRANCH  22  23
ATOM     23  C   UNL     1       0.801   8.216  21.007  0.00  0.00    +0.000 C 
ATOM     24  C   UNL     1       1.071   9.245  19.952  0.00  0.00    +0.000 C 
ATOM     25  O   UNL     1      -0.197   8.209  21.713  0.00  0.00    +0.000 OA
ENDBRANCH  22  23
ENDBRANCH   6  22
TORSDOF 8
ENDMDL
MODEL 3
REMARK VINA RESULT:      -6.4      2.972      4.958
REMARK  Name = 
REMARK  13 active torsions:
REMARK  status: ('A' for Active; 'I' for Inactive)
REMARK    1  A    between atoms: C_1  and  C_2
REMARK    2  A    between atoms: C_2  and  O_4
REMARK    3  A    between atoms: O_4  and  C_5
REMARK    4  A    between atoms: C_5  and  C_6
REMARK    5  A    between atoms: C_7  and  C_8
REMARK    6  A    between atoms: C_8  and  O_10
REMARK    7  A    between atoms: O_10  and  C_11
REMARK    8  A    between atoms: C_11  and  C_12
REMARK    9  A    between atoms: C_11  and  C_13
REMARK   10  A    between atoms: C_11  and  C_14
REMARK   11  A    between atoms: C_18  and  O_19
REMARK   12  A    between atoms: O_19  and  C_20
REMARK   13  A    between atoms: C_20  and  C_21
REMARK                            x       y       z     vdW  Elec       q    Type
REMARK                         _______ _______ _______ _____ _____    ______ ____
ROOT
ATOM      1  C   UNL     1       3.724   2.949  20.264  0.00  0.00    +0.000 C 
ATOM      2  C   UNL     1       3.920   4.087  19.533  0.00  0.00    +0.000 C 
ATOM      3  N   UNL     1       3.060   5.138  19.700  0.00  0.00    +0.000 N 
ATOM      4  C   UNL     1       2.586   6.189  18.988  0.00  0.00    +0.000 C 
ATOM      5  O   UNL     1       2.817   6.616  17.881  0.00  0.00    +0.000 OA
ATOM      6  C   UNL     1       1.578   6.534  20.132  0.00  0.00    +0.000 C 
ATOM      7  C   UNL     1       2.169   5.280  20.828  0.00  0.00    +0.000 C 
ATOM      8  S   UNL     1       1.105   3.821  20.860  0.00  0.00    +0.000 S 
ATOM      9  C   UNL     1       2.498   2.697  21.137  0.00  0.00    +0.000 C 
ENDROOT
BRANCH   2  10
ATOM     10  C   UNL     1       5.052   4.193  18.532  0.00  0.00    +0.000 C 
ATOM     11  O   UNL     1       4.999   3.742  17.398  0.00  0.00    +0.000 OA
BRANCH  10  12
ATOM     12  O   UNL     1       6.136   4.819  19.046  0.00  0.00    +0.000 OA
BRANCH  12  13
ATOM     13  C   UNL     1       7.022   5.587  18.185  0.00  0.00    +0.000 C 
ATOM     14  C   UNL     1       8.123   6.313  18.975  0.00  0.00    +0.000 C 
ATOM     15  C   UNL     1       7.706   4.569  17.256  0.00  0.00    +0.000 C 
ATOM     16  C   UNL     1       6.197   6.552  17.327  0.00  0.00    +0.000 C 
ENDBRANCH  12  13
ENDBRANCH  10  12
ENDBRANCH   2  10
BRANCH   1  17
ATOM     17  C   UNL     1       4.615   1.714  20.271  0.00  0.00    +0.000 C 
BRANCH  17  18
ATOM     18  O   UNL     1       5.228   1.602  21.572  0.00  0.00    +0.000 OA
BRANCH  18  20
ATOM     19  C   UNL     1       5.821  -0.485  20.673  0.00  0.00    +0.000 C 
ATOM     20  C   UNL     1       6.021   0.514  21.770  0.00  0.00    +0.000 C 
ATOM     21  O   UNL     1       6.773   0.345  22.718  0.00  0.00    +0.000 OA
ENDBRANCH  18  20
ENDBRANCH  17  18
ENDBRANCH   1  17
BRANCH   6  22
ATOM     22  O   UNL     1       1.832   7.798  20.800  0.00  0.00    +0.000 OA
BRANCH  22  23
ATOM     23  C   UNL     1       0.859   8.732  20.618  0.00  0.00    +0.000 C 
ATOM     24  C   UNL     1      -0.217   8.602  21.653  0.00  0.00    +0.000 C 
ATOM     25  O   UNL     1       0.840   9.553  19.714  0.00  0.00    +0.000 OA
ENDBRANCH  22  23
ENDBRANCH   6  22
TORSDOF 8
ENDMDL
MODEL 4
REMARK VINA RESULT:      -6.4      3.063      5.036
REMARK  Name = 
REMARK  13 active torsions:
REMARK  status: ('A' for Active; 'I' for Inactive)
REMARK    1  A    between atoms: C_1  and  C_2
REMARK    2  A    between atoms: C_2  and  O_4
REMARK    3  A    between atoms: O_4  and  C_5
REMARK    4  A    between atoms: C_5  and  C_6
REMARK    5  A    between atoms: C_7  and  C_8
REMARK    6  A    between atoms: C_8  and  O_10
REMARK    7  A    between atoms: O_10  and  C_11
REMARK    8  A    between atoms: C_11  and  C_12
REMARK    9  A    between atoms: C_11  and  C_13
REMARK   10  A    between atoms: C_11  and  C_14
REMARK   11  A    between atoms: C_18  and  O_19
REMARK   12  A    between atoms: O_19  and  C_20
REMARK   13  A    between atoms: C_20  and  C_21
REMARK                            x       y       z     vdW  Elec       q    Type
REMARK                         _______ _______ _______ _____ _____    ______ ____
ROOT
ATOM      1  C   UNL     1       3.728   2.913  20.007  0.00  0.00    +0.000 C 
ATOM      2  C   UNL     1       4.029   4.167  19.558  0.00  0.00    +0.000 C 
ATOM      3  N   UNL     1       3.157   5.189  19.813  0.00  0.00    +0.000 N 
ATOM      4  C   UNL     1       2.792   6.377  19.270  0.00  0.00    +0.000 C 
ATOM      5  O   UNL     1       3.181   7.011  18.317  0.00  0.00    +0.000 OA
ATOM      6  C   UNL     1       1.629   6.515  20.305  0.00  0.00    +0.000 C 
ATOM      7  C   UNL     1       2.111   5.129  20.808  0.00  0.00    +0.000 C 
ATOM      8  S   UNL     1       1.051   3.728  20.391  0.00  0.00    +0.000 S 
ATOM      9  C   UNL     1       2.388   2.528  20.628  0.00  0.00    +0.000 C 
ENDROOT
BRANCH   2  10
ATOM     10  C   UNL     1       5.295   4.438  18.770  0.00  0.00    +0.000 C 
ATOM     11  O   UNL     1       6.328   4.857  19.269  0.00  0.00    +0.000 OA
BRANCH  10  12
ATOM     12  O   UNL     1       5.140   4.189  17.448  0.00  0.00    +0.000 OA
BRANCH  12  13
ATOM     13  C   UNL     1       6.063   4.757  16.478  0.00  0.00    +0.000 C 
ATOM     14  C   UNL     1       7.528   4.653  16.932  0.00  0.00    +0.000 C 
ATOM     15  C   UNL     1       5.909   3.918  15.197  0.00  0.00    +0.000 C 
ATOM     16  C   UNL     1       5.658   6.202  16.166  0.00  0.00    +0.000 C 
ENDBRANCH  12  13
ENDBRANCH  10  12
ENDBRANCH   2  10
BRANCH   1  17
ATOM     17  C   UNL     1       4.607   1.674  19.889  0.00  0.00    +0.000 C 
BRANCH  17  18
ATOM     18  O   UNL     1       5.169   1.388  21.186  0.00  0.00    +0.000 OA
BRANCH  18  20
ATOM     19  C   UNL     1       6.603   0.172  22.593  0.00  0.00    +0.000 C 
ATOM     20  C   UNL     1       5.844   0.213  21.302  0.00  0.00    +0.000 C 
ATOM     21  O   UNL     1       5.866  -0.681  20.470  0.00  0.00    +0.000 OA
ENDBRANCH  18  20
ENDBRANCH  17  18
ENDBRANCH   1  17
BRANCH   6  22
ATOM     22  O   UNL     1       1.785   7.611  21.246  0.00  0.00    +0.000 OA
BRANCH  22  23
ATOM     23  C   UNL     1       0.911   8.636  21.060  0.00  0.00    +0.000 C 
ATOM     24  C   UNL     1      -0.373   8.392  21.792  0.00  0.00    +0.000 C 
ATOM     25  O   UNL     1       1.123   9.618  20.364  0.00  0.00    +0.000 OA
ENDBRANCH  22  23
ENDBRANCH   6  22
TORSDOF 8
ENDMDL
MODEL 5
REMARK VINA RESULT:      -6.4      2.852      4.320
REMARK  Name = 
REMARK  13 active torsions:
REMARK  status: ('A' for Active; 'I' for Inactive)
REMARK    1  A    between atoms: C_1  and  C_2
REMARK    2  A    between atoms: C_2  and  O_4
REMARK    3  A    between atoms: O_4  and  C_5
REMARK    4  A    between atoms: C_5  and  C_6
REMARK    5  A    between atoms: C_7  and  C_8
REMARK    6  A    between atoms: C_8  and  O_10
REMARK    7  A    between atoms: O_10  and  C_11
REMARK    8  A    between atoms: C_11  and  C_12
REMARK    9  A    between atoms: C_11  and  C_13
REMARK   10  A    between atoms: C_11  and  C_14
REMARK   11  A    between atoms: C_18  and  O_19
REMARK   12  A    between atoms: O_19  and  C_20
REMARK   13  A    between atoms: C_20  and  C_21
REMARK                            x       y       z     vdW  Elec       q    Type
REMARK                         _______ _______ _______ _____ _____    ______ ____
ROOT
ATOM      1  C   UNL     1       3.789   4.882  19.350  0.00  0.00    +0.000 C 
ATOM      2  C   UNL     1       3.745   6.071  18.680  0.00  0.00    +0.000 C 
ATOM      3  N   UNL     1       2.846   7.023  19.078  0.00  0.00    +0.000 N 
ATOM      4  C   UNL     1       2.157   8.061  18.544  0.00  0.00    +0.000 C 
ATOM      5  O   UNL     1       2.137   8.569  17.447  0.00  0.00    +0.000 OA
ATOM      6  C   UNL     1       1.358   8.241  19.875  0.00  0.00    +0.000 C 
ATOM      7  C   UNL     1       2.175   7.014  20.358  0.00  0.00    +0.000 C 
ATOM      8  S   UNL     1       1.265   5.459  20.478  0.00  0.00    +0.000 S 
ATOM      9  C   UNL     1       2.777   4.463  20.412  0.00  0.00    +0.000 C 
ENDROOT
BRANCH   2  10
ATOM     10  C   UNL     1       4.653   6.343  17.499  0.00  0.00    +0.000 C 
ATOM     11  O   UNL     1       4.489   5.857  16.390  0.00  0.00    +0.000 OA
BRANCH  10  12
ATOM     12  O   UNL     1       5.682   7.164  17.819  0.00  0.00    +0.000 OA
BRANCH  12  13
ATOM     13  C   UNL     1       7.057   6.705  17.696  0.00  0.00    +0.000 C 
ATOM     14  C   UNL     1       7.273   5.827  16.453  0.00  0.00    +0.000 C 
ATOM     15  C   UNL     1       7.918   7.970  17.531  0.00  0.00    +0.000 C 
ATOM     16  C   UNL     1       7.479   5.993  18.985  0.00  0.00    +0.000 C 
ENDBRANCH  12  13
ENDBRANCH  10  12
ENDBRANCH   2  10
BRANCH   1  17
ATOM     17  C   UNL     1       4.768   3.741  19.104  0.00  0.00    +0.000 C 
BRANCH  17  18
ATOM     18  O   UNL     1       4.346   3.023  17.926  0.00  0.00    +0.000 OA
BRANCH  18  20
ATOM     19  C   UNL     1       2.162   2.185  17.711  0.00  0.00    +0.000 C 
ATOM     20  C   UNL     1       3.574   1.923  18.137  0.00  0.00    +0.000 C 
ATOM     21  O   UNL     1       3.953   0.872  18.630  0.00  0.00    +0.000 OA
ENDBRANCH  18  20
ENDBRANCH  17  18
ENDBRANCH   1  17
BRANCH   6  22
ATOM     22  O   UNL     1       1.624   9.485  20.576  0.00  0.00    +0.000 OA
BRANCH  22  23
ATOM     23  C   UNL     1       0.516  10.095  21.075  0.00  0.00    +0.000 C 
ATOM     24  C   UNL     1      -0.168   9.230  22.089  0.00  0.00    +0.000 C 
ATOM     25  O   UNL     1       0.104  11.191  20.725  0.00  0.00    +0.000 OA
ENDBRANCH  22  23
ENDBRANCH   6  22
TORSDOF 8
ENDMDL
MODEL 6
REMARK VINA RESULT:      -6.3      0.688      1.092
REMARK  Name = 
REMARK  13 active torsions:
REMARK  status: ('A' for Active; 'I' for Inactive)
REMARK    1  A    between atoms: C_1  and  C_2
REMARK    2  A    between atoms: C_2  and  O_4
REMARK    3  A    between atoms: O_4  and  C_5
REMARK    4  A    between atoms: C_5  and  C_6
REMARK    5  A    between atoms: C_7  and  C_8
REMARK    6  A    between atoms: C_8  and  O_10
REMARK    7  A    between atoms: O_10  and  C_11
REMARK    8  A    between atoms: C_11  and  C_12
REMARK    9  A    between atoms: C_11  and  C_13
REMARK   10  A    between atoms: C_11  and  C_14
REMARK   11  A    between atoms: C_18  and  O_19
REMARK   12  A    between atoms: O_19  and  C_20
REMARK   13  A    between atoms: C_20  and  C_21
REMARK                            x       y       z     vdW  Elec       q    Type
REMARK                         _______ _______ _______ _____ _____    ______ ____
ROOT
ATOM      1  C   UNL     1       5.099   4.252  16.013  0.00  0.00    +0.000 C 
ATOM      2  C   UNL     1       4.665   5.337  16.721  0.00  0.00    +0.000 C 
ATOM      3  N   UNL     1       3.780   5.148  17.746  0.00  0.00    +0.000 N 
ATOM      4  C   UNL     1       2.803   5.834  18.389  0.00  0.00    +0.000 C 
ATOM      5  O   UNL     1       2.378   6.962  18.293  0.00  0.00    +0.000 OA
ATOM      6  C   UNL     1       2.414   4.557  19.201  0.00  0.00    +0.000 C 
ATOM      7  C   UNL     1       3.526   3.869  18.368  0.00  0.00    +0.000 C 
ATOM      8  S   UNL     1       2.961   2.744  17.074  0.00  0.00    +0.000 S 
ATOM      9  C   UNL     1       4.529   2.846  16.172  0.00  0.00    +0.000 C 
ENDROOT
BRANCH   2  10
ATOM     10  C   UNL     1       5.128   6.738  16.376  0.00  0.00    +0.000 C 
ATOM     11  O   UNL     1       4.925   7.273  15.296  0.00  0.00    +0.000 OA
BRANCH  10  12
ATOM     12  O   UNL     1       5.815   7.316  17.389  0.00  0.00    +0.000 OA
BRANCH  12  13
ATOM     13  C   UNL     1       7.247   7.101  17.526  0.00  0.00    +0.000 C 
ATOM     14  C   UNL     1       7.886   6.568  16.233  0.00  0.00    +0.000 C 
ATOM     15  C   UNL     1       7.862   8.481  17.819  0.00  0.00    +0.000 C 
ATOM     16  C   UNL     1       7.518   6.184  18.723  0.00  0.00    +0.000 C 
ENDBRANCH  12  13
ENDBRANCH  10  12
ENDBRANCH   2  10
BRANCH   1  17
ATOM     17  C   UNL     1       6.136   4.256  14.897  0.00  0.00    +0.000 C 
BRANCH  17  18
ATOM     18  O   UNL     1       5.776   3.242  13.936  0.00  0.00    +0.000 OA
BRANCH  18  20
ATOM     19  C   UNL     1       4.706   3.346  11.848  0.00  0.00    +0.000 C 
ATOM     20  C   UNL     1       5.967   3.560  12.628  0.00  0.00    +0.000 C 
ATOM     21  O   UNL     1       7.017   3.940  12.133  0.00  0.00    +0.000 OA
ENDBRANCH  18  20
ENDBRANCH  17  18
ENDBRANCH   1  17
BRANCH   6  22
ATOM     22  O   UNL     1       2.666   4.649  20.628  0.00  0.00    +0.000 OA
BRANCH  22  23
ATOM     23  C   UNL     1       2.045   3.692  21.369  0.00  0.00    +0.000 C 
ATOM     24  C   UNL     1       0.804   3.201  20.689  0.00  0.00    +0.000 C 
ATOM     25  O   UNL     1       2.424   3.299  22.463  0.00  0.00    +0.000 OA
ENDBRANCH  22  23
ENDBRANCH   6  22
TORSDOF 8
ENDMDL
MODEL 7
REMARK VINA RESULT:      -6.3      2.826      4.785
REMARK  Name = 
REMARK  13 active torsions:
REMARK  status: ('A' for Active; 'I' for Inactive)
REMARK    1  A    between atoms: C_1  and  C_2
REMARK    2  A    between atoms: C_2  and  O_4
REMARK    3  A    between atoms: O_4  and  C_5
REMARK    4  A    between atoms: C_5  and  C_6
REMARK    5  A    between atoms: C_7  and  C_8
REMARK    6  A    between atoms: C_8  and  O_10
REMARK    7  A    between atoms: O_10  and  C_11
REMARK    8  A    between atoms: C_11  and  C_12
REMARK    9  A    between atoms: C_11  and  C_13
REMARK   10  A    between atoms: C_11  and  C_14
REMARK   11  A    between atoms: C_18  and  O_19
REMARK   12  A    between atoms: O_19  and  C_20
REMARK   13  A    between atoms: C_20  and  C_21
REMARK                            x       y       z     vdW  Elec       q    Type
REMARK                         _______ _______ _______ _____ _____    ______ ____
ROOT
ATOM      1  C   UNL     1       3.469   4.994  19.639  0.00  0.00    +0.000 C 
ATOM      2  C   UNL     1       3.541   6.061  18.790  0.00  0.00    +0.000 C 
ATOM      3  N   UNL     1       2.742   7.147  19.021  0.00  0.00    +0.000 N 
ATOM      4  C   UNL     1       2.157   8.149  18.320  0.00  0.00    +0.000 C 
ATOM      5  O   UNL     1       2.185   8.477  17.157  0.00  0.00    +0.000 OA
ATOM      6  C   UNL     1       1.383   8.615  19.596  0.00  0.00    +0.000 C 
ATOM      7  C   UNL     1       2.076   7.406  20.277  0.00  0.00    +0.000 C 
ATOM      8  S   UNL     1       1.017   5.987  20.628  0.00  0.00    +0.000 S 
ATOM      9  C   UNL     1       2.423   4.849  20.741  0.00  0.00    +0.000 C 
ENDROOT
BRANCH   2  10
ATOM     10  C   UNL     1       4.470   6.052  17.593  0.00  0.00    +0.000 C 
ATOM     11  O   UNL     1       4.336   5.304  16.637  0.00  0.00    +0.000 OA
BRANCH  10  12
ATOM     12  O   UNL     1       5.478   6.948  17.717  0.00  0.00    +0.000 OA
BRANCH  12  13
ATOM     13  C   UNL     1       6.864   6.511  17.661  0.00  0.00    +0.000 C 
ATOM     14  C   UNL     1       7.159   5.656  16.417  0.00  0.00    +0.000 C 
ATOM     15  C   UNL     1       7.714   7.790  17.562  0.00  0.00    +0.000 C 
ATOM     16  C   UNL     1       7.228   5.784  18.959  0.00  0.00    +0.000 C 
ENDBRANCH  12  13
ENDBRANCH  10  12
ENDBRANCH   2  10
BRANCH   1  17
ATOM     17  C   UNL     1       4.330   3.738  19.590  0.00  0.00    +0.000 C 
BRANCH  17  18
ATOM     18  O   UNL     1       3.516   2.611  19.973  0.00  0.00    +0.000 OA
BRANCH  18  20
ATOM     19  C   UNL     1       3.500   1.869  17.745  0.00  0.00    +0.000 C 
ATOM     20  C   UNL     1       2.718   2.090  19.003  0.00  0.00    +0.000 C 
ATOM     21  O   UNL     1       1.524   1.854  19.113  0.00  0.00    +0.000 OA
ENDBRANCH  18  20
ENDBRANCH  17  18
ENDBRANCH   1  17
BRANCH   6  22
ATOM     22  O   UNL     1       1.773   9.923  20.094  0.00  0.00    +0.000 OA
BRANCH  22  23
ATOM     23  C   UNL     1       0.753  10.640  20.638  0.00  0.00    +0.000 C 
ATOM     24  C   UNL     1      -0.412  10.722  19.701  0.00  0.00    +0.000 C 
ATOM     25  O   UNL     1       0.786  11.179  21.735  0.00  0.00    +0.000 OA
ENDBRANCH  22  23
ENDBRANCH   6  22
TORSDOF 8
ENDMDL
MODEL 8
REMARK VINA RESULT:      -6.2      2.982      5.165
REMARK  Name = 
REMARK  13 active torsions:
REMARK  status: ('A' for Active; 'I' for Inactive)
REMARK    1  A    between atoms: C_1  and  C_2
REMARK    2  A    between atoms: C_2  and  O_4
REMARK    3  A    between atoms: O_4  and  C_5
REMARK    4  A    between atoms: C_5  and  C_6
REMARK    5  A    between atoms: C_7  and  C_8
REMARK    6  A    between atoms: C_8  and  O_10
REMARK    7  A    between atoms: O_10  and  C_11
REMARK    8  A    between atoms: C_11  and  C_12
REMARK    9  A    between atoms: C_11  and  C_13
REMARK   10  A    between atoms: C_11  and  C_14
REMARK   11  A    between atoms: C_18  and  O_19
REMARK   12  A    between atoms: O_19  and  C_20
REMARK   13  A    between atoms: C_20  and  C_21
REMARK                            x       y       z     vdW  Elec       q    Type
REMARK                         _______ _______ _______ _____ _____    ______ ____
ROOT
ATOM      1  C   UNL     1       3.739   3.104  20.214  0.00  0.00    +0.000 C 
ATOM      2  C   UNL     1       4.048   4.370  19.808  0.00  0.00    +0.000 C 
ATOM      3  N   UNL     1       3.117   5.361  19.959  0.00  0.00    +0.000 N 
ATOM      4  C   UNL     1       2.779   6.539  19.380  0.00  0.00    +0.000 C 
ATOM      5  O   UNL     1       3.257   7.192  18.481  0.00  0.00    +0.000 OA
ATOM      6  C   UNL     1       1.498   6.632  20.271  0.00  0.00    +0.000 C 
ATOM      7  C   UNL     1       1.964   5.260  20.824  0.00  0.00    +0.000 C 
ATOM      8  S   UNL     1       1.009   3.826  20.281  0.00  0.00    +0.000 S 
ATOM      9  C   UNL     1       2.349   2.670  20.672  0.00  0.00    +0.000 C 
ENDROOT
BRANCH   2  10
ATOM     10  C   UNL     1       5.388   4.688  19.175  0.00  0.00    +0.000 C 
ATOM     11  O   UNL     1       6.151   5.543  19.597  0.00  0.00    +0.000 OA
BRANCH  10  12
ATOM     12  O   UNL     1       5.628   3.937  18.074  0.00  0.00    +0.000 OA
BRANCH  12  13
ATOM     13  C   UNL     1       5.127   4.353  16.774  0.00  0.00    +0.000 C 
ATOM     14  C   UNL     1       3.617   4.104  16.620  0.00  0.00    +0.000 C 
ATOM     15  C   UNL     1       5.362   5.872  16.689  0.00  0.00    +0.000 C 
ATOM     16  C   UNL     1       5.939   3.673  15.667  0.00  0.00    +0.000 C 
ENDBRANCH  12  13
ENDBRANCH  10  12
ENDBRANCH   2  10
BRANCH   1  17
ATOM     17  C   UNL     1       4.667   1.896  20.198  0.00  0.00    +0.000 C 
BRANCH  17  18
ATOM     18  O   UNL     1       5.149   1.673  21.539  0.00  0.00    +0.000 OA
BRANCH  18  20
ATOM     19  C   UNL     1       5.751  -0.392  20.597  0.00  0.00    +0.000 C 
ATOM     20  C   UNL     1       5.940   0.582  21.719  0.00  0.00    +0.000 C 
ATOM     21  O   UNL     1       6.685   0.390  22.669  0.00  0.00    +0.000 OA
ENDBRANCH  18  20
ENDBRANCH  17  18
ENDBRANCH   1  17
BRANCH   6  22
ATOM     22  O   UNL     1       1.505   7.726  21.226  0.00  0.00    +0.000 OA
BRANCH  22  23
ATOM     23  C   UNL     1       0.447   8.574  21.113  0.00  0.00    +0.000 C 
ATOM     24  C   UNL     1       0.685   9.599  20.046  0.00  0.00    +0.000 C 
ATOM     25  O   UNL     1      -0.558   8.534  21.807  0.00  0.00    +0.000 OA
ENDBRANCH  22  23
ENDBRANCH   6  22
TORSDOF 8
ENDMDL
MODEL 9
REMARK VINA RESULT:      -6.2      2.881      5.015
REMARK  Name = 
REMARK  13 active torsions:
REMARK  status: ('A' for Active; 'I' for Inactive)
REMARK    1  A    between atoms: C_1  and  C_2
REMARK    2  A    between atoms: C_2  and  O_4
REMARK    3  A    between atoms: O_4  and  C_5
REMARK    4  A    between atoms: C_5  and  C_6
REMARK    5  A    between atoms: C_7  and  C_8
REMARK    6  A    between atoms: C_8  and  O_10
REMARK    7  A    between atoms: O_10  and  C_11
REMARK    8  A    between atoms: C_11  and  C_12
REMARK    9  A    between atoms: C_11  and  C_13
REMARK   10  A    between atoms: C_11  and  C_14
REMARK   11  A    between atoms: C_18  and  O_19
REMARK   12  A    between atoms: O_19  and  C_20
REMARK   13  A    between atoms: C_20  and  C_21
REMARK                            x       y       z     vdW  Elec       q    Type
REMARK                         _______ _______ _______ _____ _____    ______ ____
ROOT
ATOM      1  C   UNL     1       3.825   3.279  20.025  0.00  0.00    +0.000 C 
ATOM      2  C   UNL     1       4.222   4.512  19.590  0.00  0.00    +0.000 C 
ATOM      3  N   UNL     1       3.342   5.557  19.667  0.00  0.00    +0.000 N 
ATOM      4  C   UNL     1       3.096   6.730  19.034  0.00  0.00    +0.000 C 
ATOM      5  O   UNL     1       3.647   7.323  18.136  0.00  0.00    +0.000 OA
ATOM      6  C   UNL     1       1.785   6.924  19.863  0.00  0.00    +0.000 C 
ATOM      7  C   UNL     1       2.150   5.549  20.482  0.00  0.00    +0.000 C 
ATOM      8  S   UNL     1       1.140   4.151  19.946  0.00  0.00    +0.000 S 
ATOM      9  C   UNL     1       2.395   2.939  20.434  0.00  0.00    +0.000 C 
ENDROOT
BRANCH   2  10
ATOM     10  C   UNL     1       5.603   4.733  19.008  0.00  0.00    +0.000 C 
ATOM     11  O   UNL     1       6.530   5.230  19.631  0.00  0.00    +0.000 OA
BRANCH  10  12
ATOM     12  O   UNL     1       5.684   4.345  17.714  0.00  0.00    +0.000 OA
BRANCH  12  13
ATOM     13  C   UNL     1       6.277   5.222  16.716  0.00  0.00    +0.000 C 
ATOM     14  C   UNL     1       7.109   6.350  17.348  0.00  0.00    +0.000 C 
ATOM     15  C   UNL     1       7.231   4.345  15.886  0.00  0.00    +0.000 C 
ATOM     16  C   UNL     1       5.182   5.763  15.790  0.00  0.00    +0.000 C 
ENDBRANCH  12  13
ENDBRANCH  10  12
ENDBRANCH   2  10
BRANCH   1  17
ATOM     17  C   UNL     1       4.684   2.023  20.091  0.00  0.00    +0.000 C 
BRANCH  17  18
ATOM     18  O   UNL     1       4.798   1.620  21.471  0.00  0.00    +0.000 OA
BRANCH  18  20
ATOM     19  C   UNL     1       5.773  -0.421  20.840  0.00  0.00    +0.000 C 
ATOM     20  C   UNL     1       5.808   0.758  21.764  0.00  0.00    +0.000 C 
ATOM     21  O   UNL     1       6.621   0.892  22.666  0.00  0.00    +0.000 OA
ENDBRANCH  18  20
ENDBRANCH  17  18
ENDBRANCH   1  17
BRANCH   6  22
ATOM     22  O   UNL     1       1.813   8.050  20.781  0.00  0.00    +0.000 OA
BRANCH  22  23
ATOM     23  C   UNL     1       0.884   9.008  20.518  0.00  0.00    +0.000 C 
ATOM     24  C   UNL     1       0.904   9.401  19.072  0.00  0.00    +0.000 C 
ATOM     25  O   UNL     1       0.146   9.513  21.351  0.00  0.00    +0.000 OA
ENDBRANCH  22  23
ENDBRANCH   6  22
TORSDOF 8
ENDMDL
