MODEL 1
REMARK VINA RESULT:      -8.8      0.000      0.000
REMARK  Name = 
REMARK  5 active torsions:
REMARK  status: ('A' for Active; 'I' for Inactive)
REMARK    1  A    between atoms: C_1  and  C_2
REMARK    2  A    between atoms: C_5  and  C_6
REMARK    3  A    between atoms: N_8  and  C_9
REMARK    4  A    between atoms: C_14  and  N_15
REMARK    5  A    between atoms: C_22  and  N_23
REMARK                            x       y       z     vdW  Elec       q    Type
REMARK                         _______ _______ _______ _____ _____    ______ ____
ROOT
ATOM      1  C   UNL     1       2.268   7.965  18.450  0.00  0.00    +0.000 C 
ATOM      2  O   UNL     1       2.283   8.458  17.325  0.00  0.00    +0.000 OA
ATOM      3  N   UNL     1       2.957   6.824  18.822  0.00  0.00    +0.000 N 
ATOM      4  H   UNL     1       3.141   6.619  19.791  0.00  0.00    +0.000 HD
ENDROOT
BRANCH   1   9
ATOM      5  C   UNL     1      -0.582  10.483  22.860  0.00  0.00    +0.000 C 
ATOM      6  C   UNL     1       0.066   9.880  21.642  0.00  0.00    +0.000 A 
ATOM      7  C   UNL     1       0.748   8.664  21.818  0.00  0.00    +0.000 A 
ATOM      8  C   UNL     1       1.427   8.058  20.760  0.00  0.00    +0.000 A 
ATOM      9  C   UNL     1       1.456   8.653  19.495  0.00  0.00    +0.000 A 
ATOM     10  C   UNL     1       0.742   9.833  19.282  0.00  0.00    +0.000 A 
ATOM     11  C   UNL     1       0.050  10.450  20.350  0.00  0.00    +0.000 A 
BRANCH  11  12
ATOM     12  N   UNL     1      -0.678  11.702  20.031  0.00  0.00    +0.000 N 
ATOM     13  O   UNL     1      -1.861  11.622  19.694  0.00  0.00    +0.000 OA
ATOM     14  O   UNL     1      -0.058  12.766  20.131  0.00  0.00    +0.000 OA
ENDBRANCH  11  12
ENDBRANCH   1   9
BRANCH   3  15
ATOM     15  C   UNL     1       3.752   6.096  17.905  0.00  0.00    +0.000 A 
ATOM     16  C   UNL     1       4.577   6.823  17.026  0.00  0.00    +0.000 A 
ATOM     17  C   UNL     1       5.328   6.178  16.051  0.00  0.00    +0.000 A 
ATOM     18  C   UNL     1       5.286   4.797  15.967  0.00  0.00    +0.000 A 
ATOM     19  C   UNL     1       4.465   4.070  16.838  0.00  0.00    +0.000 A 
ATOM     20  C   UNL     1       3.649   4.688  17.812  0.00  0.00    +0.000 A 
BRANCH  20  21
ATOM     21  N   UNL     1       2.879   3.883  18.649  0.00  0.00    +0.000 N 
ATOM     22  C   UNL     1       1.419   3.832  18.596  0.00  0.00    +0.000 C 
ATOM     23  C   UNL     1       0.831   3.872  20.005  0.00  0.00    +0.000 C 
ATOM     24  C   UNL     1       1.456   2.820  20.914  0.00  0.00    +0.000 C 
ATOM     25  C   UNL     1       2.979   2.933  20.907  0.00  0.00    +0.000 C 
ATOM     26  C   UNL     1       3.533   2.870  19.483  0.00  0.00    +0.000 C 
ENDBRANCH  20  21
ENDBRANCH   3  15
TORSDOF 4
ENDMDL
MODEL 2
REMARK VINA RESULT:      -8.5      2.255      3.810
REMARK  Name = 
REMARK  5 active torsions:
REMARK  status: ('A' for Active; 'I' for Inactive)
REMARK    1  A    between atoms: C_1  and  C_2
REMARK    2  A    between atoms: C_5  and  C_6
REMARK    3  A    between atoms: N_8  and  C_9
REMARK    4  A    between atoms: C_14  and  N_15
REMARK    5  A    between atoms: C_22  and  N_23
REMARK                            x       y       z     vdW  Elec       q    Type
REMARK                         _______ _______ _______ _____ _____    ______ ____
ROOT
ATOM      1  C   UNL     1       2.014   6.353  19.996  0.00  0.00    +0.000 C 
ATOM      2  O   UNL     1       2.218   5.639  20.973  0.00  0.00    +0.000 OA
ATOM      3  N   UNL     1       2.167   5.956  18.680  0.00  0.00    +0.000 N 
ATOM      4  H   UNL     1       1.731   6.464  17.927  0.00  0.00    +0.000 HD
ENDROOT
BRANCH   1   9
ATOM      5  C   UNL     1       0.111  11.835  20.497  0.00  0.00    +0.000 C 
ATOM      6  C   UNL     1       0.630  10.421  20.492  0.00  0.00    +0.000 A 
ATOM      7  C   UNL     1       1.235   9.968  19.307  0.00  0.00    +0.000 A 
ATOM      8  C   UNL     1       1.695   8.656  19.189  0.00  0.00    +0.000 A 
ATOM      9  C   UNL     1       1.557   7.751  20.246  0.00  0.00    +0.000 A 
ATOM     10  C   UNL     1       1.007   8.193  21.450  0.00  0.00    +0.000 A 
ATOM     11  C   UNL     1       0.542   9.522  21.577  0.00  0.00    +0.000 A 
BRANCH  11  12
ATOM     12  N   UNL     1      -0.028   9.901  22.892  0.00  0.00    +0.000 N 
ATOM     13  O   UNL     1      -1.128  10.458  22.916  0.00  0.00    +0.000 OA
ATOM     14  O   UNL     1       0.629   9.628  23.902  0.00  0.00    +0.000 OA
ENDBRANCH  11  12
ENDBRANCH   1   9
BRANCH   3  15
ATOM     15  C   UNL     1       2.600   4.652  18.336  0.00  0.00    +0.000 A 
ATOM     16  C   UNL     1       1.637   3.627  18.297  0.00  0.00    +0.000 A 
ATOM     17  C   UNL     1       2.002   2.311  18.039  0.00  0.00    +0.000 A 
ATOM     18  C   UNL     1       3.331   2.014  17.787  0.00  0.00    +0.000 A 
ATOM     19  C   UNL     1       4.293   3.031  17.827  0.00  0.00    +0.000 A 
ATOM     20  C   UNL     1       3.972   4.373  18.132  0.00  0.00    +0.000 A 
BRANCH  20  21
ATOM     21  N   UNL     1       4.992   5.321  18.130  0.00  0.00    +0.000 N 
ATOM     22  C   UNL     1       5.195   6.284  17.048  0.00  0.00    +0.000 C 
ATOM     23  C   UNL     1       6.675   6.378  16.686  0.00  0.00    +0.000 C 
ATOM     24  C   UNL     1       7.548   6.628  17.910  0.00  0.00    +0.000 C 
ATOM     25  C   UNL     1       7.271   5.589  18.995  0.00  0.00    +0.000 C 
ATOM     26  C   UNL     1       5.784   5.537  19.345  0.00  0.00    +0.000 C 
ENDBRANCH  20  21
ENDBRANCH   3  15
TORSDOF 4
ENDMDL
MODEL 3
REMARK VINA RESULT:      -8.4      1.647      2.040
REMARK  Name = 
REMARK  5 active torsions:
REMARK  status: ('A' for Active; 'I' for Inactive)
REMARK    1  A    between atoms: C_1  and  C_2
REMARK    2  A    between atoms: C_5  and  C_6
REMARK    3  A    between atoms: N_8  and  C_9
REMARK    4  A    between atoms: C_14  and  N_15
REMARK    5  A    between atoms: C_22  and  N_23
REMARK                            x       y       z     vdW  Elec       q    Type
REMARK                         _______ _______ _______ _____ _____    ______ ____
ROOT
ATOM      1  C   UNL     1       2.647   7.869  17.923  0.00  0.00    +0.000 C 
ATOM      2  O   UNL     1       3.019   8.297  16.834  0.00  0.00    +0.000 OA
ATOM      3  N   UNL     1       3.000   6.640  18.452  0.00  0.00    +0.000 N 
ATOM      4  H   UNL     1       2.909   6.451  19.438  0.00  0.00    +0.000 HD
ENDROOT
BRANCH   1   9
ATOM      5  C   UNL     1      -1.074  11.378  20.708  0.00  0.00    +0.000 C 
ATOM      6  C   UNL     1      -0.054  10.452  20.099  0.00  0.00    +0.000 A 
ATOM      7  C   UNL     1       0.314  10.696  18.765  0.00  0.00    +0.000 A 
ATOM      8  C   UNL     1       1.209   9.858  18.100  0.00  0.00    +0.000 A 
ATOM      9  C   UNL     1       1.758   8.743  18.741  0.00  0.00    +0.000 A 
ATOM     10  C   UNL     1       1.448   8.511  20.082  0.00  0.00    +0.000 A 
ATOM     11  C   UNL     1       0.544   9.358  20.763  0.00  0.00    +0.000 A 
BRANCH  11  12
ATOM     12  N   UNL     1       0.273   9.033  22.184  0.00  0.00    +0.000 N 
ATOM     13  O   UNL     1       1.054   9.454  23.040  0.00  0.00    +0.000 OA
ATOM     14  O   UNL     1      -0.732   8.361  22.437  0.00  0.00    +0.000 OA
ENDBRANCH  11  12
ENDBRANCH   1   9
BRANCH   3  15
ATOM     15  C   UNL     1       3.835   5.735  17.754  0.00  0.00    +0.000 A 
ATOM     16  C   UNL     1       4.750   6.266  16.826  0.00  0.00    +0.000 A 
ATOM     17  C   UNL     1       5.550   5.434  16.051  0.00  0.00    +0.000 A 
ATOM     18  C   UNL     1       5.464   4.062  16.223  0.00  0.00    +0.000 A 
ATOM     19  C   UNL     1       4.553   3.530  17.144  0.00  0.00    +0.000 A 
ATOM     20  C   UNL     1       3.689   4.337  17.916  0.00  0.00    +0.000 A 
BRANCH  20  21
ATOM     21  N   UNL     1       2.829   3.721  18.822  0.00  0.00    +0.000 N 
ATOM     22  C   UNL     1       1.379   3.913  18.814  0.00  0.00    +0.000 C 
ATOM     23  C   UNL     1       0.860   4.129  20.234  0.00  0.00    +0.000 C 
ATOM     24  C   UNL     1       1.337   3.040  21.187  0.00  0.00    +0.000 C 
ATOM     25  C   UNL     1       2.856   2.896  21.130  0.00  0.00    +0.000 C 
ATOM     26  C   UNL     1       3.337   2.661  19.699  0.00  0.00    +0.000 C 
ENDBRANCH  20  21
ENDBRANCH   3  15
TORSDOF 4
ENDMDL
MODEL 4
REMARK VINA RESULT:      -8.4      1.685      2.232
REMARK  Name = 
REMARK  5 active torsions:
REMARK  status: ('A' for Active; 'I' for Inactive)
REMARK    1  A    between atoms: C_1  and  C_2
REMARK    2  A    between atoms: C_5  and  C_6
REMARK    3  A    between atoms: N_8  and  C_9
REMARK    4  A    between atoms: C_14  and  N_15
REMARK    5  A    between atoms: C_22  and  N_23
REMARK                            x       y       z     vdW  Elec       q    Type
REMARK                         _______ _______ _______ _____ _____    ______ ____
ROOT
ATOM      1  C   UNL     1       2.194   8.487  18.219  0.00  0.00    +0.000 C 
ATOM      2  O   UNL     1       2.319   8.872  17.060  0.00  0.00    +0.000 OA
ATOM      3  N   UNL     1       2.766   7.338  18.737  0.00  0.00    +0.000 N 
ATOM      4  H   UNL     1       2.871   7.210  19.731  0.00  0.00    +0.000 HD
ENDROOT
BRANCH   1   9
ATOM      5  C   UNL     1      -1.254  11.919  21.421  0.00  0.00    +0.000 C 
ATOM      6  C   UNL     1      -0.307  10.995  20.701  0.00  0.00    +0.000 A 
ATOM      7  C   UNL     1       0.087  11.368  19.405  0.00  0.00    +0.000 A 
ATOM      8  C   UNL     1       0.917  10.548  18.640  0.00  0.00    +0.000 A 
ATOM      9  C   UNL     1       1.371   9.324  19.140  0.00  0.00    +0.000 A 
ATOM     10  C   UNL     1       1.036   8.956  20.444  0.00  0.00    +0.000 A 
ATOM     11  C   UNL     1       0.198   9.785  21.225  0.00  0.00    +0.000 A 
BRANCH  11  12
ATOM     12  N   UNL     1      -0.106   9.313  22.598  0.00  0.00    +0.000 N 
ATOM     13  O   UNL     1       0.463   9.860  23.545  0.00  0.00    +0.000 OA
ATOM     14  O   UNL     1      -0.926   8.397  22.720  0.00  0.00    +0.000 OA
ENDBRANCH  11  12
ENDBRANCH   1   9
BRANCH   3  15
ATOM     15  C   UNL     1       3.560   6.474  17.944  0.00  0.00    +0.000 A 
ATOM     16  C   UNL     1       4.455   7.057  17.028  0.00  0.00    +0.000 A 
ATOM     17  C   UNL     1       5.212   6.271  16.167  0.00  0.00    +0.000 A 
ATOM     18  C   UNL     1       5.103   4.893  16.238  0.00  0.00    +0.000 A 
ATOM     19  C   UNL     1       4.212   4.309  17.147  0.00  0.00    +0.000 A 
ATOM     20  C   UNL     1       3.390   5.071  18.006  0.00  0.00    +0.000 A 
BRANCH  20  21
ATOM     21  N   UNL     1       2.547   4.403  18.892  0.00  0.00    +0.000 N 
ATOM     22  C   UNL     1       2.709   4.446  20.345  0.00  0.00    +0.000 C 
ATOM     23  C   UNL     1       2.544   3.050  20.942  0.00  0.00    +0.000 C 
ATOM     24  C   UNL     1       1.254   2.381  20.481  0.00  0.00    +0.000 C 
ATOM     25  C   UNL     1       1.156   2.385  18.957  0.00  0.00    +0.000 C 
ATOM     26  C   UNL     1       1.306   3.799  18.396  0.00  0.00    +0.000 C 
ENDBRANCH  20  21
ENDBRANCH   3  15
TORSDOF 4
ENDMDL
MODEL 5
REMARK VINA RESULT:      -8.2      1.942      2.338
REMARK  Name = 
REMARK  5 active torsions:
REMARK  status: ('A' for Active; 'I' for Inactive)
REMARK    1  A    between atoms: C_1  and  C_2
REMARK    2  A    between atoms: C_5  and  C_6
REMARK    3  A    between atoms: N_8  and  C_9
REMARK    4  A    between atoms: C_14  and  N_15
REMARK    5  A    between atoms: C_22  and  N_23
REMARK                            x       y       z     vdW  Elec       q    Type
REMARK                         _______ _______ _______ _____ _____    ______ ____
ROOT
ATOM      1  C   UNL     1       3.447   6.809  18.545  0.00  0.00    +0.000 C 
ATOM      2  O   UNL     1       4.144   6.327  19.433  0.00  0.00    +0.000 OA
ATOM      3  N   UNL     1       3.550   6.496  17.201  0.00  0.00    +0.000 N 
ATOM      4  H   UNL     1       2.798   6.692  16.560  0.00  0.00    +0.000 HD
ENDROOT
BRANCH   1   9
ATOM      5  C   UNL     1      -0.795  10.643  19.649  0.00  0.00    +0.000 C 
ATOM      6  C   UNL     1       0.339   9.667  19.484  0.00  0.00    +0.000 A 
ATOM      7  C   UNL     1       0.931   9.585  18.212  0.00  0.00    +0.000 A 
ATOM      8  C   UNL     1       1.951   8.670  17.949  0.00  0.00    +0.000 A 
ATOM      9  C   UNL     1       2.405   7.799  18.944  0.00  0.00    +0.000 A 
ATOM     10  C   UNL     1       1.869   7.897  20.229  0.00  0.00    +0.000 A 
ATOM     11  C   UNL     1       0.838   8.825  20.502  0.00  0.00    +0.000 A 
BRANCH  11  12
ATOM     12  N   UNL     1       0.328   8.857  21.895  0.00  0.00    +0.000 N 
ATOM     13  O   UNL     1      -0.708   8.240  22.154  0.00  0.00    +0.000 OA
ATOM     14  O   UNL     1       0.978   9.495  22.729  0.00  0.00    +0.000 OA
ENDBRANCH  11  12
ENDBRANCH   1   9
BRANCH   3  15
ATOM     15  C   UNL     1       4.509   5.573  16.718  0.00  0.00    +0.000 A 
ATOM     16  C   UNL     1       5.537   6.062  15.891  0.00  0.00    +0.000 A 
ATOM     17  C   UNL     1       6.470   5.203  15.322  0.00  0.00    +0.000 A 
ATOM     18  C   UNL     1       6.401   3.849  15.604  0.00  0.00    +0.000 A 
ATOM     19  C   UNL     1       5.379   3.358  16.425  0.00  0.00    +0.000 A 
ATOM     20  C   UNL     1       4.384   4.189  16.984  0.00  0.00    +0.000 A 
BRANCH  20  21
ATOM     21  N   UNL     1       3.416   3.615  17.806  0.00  0.00    +0.000 N 
ATOM     22  C   UNL     1       1.995   3.568  17.465  0.00  0.00    +0.000 C 
ATOM     23  C   UNL     1       1.143   3.949  18.674  0.00  0.00    +0.000 C 
ATOM     24  C   UNL     1       1.511   3.137  19.910  0.00  0.00    +0.000 C 
ATOM     25  C   UNL     1       3.009   3.229  20.193  0.00  0.00    +0.000 C 
ATOM     26  C   UNL     1       3.830   2.823  18.969  0.00  0.00    +0.000 C 
ENDBRANCH  20  21
ENDBRANCH   3  15
TORSDOF 4
ENDMDL
MODEL 6
REMARK VINA RESULT:      -8.1      1.873      3.814
REMARK  Name = 
REMARK  5 active torsions:
REMARK  status: ('A' for Active; 'I' for Inactive)
REMARK    1  A    between atoms: C_1  and  C_2
REMARK    2  A    between atoms: C_5  and  C_6
REMARK    3  A    between atoms: N_8  and  C_9
REMARK    4  A    between atoms: C_14  and  N_15
REMARK    5  A    between atoms: C_22  and  N_23
REMARK                            x       y       z     vdW  Elec       q    Type
REMARK                         _______ _______ _______ _____ _____    ______ ____
ROOT
ATOM      1  C   UNL     1       2.204   6.561  19.380  0.00  0.00    +0.000 C 
ATOM      2  O   UNL     1       2.527   6.099  20.470  0.00  0.00    +0.000 OA
ATOM      3  N   UNL     1       2.140   5.839  18.201  0.00  0.00    +0.000 N 
ATOM      4  H   UNL     1       1.614   6.176  17.410  0.00  0.00    +0.000 HD
ENDROOT
BRANCH   1   9
ATOM      5  C   UNL     1       0.751  12.157  18.673  0.00  0.00    +0.000 C 
ATOM      6  C   UNL     1       1.134  10.733  18.980  0.00  0.00    +0.000 A 
ATOM      7  C   UNL     1       1.872  10.045  18.003  0.00  0.00    +0.000 A 
ATOM      8  C   UNL     1       2.225   8.706  18.174  0.00  0.00    +0.000 A 
ATOM      9  C   UNL     1       1.842   8.008  19.323  0.00  0.00    +0.000 A 
ATOM     10  C   UNL     1       1.153   8.683  20.331  0.00  0.00    +0.000 A 
ATOM     11  C   UNL     1       0.796  10.041  20.165  0.00  0.00    +0.000 A 
BRANCH  11  12
ATOM     12  N   UNL     1       0.065  10.676  21.287  0.00  0.00    +0.000 N 
ATOM     13  O   UNL     1      -1.098  11.040  21.098  0.00  0.00    +0.000 OA
ATOM     14  O   UNL     1       0.660  10.798  22.363  0.00  0.00    +0.000 OA
ENDBRANCH  11  12
ENDBRANCH   1   9
BRANCH   3  15
ATOM     15  C   UNL     1       2.468   4.463  18.147  0.00  0.00    +0.000 A 
ATOM     16  C   UNL     1       1.448   3.532  18.420  0.00  0.00    +0.000 A 
ATOM     17  C   UNL     1       1.714   2.168  18.457  0.00  0.00    +0.000 A 
ATOM     18  C   UNL     1       2.998   1.722  18.190  0.00  0.00    +0.000 A 
ATOM     19  C   UNL     1       4.015   2.645  17.920  0.00  0.00    +0.000 A 
ATOM     20  C   UNL     1       3.799   4.041  17.919  0.00  0.00    +0.000 A 
BRANCH  20  21
ATOM     21  N   UNL     1       4.867   4.884  17.621  0.00  0.00    +0.000 N 
ATOM     22  C   UNL     1       5.083   5.474  16.300  0.00  0.00    +0.000 C 
ATOM     23  C   UNL     1       6.553   5.367  15.901  0.00  0.00    +0.000 C 
ATOM     24  C   UNL     1       7.479   5.911  16.983  0.00  0.00    +0.000 C 
ATOM     25  C   UNL     1       7.185   5.254  18.329  0.00  0.00    +0.000 C 
ATOM     26  C   UNL     1       5.711   5.397  18.705  0.00  0.00    +0.000 C 
ENDBRANCH  20  21
ENDBRANCH   3  15
TORSDOF 4
ENDMDL
MODEL 7
REMARK VINA RESULT:      -8.1      1.414      1.613
REMARK  Name = 
REMARK  5 active torsions:
REMARK  status: ('A' for Active; 'I' for Inactive)
REMARK    1  A    between atoms: C_1  and  C_2
REMARK    2  A    between atoms: C_5  and  C_6
REMARK    3  A    between atoms: N_8  and  C_9
REMARK    4  A    between atoms: C_14  and  N_15
REMARK    5  A    between atoms: C_22  and  N_23
REMARK                            x       y       z     vdW  Elec       q    Type
REMARK                         _______ _______ _______ _____ _____    ______ ____
ROOT
ATOM      1  C   UNL     1       3.376   6.512  18.884  0.00  0.00    +0.000 C 
ATOM      2  O   UNL     1       4.154   5.974  19.666  0.00  0.00    +0.000 OA
ATOM      3  N   UNL     1       3.368   6.315  17.514  0.00  0.00    +0.000 N 
ATOM      4  H   UNL     1       2.559   6.545  16.959  0.00  0.00    +0.000 HD
ENDROOT
BRANCH   1   9
ATOM      5  C   UNL     1      -0.423  10.033  21.548  0.00  0.00    +0.000 C 
ATOM      6  C   UNL     1       0.505   9.156  20.749  0.00  0.00    +0.000 A 
ATOM      7  C   UNL     1       0.963   7.980  21.368  0.00  0.00    +0.000 A 
ATOM      8  C   UNL     1       1.869   7.135  20.728  0.00  0.00    +0.000 A 
ATOM      9  C   UNL     1       2.356   7.441  19.453  0.00  0.00    +0.000 A 
ATOM     10  C   UNL     1       1.876   8.575  18.797  0.00  0.00    +0.000 A 
ATOM     11  C   UNL     1       0.955   9.434  19.440  0.00  0.00    +0.000 A 
BRANCH  11  12
ATOM     12  N   UNL     1       0.502  10.616  18.667  0.00  0.00    +0.000 N 
ATOM     13  O   UNL     1      -0.585  10.557  18.089  0.00  0.00    +0.000 OA
ATOM     14  O   UNL     1       1.239  11.608  18.652  0.00  0.00    +0.000 OA
ENDBRANCH  11  12
ENDBRANCH   1   9
BRANCH   3  15
ATOM     15  C   UNL     1       4.296   5.457  16.876  0.00  0.00    +0.000 A 
ATOM     16  C   UNL     1       5.248   6.040  16.019  0.00  0.00    +0.000 A 
ATOM     17  C   UNL     1       6.143   5.253  15.302  0.00  0.00    +0.000 A 
ATOM     18  C   UNL     1       6.113   3.878  15.463  0.00  0.00    +0.000 A 
ATOM     19  C   UNL     1       5.166   3.295  16.313  0.00  0.00    +0.000 A 
ATOM     20  C   UNL     1       4.209   4.053  17.023  0.00  0.00    +0.000 A 
BRANCH  20  21
ATOM     21  N   UNL     1       3.317   3.388  17.862  0.00  0.00    +0.000 N 
ATOM     22  C   UNL     1       1.870   3.371  17.647  0.00  0.00    +0.000 C 
ATOM     23  C   UNL     1       1.132   3.614  18.962  0.00  0.00    +0.000 C 
ATOM     24  C   UNL     1       1.607   2.676  20.065  0.00  0.00    +0.000 C 
ATOM     25  C   UNL     1       3.125   2.745  20.220  0.00  0.00    +0.000 C 
ATOM     26  C   UNL     1       3.830   2.478  18.890  0.00  0.00    +0.000 C 
ENDBRANCH  20  21
ENDBRANCH   3  15
TORSDOF 4
ENDMDL
MODEL 8
REMARK VINA RESULT:      -8.1      1.879      3.902
REMARK  Name = 
REMARK  5 active torsions:
REMARK  status: ('A' for Active; 'I' for Inactive)
REMARK    1  A    between atoms: C_1  and  C_2
REMARK    2  A    between atoms: C_5  and  C_6
REMARK    3  A    between atoms: N_8  and  C_9
REMARK    4  A    between atoms: C_14  and  N_15
REMARK    5  A    between atoms: C_22  and  N_23
REMARK                            x       y       z     vdW  Elec       q    Type
REMARK                         _______ _______ _______ _____ _____    ______ ____
ROOT
ATOM      1  C   UNL     1       2.326   6.415  19.295  0.00  0.00    +0.000 C 
ATOM      2  O   UNL     1       2.687   5.973  20.382  0.00  0.00    +0.000 OA
ATOM      3  N   UNL     1       2.188   5.662  18.142  0.00  0.00    +0.000 N 
ATOM      4  H   UNL     1       1.635   5.992  17.367  0.00  0.00    +0.000 HD
ENDROOT
BRANCH   1   9
ATOM      5  C   UNL     1       0.985  12.026  18.496  0.00  0.00    +0.000 C 
ATOM      6  C   UNL     1       1.349  10.602  18.826  0.00  0.00    +0.000 A 
ATOM      7  C   UNL     1       1.996   9.860  17.823  0.00  0.00    +0.000 A 
ATOM      8  C   UNL     1       2.322   8.517  18.017  0.00  0.00    +0.000 A 
ATOM      9  C   UNL     1       2.002   7.869  19.213  0.00  0.00    +0.000 A 
ATOM     10  C   UNL     1       1.407   8.598  20.243  0.00  0.00    +0.000 A 
ATOM     11  C   UNL     1       1.077   9.960  20.054  0.00  0.00    +0.000 A 
BRANCH  11  12
ATOM     12  N   UNL     1       0.445  10.653  21.202  0.00  0.00    +0.000 N 
ATOM     13  O   UNL     1      -0.627  10.220  21.631  0.00  0.00    +0.000 OA
ATOM     14  O   UNL     1       1.036  11.629  21.678  0.00  0.00    +0.000 OA
ENDBRANCH  11  12
ENDBRANCH   1   9
BRANCH   3  15
ATOM     15  C   UNL     1       2.474   4.276  18.113  0.00  0.00    +0.000 A 
ATOM     16  C   UNL     1       1.437   3.382  18.436  0.00  0.00    +0.000 A 
ATOM     17  C   UNL     1       1.665   2.012  18.499  0.00  0.00    +0.000 A 
ATOM     18  C   UNL     1       2.927   1.523  18.208  0.00  0.00    +0.000 A 
ATOM     19  C   UNL     1       3.963   2.409  17.889  0.00  0.00    +0.000 A 
ATOM     20  C   UNL     1       3.786   3.810  17.859  0.00  0.00    +0.000 A 
BRANCH  20  21
ATOM     21  N   UNL     1       4.869   4.614  17.512  0.00  0.00    +0.000 N 
ATOM     22  C   UNL     1       6.122   4.648  18.266  0.00  0.00    +0.000 C 
ATOM     23  C   UNL     1       6.591   6.088  18.459  0.00  0.00    +0.000 C 
ATOM     24  C   UNL     1       6.639   6.854  17.142  0.00  0.00    +0.000 C 
ATOM     25  C   UNL     1       5.300   6.763  16.413  0.00  0.00    +0.000 C 
ATOM     26  C   UNL     1       4.872   5.309  16.220  0.00  0.00    +0.000 C 
ENDBRANCH  20  21
ENDBRANCH   3  15
TORSDOF 4
ENDMDL
MODEL 9
REMARK VINA RESULT:      -8.1      0.885      1.357
REMARK  Name = 
REMARK  5 active torsions:
REMARK  status: ('A' for Active; 'I' for Inactive)
REMARK    1  A    between atoms: C_1  and  C_2
REMARK    2  A    between atoms: C_5  and  C_6
REMARK    3  A    between atoms: N_8  and  C_9
REMARK    4  A    between atoms: C_14  and  N_15
REMARK    5  A    between atoms: C_22  and  N_23
REMARK                            x       y       z     vdW  Elec       q    Type
REMARK                         _______ _______ _______ _____ _____    ______ ____
ROOT
ATOM      1  C   UNL     1       1.888   8.531  18.535  0.00  0.00    +0.000 C 
ATOM      2  O   UNL     1       1.908   8.909  17.367  0.00  0.00    +0.000 OA
ATOM      3  N   UNL     1       2.578   7.436  19.023  0.00  0.00    +0.000 N 
ATOM      4  H   UNL     1       2.758   7.329  20.009  0.00  0.00    +0.000 HD
ENDROOT
BRANCH   1   9
ATOM      5  C   UNL     1      -0.973  11.504  22.645  0.00  0.00    +0.000 C 
ATOM      6  C   UNL     1      -0.328  10.765  21.502  0.00  0.00    +0.000 A 
ATOM      7  C   UNL     1       0.443   9.636  21.827  0.00  0.00    +0.000 A 
ATOM      8  C   UNL     1       1.125   8.921  20.841  0.00  0.00    +0.000 A 
ATOM      9  C   UNL     1       1.067   9.317  19.502  0.00  0.00    +0.000 A 
ATOM     10  C   UNL     1       0.266  10.403  19.148  0.00  0.00    +0.000 A 
ATOM     11  C   UNL     1      -0.429  11.130  20.142  0.00  0.00    +0.000 A 
BRANCH  11  12
ATOM     12  N   UNL     1      -1.254  12.270  19.673  0.00  0.00    +0.000 N 
ATOM     13  O   UNL     1      -0.737  13.388  19.630  0.00  0.00    +0.000 OA
ATOM     14  O   UNL     1      -2.420  12.035  19.339  0.00  0.00    +0.000 OA
ENDBRANCH  11  12
ENDBRANCH   1   9
BRANCH   3  15
ATOM     15  C   UNL     1       3.381   6.622  18.187  0.00  0.00    +0.000 A 
ATOM     16  C   UNL     1       4.249   7.262  17.282  0.00  0.00    +0.000 A 
ATOM     17  C   UNL     1       5.012   6.529  16.381  0.00  0.00    +0.000 A 
ATOM     18  C   UNL     1       4.938   5.147  16.400  0.00  0.00    +0.000 A 
ATOM     19  C   UNL     1       4.074   4.506  17.297  0.00  0.00    +0.000 A 
ATOM     20  C   UNL     1       3.246   5.214  18.197  0.00  0.00    +0.000 A 
BRANCH  20  21
ATOM     21  N   UNL     1       2.433   4.492  19.067  0.00  0.00    +0.000 N 
ATOM     22  C   UNL     1       2.513   4.604  20.523  0.00  0.00    +0.000 C 
ATOM     23  C   UNL     1       2.464   3.221  21.169  0.00  0.00    +0.000 C 
ATOM     24  C   UNL     1       1.279   2.401  20.674  0.00  0.00    +0.000 C 
ATOM     25  C   UNL     1       1.261   2.340  19.148  0.00  0.00    +0.000 C 
ATOM     26  C   UNL     1       1.290   3.741  18.537  0.00  0.00    +0.000 C 
ENDBRANCH  20  21
ENDBRANCH   3  15
TORSDOF 4
ENDMDL
