MODEL 1
REMARK VINA RESULT:      -8.1      0.000      0.000
REMARK  Name = 
REMARK  6 active torsions:
REMARK  status: ('A' for Active; 'I' for Inactive)
REMARK    1  A    between atoms: C_2  and  C_3
REMARK    2  A    between atoms: C_3  and  N_4
REMARK    3  A    between atoms: C_5  and  C_7
REMARK    4  A    between atoms: C_12  and  S_13
REMARK    5  A    between atoms: S_13  and  N_16
REMARK    6  A    between atoms: C_28  and  C_29
REMARK                            x       y       z     vdW  Elec       q    Type
REMARK                         _______ _______ _______ _____ _____    ______ ____
ROOT
ATOM      1  C   UNL     1       0.532  10.748  20.974  0.00  0.00    +0.000 A 
ATOM      2  O   UNL     1       1.059  10.468  19.738  0.00  0.00    +0.000 OA
ATOM      3  C   UNL     1       1.376   9.146  19.720  0.00  0.00    +0.000 A 
ATOM      4  C   UNL     1       1.912   8.450  18.635  0.00  0.00    +0.000 A 
ATOM      5  C   UNL     1       2.151   7.079  18.821  0.00  0.00    +0.000 A 
ATOM      6  C   UNL     1       1.898   6.463  20.055  0.00  0.00    +0.000 A 
ATOM      7  C   UNL     1       1.341   7.187  21.120  0.00  0.00    +0.000 A 
ATOM      8  C   UNL     1       1.074   8.557  20.940  0.00  0.00    +0.000 A 
ATOM      9  C   UNL     1       0.499   9.588  21.744  0.00  0.00    +0.000 A 
ATOM     10  C   UNL     1      -0.042   9.439  23.119  0.00  0.00    +0.000 C 
ENDROOT
BRANCH   1  12
ATOM     11  N   UNL     1      -1.242  12.325  21.243  0.00  0.00    +0.000 N 
ATOM     12  C   UNL     1       0.119  12.104  21.285  0.00  0.00    +0.000 C 
ATOM     13  O   UNL     1       0.915  13.002  21.562  0.00  0.00    +0.000 OA
ATOM     14  H   UNL     1      -1.845  11.512  21.193  0.00  0.00    +0.000 HD
BRANCH  11  15
ATOM     15  C   UNL     1      -1.794  13.607  21.595  0.00  0.00    +0.000 C 
BRANCH  15  17
ATOM     16  C   UNL     1      -2.953  12.252  23.354  0.00  0.00    +0.000 C 
ATOM     17  C   UNL     1      -2.692  13.432  22.776  0.00  0.00    +0.000 C 
ENDBRANCH  15  17
ENDBRANCH  11  15
ENDBRANCH   1  12
BRANCH   6  18
ATOM     18  S   UNL     1       2.112   4.687  20.226  0.00  0.00    +0.000 S 
ATOM     19  O   UNL     1       2.504   4.438  21.594  0.00  0.00    +0.000 OA
ATOM     20  O   UNL     1       0.934   4.067  19.663  0.00  0.00    +0.000 OA
BRANCH  18  21
ATOM     21  N   UNL     1       3.448   4.300  19.215  0.00  0.00    +0.000 NA
ATOM     22  C   UNL     1       3.092   3.797  17.864  0.00  0.00    +0.000 C 
ATOM     23  C   UNL     1       4.311   3.362  17.066  0.00  0.00    +0.000 C 
ATOM     24  C   UNL     1       5.369   4.454  17.036  0.00  0.00    +0.000 C 
ATOM     25  C   UNL     1       5.775   4.802  18.460  0.00  0.00    +0.000 C 
ATOM     26  C   UNL     1       4.584   5.252  19.289  0.00  0.00    +0.000 C 
ATOM     27  O   UNL     1       4.847   5.609  16.360  0.00  0.00    +0.000 OA
ATOM     28  C   UNL     1       5.891   6.030  15.484  0.00  0.00    +0.000 C 
ATOM     29  C   UNL     1       6.611   4.753  15.146  0.00  0.00    +0.000 C 
ATOM     30  O   UNL     1       6.535   3.981  16.343  0.00  0.00    +0.000 OA
ENDBRANCH  18  21
ENDBRANCH   6  18
TORSDOF 5
ENDMDL
MODEL 2
REMARK VINA RESULT:      -7.9      1.193      1.506
REMARK  Name = 
REMARK  6 active torsions:
REMARK  status: ('A' for Active; 'I' for Inactive)
REMARK    1  A    between atoms: C_2  and  C_3
REMARK    2  A    between atoms: C_3  and  N_4
REMARK    3  A    between atoms: C_5  and  C_7
REMARK    4  A    between atoms: C_12  and  S_13
REMARK    5  A    between atoms: S_13  and  N_16
REMARK    6  A    between atoms: C_28  and  C_29
REMARK                            x       y       z     vdW  Elec       q    Type
REMARK                         _______ _______ _______ _____ _____    ______ ____
ROOT
ATOM      1  C   UNL     1       0.164  11.058  21.284  0.00  0.00    +0.000 A 
ATOM      2  O   UNL     1       0.522  11.082  19.959  0.00  0.00    +0.000 OA
ATOM      3  C   UNL     1       1.065   9.872  19.661  0.00  0.00    +0.000 A 
ATOM      4  C   UNL     1       1.531   9.473  18.408  0.00  0.00    +0.000 A 
ATOM      5  C   UNL     1       2.042   8.168  18.310  0.00  0.00    +0.000 A 
ATOM      6  C   UNL     1       2.111   7.335  19.436  0.00  0.00    +0.000 A 
ATOM      7  C   UNL     1       1.617   7.760  20.678  0.00  0.00    +0.000 A 
ATOM      8  C   UNL     1       1.081   9.057  20.785  0.00  0.00    +0.000 A 
ATOM      9  C   UNL     1       0.469   9.814  21.830  0.00  0.00    +0.000 A 
ATOM     10  C   UNL     1       0.199   9.352  23.215  0.00  0.00    +0.000 C 
ENDROOT
BRANCH   1  12
ATOM     11  N   UNL     1      -1.770  12.126  22.192  0.00  0.00    +0.000 N 
ATOM     12  C   UNL     1      -0.430  12.238  21.885  0.00  0.00    +0.000 C 
ATOM     13  O   UNL     1       0.204  13.270  22.107  0.00  0.00    +0.000 OA
ATOM     14  H   UNL     1      -2.181  11.200  22.157  0.00  0.00    +0.000 HD
BRANCH  11  15
ATOM     15  C   UNL     1      -2.470  13.196  22.853  0.00  0.00    +0.000 C 
BRANCH  15  17
ATOM     16  C   UNL     1      -4.811  12.850  23.672  0.00  0.00    +0.000 C 
ATOM     17  C   UNL     1      -3.497  12.605  23.762  0.00  0.00    +0.000 C 
ENDBRANCH  15  17
ENDBRANCH  11  15
ENDBRANCH   1  12
BRANCH   6  18
ATOM     18  S   UNL     1       2.669   5.636  19.255  0.00  0.00    +0.000 S 
ATOM     19  O   UNL     1       2.994   5.154  20.577  0.00  0.00    +0.000 OA
ATOM     20  O   UNL     1       1.690   4.959  18.434  0.00  0.00    +0.000 OA
BRANCH  18  21
ATOM     21  N   UNL     1       4.131   5.741  18.356  0.00  0.00    +0.000 NA
ATOM     22  C   UNL     1       4.931   4.490  18.305  0.00  0.00    +0.000 C 
ATOM     23  C   UNL     1       6.264   4.681  17.599  0.00  0.00    +0.000 C 
ATOM     24  C   UNL     1       6.078   5.326  16.235  0.00  0.00    +0.000 C 
ATOM     25  C   UNL     1       5.380   6.667  16.402  0.00  0.00    +0.000 C 
ATOM     26  C   UNL     1       4.037   6.518  17.096  0.00  0.00    +0.000 C 
ATOM     27  O   UNL     1       5.308   4.454  15.393  0.00  0.00    +0.000 OA
ATOM     28  C   UNL     1       5.984   4.457  14.137  0.00  0.00    +0.000 C 
ATOM     29  C   UNL     1       7.424   4.688  14.507  0.00  0.00    +0.000 C 
ATOM     30  O   UNL     1       7.360   5.563  15.631  0.00  0.00    +0.000 OA
ENDBRANCH  18  21
ENDBRANCH   6  18
TORSDOF 5
ENDMDL
MODEL 3
REMARK VINA RESULT:      -7.8      1.161      1.645
REMARK  Name = 
REMARK  6 active torsions:
REMARK  status: ('A' for Active; 'I' for Inactive)
REMARK    1  A    between atoms: C_2  and  C_3
REMARK    2  A    between atoms: C_3  and  N_4
REMARK    3  A    between atoms: C_5  and  C_7
REMARK    4  A    between atoms: C_12  and  S_13
REMARK    5  A    between atoms: S_13  and  N_16
REMARK    6  A    between atoms: C_28  and  C_29
REMARK                            x       y       z     vdW  Elec       q    Type
REMARK                         _______ _______ _______ _____ _____    ______ ____
ROOT
ATOM      1  C   UNL     1       0.532  10.770  20.827  0.00  0.00    +0.000 A 
ATOM      2  O   UNL     1       1.071  10.459  19.604  0.00  0.00    +0.000 OA
ATOM      3  C   UNL     1       1.390   9.138  19.623  0.00  0.00    +0.000 A 
ATOM      4  C   UNL     1       1.937   8.415  18.562  0.00  0.00    +0.000 A 
ATOM      5  C   UNL     1       2.177   7.049  18.786  0.00  0.00    +0.000 A 
ATOM      6  C   UNL     1       1.913   6.465  20.032  0.00  0.00    +0.000 A 
ATOM      7  C   UNL     1       1.345   7.216  21.074  0.00  0.00    +0.000 A 
ATOM      8  C   UNL     1       1.078   8.580  20.856  0.00  0.00    +0.000 A 
ATOM      9  C   UNL     1       0.493   9.631  21.626  0.00  0.00    +0.000 A 
ATOM     10  C   UNL     1      -0.060   9.517  23.000  0.00  0.00    +0.000 C 
ENDROOT
BRANCH   1  12
ATOM     11  N   UNL     1      -0.119  12.907  19.981  0.00  0.00    +0.000 N 
ATOM     12  C   UNL     1       0.114  12.133  21.099  0.00  0.00    +0.000 C 
ATOM     13  O   UNL     1      -0.022  12.579  22.238  0.00  0.00    +0.000 OA
ATOM     14  H   UNL     1      -0.170  12.432  19.088  0.00  0.00    +0.000 HD
BRANCH  11  15
ATOM     15  C   UNL     1      -0.603  14.257  20.104  0.00  0.00    +0.000 C 
BRANCH  15  17
ATOM     16  C   UNL     1      -0.382  16.234  18.582  0.00  0.00    +0.000 C 
ATOM     17  C   UNL     1       0.122  15.115  19.120  0.00  0.00    +0.000 C 
ENDBRANCH  15  17
ENDBRANCH  11  15
ENDBRANCH   1  12
BRANCH   6  18
ATOM     18  S   UNL     1       2.128   4.695  20.252  0.00  0.00    +0.000 S 
ATOM     19  O   UNL     1       2.559   4.486  21.615  0.00  0.00    +0.000 OA
ATOM     20  O   UNL     1       0.933   4.061  19.743  0.00  0.00    +0.000 OA
BRANCH  18  21
ATOM     21  N   UNL     1       3.433   4.273  19.214  0.00  0.00    +0.000 NA
ATOM     22  C   UNL     1       3.036   3.765  17.876  0.00  0.00    +0.000 C 
ATOM     23  C   UNL     1       4.228   3.300  17.054  0.00  0.00    +0.000 C 
ATOM     24  C   UNL     1       5.306   4.370  16.991  0.00  0.00    +0.000 C 
ATOM     25  C   UNL     1       5.751   4.721  18.402  0.00  0.00    +0.000 C 
ATOM     26  C   UNL     1       4.589   5.202  19.254  0.00  0.00    +0.000 C 
ATOM     27  O   UNL     1       4.791   5.529  16.317  0.00  0.00    +0.000 OA
ATOM     28  C   UNL     1       5.823   5.922  15.413  0.00  0.00    +0.000 C 
ATOM     29  C   UNL     1       6.510   4.628  15.070  0.00  0.00    +0.000 C 
ATOM     30  O   UNL     1       6.446   3.869  16.275  0.00  0.00    +0.000 OA
ENDBRANCH  18  21
ENDBRANCH   6  18
TORSDOF 5
ENDMDL
MODEL 4
REMARK VINA RESULT:      -7.8      2.945     10.249
REMARK  Name = 
REMARK  6 active torsions:
REMARK  status: ('A' for Active; 'I' for Inactive)
REMARK    1  A    between atoms: C_2  and  C_3
REMARK    2  A    between atoms: C_3  and  N_4
REMARK    3  A    between atoms: C_5  and  C_7
REMARK    4  A    between atoms: C_12  and  S_13
REMARK    5  A    between atoms: S_13  and  N_16
REMARK    6  A    between atoms: C_28  and  C_29
REMARK                            x       y       z     vdW  Elec       q    Type
REMARK                         _______ _______ _______ _____ _____    ______ ____
ROOT
ATOM      1  C   UNL     1       2.123   7.139  19.651  0.00  0.00    +0.000 A 
ATOM      2  O   UNL     1       1.595   7.146  20.917  0.00  0.00    +0.000 OA
ATOM      3  C   UNL     1       1.067   8.379  21.133  0.00  0.00    +0.000 A 
ATOM      4  C   UNL     1       0.406   8.794  22.290  0.00  0.00    +0.000 A 
ATOM      5  C   UNL     1      -0.081  10.111  22.301  0.00  0.00    +0.000 A 
ATOM      6  C   UNL     1       0.131  10.969  21.212  0.00  0.00    +0.000 A 
ATOM      7  C   UNL     1       0.784  10.515  20.055  0.00  0.00    +0.000 A 
ATOM      8  C   UNL     1       1.256   9.190  20.021  0.00  0.00    +0.000 A 
ATOM      9  C   UNL     1       1.914   8.377  19.049  0.00  0.00    +0.000 A 
ATOM     10  C   UNL     1       2.281   8.775  17.666  0.00  0.00    +0.000 C 
ENDROOT
BRANCH   1  12
ATOM     11  N   UNL     1       2.012   5.165  18.310  0.00  0.00    +0.000 N 
ATOM     12  C   UNL     1       2.777   5.942  19.155  0.00  0.00    +0.000 C 
ATOM     13  O   UNL     1       3.928   5.630  19.462  0.00  0.00    +0.000 OA
ATOM     14  H   UNL     1       1.153   5.569  17.956  0.00  0.00    +0.000 HD
BRANCH  11  15
ATOM     15  C   UNL     1       2.559   3.985  17.693  0.00  0.00    +0.000 C 
BRANCH  15  17
ATOM     16  C   UNL     1       0.792   2.831  19.044  0.00  0.00    +0.000 C 
ATOM     17  C   UNL     1       1.901   2.785  18.293  0.00  0.00    +0.000 C 
ENDBRANCH  15  17
ENDBRANCH  11  15
ENDBRANCH   1  12
BRANCH   6  18
ATOM     18  S   UNL     1      -0.598  12.611  21.214  0.00  0.00    +0.000 S 
ATOM     19  O   UNL     1       0.137  13.399  22.175  0.00  0.00    +0.000 OA
ATOM     20  O   UNL     1      -0.701  13.025  19.833  0.00  0.00    +0.000 OA
BRANCH  18  21
ATOM     21  N   UNL     1      -2.192  12.389  21.820  0.00  0.00    +0.000 NA
ATOM     22  C   UNL     1      -2.366  12.694  23.263  0.00  0.00    +0.000 C 
ATOM     23  C   UNL     1      -3.765  12.365  23.762  0.00  0.00    +0.000 C 
ATOM     24  C   UNL     1      -4.828  13.006  22.884  0.00  0.00    +0.000 C 
ATOM     25  C   UNL     1      -4.658  12.523  21.452  0.00  0.00    +0.000 C 
ATOM     26  C   UNL     1      -3.275  12.842  20.912  0.00  0.00    +0.000 C 
ATOM     27  O   UNL     1      -4.710  14.436  22.956  0.00  0.00    +0.000 OA
ATOM     28  C   UNL     1      -6.047  14.911  23.110  0.00  0.00    +0.000 C 
ATOM     29  C   UNL     1      -6.740  13.798  23.846  0.00  0.00    +0.000 C 
ATOM     30  O   UNL     1      -6.134  12.612  23.337  0.00  0.00    +0.000 OA
ENDBRANCH  18  21
ENDBRANCH   6  18
TORSDOF 5
ENDMDL
MODEL 5
REMARK VINA RESULT:      -7.7      1.981      3.116
REMARK  Name = 
REMARK  6 active torsions:
REMARK  status: ('A' for Active; 'I' for Inactive)
REMARK    1  A    between atoms: C_2  and  C_3
REMARK    2  A    between atoms: C_3  and  N_4
REMARK    3  A    between atoms: C_5  and  C_7
REMARK    4  A    between atoms: C_12  and  S_13
REMARK    5  A    between atoms: S_13  and  N_16
REMARK    6  A    between atoms: C_28  and  C_29
REMARK                            x       y       z     vdW  Elec       q    Type
REMARK                         _______ _______ _______ _____ _____    ______ ____
ROOT
ATOM      1  C   UNL     1       1.146   8.953  19.848  0.00  0.00    +0.000 A 
ATOM      2  O   UNL     1       0.993   7.987  20.811  0.00  0.00    +0.000 OA
ATOM      3  C   UNL     1       1.708   6.900  20.416  0.00  0.00    +0.000 A 
ATOM      4  C   UNL     1       1.841   5.708  21.128  0.00  0.00    +0.000 A 
ATOM      5  C   UNL     1       2.643   4.711  20.547  0.00  0.00    +0.000 A 
ATOM      6  C   UNL     1       3.238   4.905  19.292  0.00  0.00    +0.000 A 
ATOM      7  C   UNL     1       3.099   6.124  18.610  0.00  0.00    +0.000 A 
ATOM      8  C   UNL     1       2.318   7.140  19.192  0.00  0.00    +0.000 A 
ATOM      9  C   UNL     1       1.979   8.481  18.838  0.00  0.00    +0.000 A 
ATOM     10  C   UNL     1       2.444   9.223  17.639  0.00  0.00    +0.000 C 
ENDROOT
BRANCH   1  12
ATOM     11  N   UNL     1       0.663  10.850  21.217  0.00  0.00    +0.000 N 
ATOM     12  C   UNL     1       0.469  10.228  20.001  0.00  0.00    +0.000 C 
ATOM     13  O   UNL     1      -0.232  10.726  19.120  0.00  0.00    +0.000 OA
ATOM     14  H   UNL     1       1.390  10.483  21.818  0.00  0.00    +0.000 HD
BRANCH  11  15
ATOM     15  C   UNL     1       0.105  12.151  21.479  0.00  0.00    +0.000 C 
BRANCH  15  17
ATOM     16  C   UNL     1      -1.254  10.865  23.144  0.00  0.00    +0.000 C 
ATOM     17  C   UNL     1      -0.908  12.025  22.570  0.00  0.00    +0.000 C 
ENDBRANCH  15  17
ENDBRANCH  11  15
ENDBRANCH   1  12
BRANCH   6  18
ATOM     18  S   UNL     1       4.344   3.655  18.627  0.00  0.00    +0.000 S 
ATOM     19  O   UNL     1       5.278   3.315  19.676  0.00  0.00    +0.000 OA
ATOM     20  O   UNL     1       3.513   2.645  18.013  0.00  0.00    +0.000 OA
BRANCH  18  21
ATOM     21  N   UNL     1       5.218   4.453  17.379  0.00  0.00    +0.000 NA
ATOM     22  C   UNL     1       6.604   3.963  17.168  0.00  0.00    +0.000 C 
ATOM     23  C   UNL     1       7.361   4.785  16.136  0.00  0.00    +0.000 C 
ATOM     24  C   UNL     1       6.569   4.912  14.845  0.00  0.00    +0.000 C 
ATOM     25  C   UNL     1       5.223   5.555  15.139  0.00  0.00    +0.000 C 
ATOM     26  C   UNL     1       4.430   4.757  16.160  0.00  0.00    +0.000 C 
ATOM     27  O   UNL     1       6.394   3.611  14.260  0.00  0.00    +0.000 OA
ATOM     28  C   UNL     1       6.678   3.786  12.873  0.00  0.00    +0.000 C 
ATOM     29  C   UNL     1       7.679   4.908  12.851  0.00  0.00    +0.000 C 
ATOM     30  O   UNL     1       7.276   5.758  13.923  0.00  0.00    +0.000 OA
ENDBRANCH  18  21
ENDBRANCH   6  18
TORSDOF 5
ENDMDL
MODEL 6
REMARK VINA RESULT:      -7.6      1.344      1.657
REMARK  Name = 
REMARK  6 active torsions:
REMARK  status: ('A' for Active; 'I' for Inactive)
REMARK    1  A    between atoms: C_2  and  C_3
REMARK    2  A    between atoms: C_3  and  N_4
REMARK    3  A    between atoms: C_5  and  C_7
REMARK    4  A    between atoms: C_12  and  S_13
REMARK    5  A    between atoms: S_13  and  N_16
REMARK    6  A    between atoms: C_28  and  C_29
REMARK                            x       y       z     vdW  Elec       q    Type
REMARK                         _______ _______ _______ _____ _____    ______ ____
ROOT
ATOM      1  C   UNL     1       0.045  11.055  21.053  0.00  0.00    +0.000 A 
ATOM      2  O   UNL     1       0.452  11.069  19.743  0.00  0.00    +0.000 OA
ATOM      3  C   UNL     1       1.031   9.867  19.483  0.00  0.00    +0.000 A 
ATOM      4  C   UNL     1       1.554   9.461  18.255  0.00  0.00    +0.000 A 
ATOM      5  C   UNL     1       2.095   8.166  18.196  0.00  0.00    +0.000 A 
ATOM      6  C   UNL     1       2.138   7.349  19.335  0.00  0.00    +0.000 A 
ATOM      7  C   UNL     1       1.587   7.781  20.551  0.00  0.00    +0.000 A 
ATOM      8  C   UNL     1       1.020   9.067  20.619  0.00  0.00    +0.000 A 
ATOM      9  C   UNL     1       0.353   9.825  21.628  0.00  0.00    +0.000 A 
ATOM     10  C   UNL     1       0.038   9.376  23.008  0.00  0.00    +0.000 C 
ENDROOT
BRANCH   1  12
ATOM     11  N   UNL     1      -1.464  12.885  20.765  0.00  0.00    +0.000 N 
ATOM     12  C   UNL     1      -0.597  12.230  21.615  0.00  0.00    +0.000 C 
ATOM     13  O   UNL     1      -0.387  12.626  22.762  0.00  0.00    +0.000 OA
ATOM     14  H   UNL     1      -1.729  12.409  19.912  0.00  0.00    +0.000 HD
BRANCH  11  15
ATOM     15  C   UNL     1      -2.218  14.027  21.214  0.00  0.00    +0.000 C 
BRANCH  15  17
ATOM     16  C   UNL     1      -4.140  12.731  20.266  0.00  0.00    +0.000 C 
ATOM     17  C   UNL     1      -3.669  13.759  20.984  0.00  0.00    +0.000 C 
ENDBRANCH  15  17
ENDBRANCH  11  15
ENDBRANCH   1  12
BRANCH   6  18
ATOM     18  S   UNL     1       2.736   5.660  19.200  0.00  0.00    +0.000 S 
ATOM     19  O   UNL     1       3.093   5.229  20.532  0.00  0.00    +0.000 OA
ATOM     20  O   UNL     1       1.763   4.933  18.416  0.00  0.00    +0.000 OA
BRANCH  18  21
ATOM     21  N   UNL     1       4.182   5.773  18.276  0.00  0.00    +0.000 NA
ATOM     22  C   UNL     1       5.015   4.543  18.256  0.00  0.00    +0.000 C 
ATOM     23  C   UNL     1       6.333   4.746  17.523  0.00  0.00    +0.000 C 
ATOM     24  C   UNL     1       6.109   5.338  16.141  0.00  0.00    +0.000 C 
ATOM     25  C   UNL     1       5.377   6.664  16.272  0.00  0.00    +0.000 C 
ATOM     26  C   UNL     1       4.048   6.503  16.991  0.00  0.00    +0.000 C 
ATOM     27  O   UNL     1       5.351   4.416  15.341  0.00  0.00    +0.000 OA
ATOM     28  C   UNL     1       6.009   4.394  14.076  0.00  0.00    +0.000 C 
ATOM     29  C   UNL     1       7.447   4.677  14.415  0.00  0.00    +0.000 C 
ATOM     30  O   UNL     1       7.375   5.588  15.509  0.00  0.00    +0.000 OA
ENDBRANCH  18  21
ENDBRANCH   6  18
TORSDOF 5
ENDMDL
MODEL 7
REMARK VINA RESULT:      -7.6      2.984     10.459
REMARK  Name = 
REMARK  6 active torsions:
REMARK  status: ('A' for Active; 'I' for Inactive)
REMARK    1  A    between atoms: C_2  and  C_3
REMARK    2  A    between atoms: C_3  and  N_4
REMARK    3  A    between atoms: C_5  and  C_7
REMARK    4  A    between atoms: C_12  and  S_13
REMARK    5  A    between atoms: S_13  and  N_16
REMARK    6  A    between atoms: C_28  and  C_29
REMARK                            x       y       z     vdW  Elec       q    Type
REMARK                         _______ _______ _______ _____ _____    ______ ____
ROOT
ATOM      1  C   UNL     1       1.989   7.343  19.700  0.00  0.00    +0.000 A 
ATOM      2  O   UNL     1       1.482   7.315  20.975  0.00  0.00    +0.000 OA
ATOM      3  C   UNL     1       0.943   8.536  21.227  0.00  0.00    +0.000 A 
ATOM      4  C   UNL     1       0.296   8.916  22.404  0.00  0.00    +0.000 A 
ATOM      5  C   UNL     1      -0.206  10.227  22.454  0.00  0.00    +0.000 A 
ATOM      6  C   UNL     1      -0.022  11.112  21.382  0.00  0.00    +0.000 A 
ATOM      7  C   UNL     1       0.617  10.693  20.205  0.00  0.00    +0.000 A 
ATOM      8  C   UNL     1       1.105   9.374  20.132  0.00  0.00    +0.000 A 
ATOM      9  C   UNL     1       1.755   8.592  19.130  0.00  0.00    +0.000 A 
ATOM     10  C   UNL     1       2.095   9.026  17.751  0.00  0.00    +0.000 C 
ENDROOT
BRANCH   1  12
ATOM     11  N   UNL     1       3.910   5.924  19.668  0.00  0.00    +0.000 N 
ATOM     12  C   UNL     1       2.648   6.166  19.165  0.00  0.00    +0.000 C 
ATOM     13  O   UNL     1       2.132   5.432  18.322  0.00  0.00    +0.000 OA
ATOM     14  H   UNL     1       4.196   6.452  20.483  0.00  0.00    +0.000 HD
BRANCH  11  15
ATOM     15  C   UNL     1       4.650   4.753  19.274  0.00  0.00    +0.000 C 
BRANCH  15  17
ATOM     16  C   UNL     1       6.770   5.249  18.035  0.00  0.00    +0.000 C 
ATOM     17  C   UNL     1       6.098   5.112  19.186  0.00  0.00    +0.000 C 
ENDBRANCH  15  17
ENDBRANCH  11  15
ENDBRANCH   1  12
BRANCH   6  18
ATOM     18  S   UNL     1      -0.770  12.745  21.434  0.00  0.00    +0.000 S 
ATOM     19  O   UNL     1      -0.056  13.505  22.434  0.00  0.00    +0.000 OA
ATOM     20  O   UNL     1      -0.858  13.208  20.068  0.00  0.00    +0.000 OA
BRANCH  18  21
ATOM     21  N   UNL     1      -2.369  12.484  22.009  0.00  0.00    +0.000 NA
ATOM     22  C   UNL     1      -2.580  12.791  23.447  0.00  0.00    +0.000 C 
ATOM     23  C   UNL     1      -3.979  12.427  23.920  0.00  0.00    +0.000 C 
ATOM     24  C   UNL     1      -5.041  13.035  23.017  0.00  0.00    +0.000 C 
ATOM     25  C   UNL     1      -4.830  12.549  21.592  0.00  0.00    +0.000 C 
ATOM     26  C   UNL     1      -3.445  12.902  21.078  0.00  0.00    +0.000 C 
ATOM     27  O   UNL     1      -4.963  14.468  23.083  0.00  0.00    +0.000 OA
ATOM     28  C   UNL     1      -6.315  14.908  23.208  0.00  0.00    +0.000 C 
ATOM     29  C   UNL     1      -6.992  13.780  23.936  0.00  0.00    +0.000 C 
ATOM     30  O   UNL     1      -6.344  12.608  23.446  0.00  0.00    +0.000 OA
ENDBRANCH  18  21
ENDBRANCH   6  18
TORSDOF 5
ENDMDL
MODEL 8
REMARK VINA RESULT:      -7.5      2.329      3.361
REMARK  Name = 
REMARK  6 active torsions:
REMARK  status: ('A' for Active; 'I' for Inactive)
REMARK    1  A    between atoms: C_2  and  C_3
REMARK    2  A    between atoms: C_3  and  N_4
REMARK    3  A    between atoms: C_5  and  C_7
REMARK    4  A    between atoms: C_12  and  S_13
REMARK    5  A    between atoms: S_13  and  N_16
REMARK    6  A    between atoms: C_28  and  C_29
REMARK                            x       y       z     vdW  Elec       q    Type
REMARK                         _______ _______ _______ _____ _____    ______ ____
ROOT
ATOM      1  C   UNL     1       1.167   8.958  19.845  0.00  0.00    +0.000 A 
ATOM      2  O   UNL     1       1.002   7.988  20.801  0.00  0.00    +0.000 OA
ATOM      3  C   UNL     1       1.714   6.900  20.406  0.00  0.00    +0.000 A 
ATOM      4  C   UNL     1       1.835   5.703  21.112  0.00  0.00    +0.000 A 
ATOM      5  C   UNL     1       2.636   4.705  20.532  0.00  0.00    +0.000 A 
ATOM      6  C   UNL     1       3.244   4.903  19.284  0.00  0.00    +0.000 A 
ATOM      7  C   UNL     1       3.117   6.126  18.608  0.00  0.00    +0.000 A 
ATOM      8  C   UNL     1       2.336   7.143  19.189  0.00  0.00    +0.000 A 
ATOM      9  C   UNL     1       2.007   8.488  18.840  0.00  0.00    +0.000 A 
ATOM     10  C   UNL     1       2.485   9.234  17.648  0.00  0.00    +0.000 C 
ENDROOT
BRANCH   1  12
ATOM     11  N   UNL     1      -0.424  10.536  19.017  0.00  0.00    +0.000 N 
ATOM     12  C   UNL     1       0.496  10.236  20.000  0.00  0.00    +0.000 C 
ATOM     13  O   UNL     1       0.726  11.007  20.932  0.00  0.00    +0.000 OA
ATOM     14  H   UNL     1      -0.697   9.788  18.391  0.00  0.00    +0.000 HD
BRANCH  11  15
ATOM     15  C   UNL     1      -1.210  11.740  19.082  0.00  0.00    +0.000 C 
BRANCH  15  17
ATOM     16  C   UNL     1      -2.905  10.462  17.753  0.00  0.00    +0.000 C 
ATOM     17  C   UNL     1      -2.598  11.429  18.628  0.00  0.00    +0.000 C 
ENDBRANCH  15  17
ENDBRANCH  11  15
ENDBRANCH   1  12
BRANCH   6  18
ATOM     18  S   UNL     1       4.349   3.651  18.621  0.00  0.00    +0.000 S 
ATOM     19  O   UNL     1       5.283   3.313  19.670  0.00  0.00    +0.000 OA
ATOM     20  O   UNL     1       3.517   2.640  18.010  0.00  0.00    +0.000 OA
BRANCH  18  21
ATOM     21  N   UNL     1       5.223   4.445  17.371  0.00  0.00    +0.000 NA
ATOM     22  C   UNL     1       6.608   3.954  17.160  0.00  0.00    +0.000 C 
ATOM     23  C   UNL     1       7.364   4.773  16.126  0.00  0.00    +0.000 C 
ATOM     24  C   UNL     1       6.572   4.898  14.834  0.00  0.00    +0.000 C 
ATOM     25  C   UNL     1       5.226   5.543  15.128  0.00  0.00    +0.000 C 
ATOM     26  C   UNL     1       4.434   4.747  16.151  0.00  0.00    +0.000 C 
ATOM     27  O   UNL     1       6.395   3.596  14.253  0.00  0.00    +0.000 OA
ATOM     28  C   UNL     1       6.678   3.768  12.865  0.00  0.00    +0.000 C 
ATOM     29  C   UNL     1       7.680   4.889  12.840  0.00  0.00    +0.000 C 
ATOM     30  O   UNL     1       7.278   5.742  13.910  0.00  0.00    +0.000 OA
ENDBRANCH  18  21
ENDBRANCH   6  18
TORSDOF 5
ENDMDL
MODEL 9
REMARK VINA RESULT:      -7.5      1.431      1.720
REMARK  Name = 
REMARK  6 active torsions:
REMARK  status: ('A' for Active; 'I' for Inactive)
REMARK    1  A    between atoms: C_2  and  C_3
REMARK    2  A    between atoms: C_3  and  N_4
REMARK    3  A    between atoms: C_5  and  C_7
REMARK    4  A    between atoms: C_12  and  S_13
REMARK    5  A    between atoms: S_13  and  N_16
REMARK    6  A    between atoms: C_28  and  C_29
REMARK                            x       y       z     vdW  Elec       q    Type
REMARK                         _______ _______ _______ _____ _____    ______ ____
ROOT
ATOM      1  C   UNL     1      -0.108  11.114  20.688  0.00  0.00    +0.000 A 
ATOM      2  O   UNL     1       0.366  11.079  19.400  0.00  0.00    +0.000 OA
ATOM      3  C   UNL     1       0.983   9.880  19.226  0.00  0.00    +0.000 A 
ATOM      4  C   UNL     1       1.576   9.432  18.045  0.00  0.00    +0.000 A 
ATOM      5  C   UNL     1       2.147   8.149  18.072  0.00  0.00    +0.000 A 
ATOM      6  C   UNL     1       2.149   7.386  19.248  0.00  0.00    +0.000 A 
ATOM      7  C   UNL     1       1.528   7.858  20.415  0.00  0.00    +0.000 A 
ATOM      8  C   UNL     1       0.931   9.133  20.395  0.00  0.00    +0.000 A 
ATOM      9  C   UNL     1       0.198   9.919  21.334  0.00  0.00    +0.000 A 
ATOM     10  C   UNL     1      -0.177   9.525  22.716  0.00  0.00    +0.000 C 
ENDROOT
BRANCH   1  12
ATOM     11  N   UNL     1      -0.045  13.147  21.941  0.00  0.00    +0.000 N 
ATOM     12  C   UNL     1      -0.802  12.297  21.162  0.00  0.00    +0.000 C 
ATOM     13  O   UNL     1      -1.982  12.534  20.899  0.00  0.00    +0.000 OA
ATOM     14  H   UNL     1       0.956  12.991  21.964  0.00  0.00    +0.000 HD
BRANCH  11  15
ATOM     15  C   UNL     1      -0.588  14.390  22.422  0.00  0.00    +0.000 C 
BRANCH  15  17
ATOM     16  C   UNL     1      -2.605  14.369  23.908  0.00  0.00    +0.000 C 
ATOM     17  C   UNL     1      -1.301  14.133  23.709  0.00  0.00    +0.000 C 
ENDBRANCH  15  17
ENDBRANCH  11  15
ENDBRANCH   1  12
BRANCH   6  18
ATOM     18  S   UNL     1       2.791   5.707  19.221  0.00  0.00    +0.000 S 
ATOM     19  O   UNL     1       3.176   5.379  20.574  0.00  0.00    +0.000 OA
ATOM     20  O   UNL     1       1.827   4.903  18.505  0.00  0.00    +0.000 OA
BRANCH  18  21
ATOM     21  N   UNL     1       4.221   5.792  18.270  0.00  0.00    +0.000 NA
ATOM     22  C   UNL     1       5.045   4.557  18.259  0.00  0.00    +0.000 C 
ATOM     23  C   UNL     1       6.351   4.736  17.500  0.00  0.00    +0.000 C 
ATOM     24  C   UNL     1       6.107   5.304  16.111  0.00  0.00    +0.000 C 
ATOM     25  C   UNL     1       5.386   6.637  16.230  0.00  0.00    +0.000 C 
ATOM     26  C   UNL     1       4.070   6.499  16.975  0.00  0.00    +0.000 C 
ATOM     27  O   UNL     1       5.329   4.373  15.342  0.00  0.00    +0.000 OA
ATOM     28  C   UNL     1       5.965   4.323  14.066  0.00  0.00    +0.000 C 
ATOM     29  C   UNL     1       7.410   4.601  14.375  0.00  0.00    +0.000 C 
ATOM     30  O   UNL     1       7.364   5.533  15.453  0.00  0.00    +0.000 OA
ENDBRANCH  18  21
ENDBRANCH   6  18
TORSDOF 5
ENDMDL
