MODEL 1
REMARK VINA RESULT:      -8.2      0.000      0.000
REMARK  Name = 
REMARK  4 active torsions:
REMARK  status: ('A' for Active; 'I' for Inactive)
REMARK    1  A    between atoms: C_1  and  C_2
REMARK    2  A    between atoms: C_8  and  C_10
REMARK    3  A    between atoms: C_10  and  O_11
REMARK    4  A    between atoms: O_11  and  C_12
REMARK                            x       y       z     vdW  Elec       q    Type
REMARK                         _______ _______ _______ _____ _____    ______ ____
ROOT
ATOM      1  C   UNL     1       5.567   2.744  11.984  0.00  0.00    +0.000 C 
ATOM      2  C   UNL     1       6.415   3.713  12.754  0.00  0.00    +0.000 A 
ATOM      3  C   UNL     1       7.260   4.568  12.076  0.00  0.00    +0.000 A 
ATOM      4  C   UNL     1       7.973   5.446  12.849  0.00  0.00    +0.000 A 
ATOM      5  N   UNL     1       7.852   5.510  14.181  0.00  0.00    +0.000 NA
ATOM      6  C   UNL     1       7.013   4.653  14.773  0.00  0.00    +0.000 A 
ATOM      7  N   UNL     1       6.846   4.687  16.149  0.00  0.00    +0.000 N 
ATOM      8  C   UNL     1       7.228   5.752  16.942  0.00  0.00    +0.000 C 
ATOM      9  O   UNL     1       7.688   6.821  16.551  0.00  0.00    +0.000 OA
ATOM     10  N   UNL     1       6.301   3.724  14.105  0.00  0.00    +0.000 NA
ATOM     11  H   UNL     1       6.335   3.908  16.522  0.00  0.00    +0.000 HD
ENDROOT
BRANCH   8  12
ATOM     12  C   UNL     1       6.990   5.535  18.429  0.00  0.00    +0.000 C 
BRANCH  12  13
ATOM     13  O   UNL     1       6.341   4.279  18.586  0.00  0.00    +0.000 OA
BRANCH  13  14
ATOM     14  C   UNL     1       5.065   4.288  19.074  0.00  0.00    +0.000 A 
ATOM     15  C   UNL     1       4.316   5.420  19.399  0.00  0.00    +0.000 A 
ATOM     16  C   UNL     1       3.002   5.281  19.859  0.00  0.00    +0.000 A 
ATOM     17  C   UNL     1       2.442   4.012  19.998  0.00  0.00    +0.000 A 
ATOM     18 CL   UNL     1       0.823   3.849  20.557  0.00  0.00    +0.000 Cl
ATOM     19  C   UNL     1       3.185   2.879  19.686  0.00  0.00    +0.000 A 
ATOM     20  C   UNL     1       4.497   3.021  19.228  0.00  0.00    +0.000 A 
ENDBRANCH  13  14
ENDBRANCH  12  13
ENDBRANCH   8  12
TORSDOF 3
ENDMDL
MODEL 2
REMARK VINA RESULT:      -8.2      0.140      1.114
REMARK  Name = 
REMARK  4 active torsions:
REMARK  status: ('A' for Active; 'I' for Inactive)
REMARK    1  A    between atoms: C_1  and  C_2
REMARK    2  A    between atoms: C_8  and  C_10
REMARK    3  A    between atoms: C_10  and  O_11
REMARK    4  A    between atoms: O_11  and  C_12
REMARK                            x       y       z     vdW  Elec       q    Type
REMARK                         _______ _______ _______ _____ _____    ______ ____
ROOT
ATOM      1  C   UNL     1       5.431   2.812  11.927  0.00  0.00    +0.000 C 
ATOM      2  C   UNL     1       6.322   3.733  12.708  0.00  0.00    +0.000 A 
ATOM      3  C   UNL     1       7.254   4.504  12.046  0.00  0.00    +0.000 A 
ATOM      4  C   UNL     1       8.003   5.345  12.826  0.00  0.00    +0.000 A 
ATOM      5  N   UNL     1       7.838   5.450  14.151  0.00  0.00    +0.000 NA
ATOM      6  C   UNL     1       6.914   4.675  14.728  0.00  0.00    +0.000 A 
ATOM      7  N   UNL     1       6.698   4.756  16.096  0.00  0.00    +0.000 N 
ATOM      8  C   UNL     1       7.130   5.808  16.879  0.00  0.00    +0.000 C 
ATOM      9  O   UNL     1       7.686   6.829  16.483  0.00  0.00    +0.000 OA
ATOM     10  N   UNL     1       6.158   3.786  14.053  0.00  0.00    +0.000 NA
ATOM     11  H   UNL     1       6.115   4.027  16.465  0.00  0.00    +0.000 HD
ENDROOT
BRANCH   8  12
ATOM     12  C   UNL     1       6.820   5.647  18.361  0.00  0.00    +0.000 C 
BRANCH  12  13
ATOM     13  O   UNL     1       6.368   4.315  18.566  0.00  0.00    +0.000 OA
BRANCH  13  14
ATOM     14  C   UNL     1       5.092   4.149  19.027  0.00  0.00    +0.000 A 
ATOM     15  C   UNL     1       4.460   2.930  19.279  0.00  0.00    +0.000 A 
ATOM     16  C   UNL     1       3.155   2.911  19.785  0.00  0.00    +0.000 A 
ATOM     17  C   UNL     1       2.484   4.107  20.031  0.00  0.00    +0.000 A 
ATOM     18 CL   UNL     1       0.883   4.076  20.661  0.00  0.00    +0.000 Cl
ATOM     19  C   UNL     1       3.104   5.326  19.774  0.00  0.00    +0.000 A 
ATOM     20  C   UNL     1       4.406   5.342  19.268  0.00  0.00    +0.000 A 
ENDBRANCH  13  14
ENDBRANCH  12  13
ENDBRANCH   8  12
TORSDOF 3
ENDMDL
MODEL 3
REMARK VINA RESULT:      -8.1      1.051      1.415
REMARK  Name = 
REMARK  4 active torsions:
REMARK  status: ('A' for Active; 'I' for Inactive)
REMARK    1  A    between atoms: C_1  and  C_2
REMARK    2  A    between atoms: C_8  and  C_10
REMARK    3  A    between atoms: C_10  and  O_11
REMARK    4  A    between atoms: O_11  and  C_12
REMARK                            x       y       z     vdW  Elec       q    Type
REMARK                         _______ _______ _______ _____ _____    ______ ____
ROOT
ATOM      1  C   UNL     1       5.454   2.845  11.770  0.00  0.00    +0.000 C 
ATOM      2  C   UNL     1       6.321   3.731  12.615  0.00  0.00    +0.000 A 
ATOM      3  C   UNL     1       7.272   4.529  12.014  0.00  0.00    +0.000 A 
ATOM      4  C   UNL     1       7.997   5.334  12.852  0.00  0.00    +0.000 A 
ATOM      5  N   UNL     1       7.792   5.384  14.175  0.00  0.00    +0.000 NA
ATOM      6  C   UNL     1       6.852   4.585  14.690  0.00  0.00    +0.000 A 
ATOM      7  N   UNL     1       6.596   4.608  16.053  0.00  0.00    +0.000 N 
ATOM      8  C   UNL     1       7.005   5.626  16.893  0.00  0.00    +0.000 C 
ATOM      9  O   UNL     1       7.571   6.662  16.558  0.00  0.00    +0.000 OA
ATOM     10  N   UNL     1       6.117   3.727  13.957  0.00  0.00    +0.000 NA
ATOM     11  H   UNL     1       6.003   3.865  16.374  0.00  0.00    +0.000 HD
ENDROOT
BRANCH   8  12
ATOM     12  C   UNL     1       6.651   5.402  18.357  0.00  0.00    +0.000 C 
BRANCH  12  13
ATOM     13  O   UNL     1       5.338   5.905  18.567  0.00  0.00    +0.000 OA
BRANCH  13  14
ATOM     14  C   UNL     1       4.321   4.996  18.641  0.00  0.00    +0.000 A 
ATOM     15  C   UNL     1       4.379   3.744  19.255  0.00  0.00    +0.000 A 
ATOM     16  C   UNL     1       3.244   2.926  19.285  0.00  0.00    +0.000 A 
ATOM     17  C   UNL     1       2.057   3.358  18.696  0.00  0.00    +0.000 A 
ATOM     18 CL   UNL     1       0.663   2.350  18.743  0.00  0.00    +0.000 Cl
ATOM     19  C   UNL     1       1.994   4.600  18.072  0.00  0.00    +0.000 A 
ATOM     20  C   UNL     1       3.128   5.414  18.044  0.00  0.00    +0.000 A 
ENDBRANCH  13  14
ENDBRANCH  12  13
ENDBRANCH   8  12
TORSDOF 3
ENDMDL
MODEL 4
REMARK VINA RESULT:      -8.1      1.085      1.120
REMARK  Name = 
REMARK  4 active torsions:
REMARK  status: ('A' for Active; 'I' for Inactive)
REMARK    1  A    between atoms: C_1  and  C_2
REMARK    2  A    between atoms: C_8  and  C_10
REMARK    3  A    between atoms: C_10  and  O_11
REMARK    4  A    between atoms: O_11  and  C_12
REMARK                            x       y       z     vdW  Elec       q    Type
REMARK                         _______ _______ _______ _____ _____    ______ ____
ROOT
ATOM      1  C   UNL     1       5.511   2.738  11.712  0.00  0.00    +0.000 C 
ATOM      2  C   UNL     1       6.344   3.646  12.567  0.00  0.00    +0.000 A 
ATOM      3  C   UNL     1       7.252   4.499  11.973  0.00  0.00    +0.000 A 
ATOM      4  C   UNL     1       7.948   5.321  12.819  0.00  0.00    +0.000 A 
ATOM      5  N   UNL     1       7.755   5.335  14.145  0.00  0.00    +0.000 NA
ATOM      6  C   UNL     1       6.858   4.484  14.653  0.00  0.00    +0.000 A 
ATOM      7  N   UNL     1       6.615   4.469  16.019  0.00  0.00    +0.000 N 
ATOM      8  C   UNL     1       6.985   5.487  16.874  0.00  0.00    +0.000 C 
ATOM      9  O   UNL     1       7.500   6.555  16.555  0.00  0.00    +0.000 OA
ATOM     10  N   UNL     1       6.155   3.607  13.909  0.00  0.00    +0.000 NA
ATOM     11  H   UNL     1       6.060   3.693  16.330  0.00  0.00    +0.000 HD
ENDROOT
BRANCH   8  12
ATOM     12  C   UNL     1       6.657   5.219  18.337  0.00  0.00    +0.000 C 
BRANCH  12  13
ATOM     13  O   UNL     1       5.443   5.893  18.639  0.00  0.00    +0.000 OA
BRANCH  13  14
ATOM     14  C   UNL     1       4.292   5.159  18.604  0.00  0.00    +0.000 A 
ATOM     15  C   UNL     1       3.143   5.462  17.870  0.00  0.00    +0.000 A 
ATOM     16  C   UNL     1       2.044   4.597  17.902  0.00  0.00    +0.000 A 
ATOM     17  C   UNL     1       2.092   3.436  18.671  0.00  0.00    +0.000 A 
ATOM     18 CL   UNL     1       0.739   2.373  18.699  0.00  0.00    +0.000 Cl
ATOM     19  C   UNL     1       3.228   3.131  19.414  0.00  0.00    +0.000 A 
ATOM     20  C   UNL     1       4.323   3.997  19.380  0.00  0.00    +0.000 A 
ENDBRANCH  13  14
ENDBRANCH  12  13
ENDBRANCH   8  12
TORSDOF 3
ENDMDL
MODEL 5
REMARK VINA RESULT:      -7.6      0.978      1.490
REMARK  Name = 
REMARK  4 active torsions:
REMARK  status: ('A' for Active; 'I' for Inactive)
REMARK    1  A    between atoms: C_1  and  C_2
REMARK    2  A    between atoms: C_8  and  C_10
REMARK    3  A    between atoms: C_10  and  O_11
REMARK    4  A    between atoms: O_11  and  C_12
REMARK                            x       y       z     vdW  Elec       q    Type
REMARK                         _______ _______ _______ _____ _____    ______ ____
ROOT
ATOM      1  C   UNL     1       4.731   3.205  11.773  0.00  0.00    +0.000 C 
ATOM      2  C   UNL     1       5.753   3.849  12.662  0.00  0.00    +0.000 A 
ATOM      3  C   UNL     1       6.951   4.274  12.127  0.00  0.00    +0.000 A 
ATOM      4  C   UNL     1       7.816   4.884  12.997  0.00  0.00    +0.000 A 
ATOM      5  N   UNL     1       7.525   5.093  14.288  0.00  0.00    +0.000 NA
ATOM      6  C   UNL     1       6.344   4.658  14.739  0.00  0.00    +0.000 A 
ATOM      7  N   UNL     1       5.992   4.861  16.066  0.00  0.00    +0.000 N 
ATOM      8  C   UNL     1       6.622   5.768  16.895  0.00  0.00    +0.000 C 
ATOM      9  O   UNL     1       7.506   6.556  16.573  0.00  0.00    +0.000 OA
ATOM     10  N   UNL     1       5.445   4.009  13.974  0.00  0.00    +0.000 NA
ATOM     11  H   UNL     1       5.174   4.359  16.357  0.00  0.00    +0.000 HD
ENDROOT
BRANCH   8  12
ATOM     12  C   UNL     1       6.093   5.773  18.323  0.00  0.00    +0.000 C 
BRANCH  12  13
ATOM     13  O   UNL     1       4.676   5.864  18.260  0.00  0.00    +0.000 OA
BRANCH  13  14
ATOM     14  C   UNL     1       3.957   5.011  19.048  0.00  0.00    +0.000 A 
ATOM     15  C   UNL     1       4.131   3.628  19.138  0.00  0.00    +0.000 A 
ATOM     16  C   UNL     1       3.341   2.879  20.018  0.00  0.00    +0.000 A 
ATOM     17  C   UNL     1       2.376   3.512  20.799  0.00  0.00    +0.000 A 
ATOM     18 CL   UNL     1       1.414   2.586  21.885  0.00  0.00    +0.000 Cl
ATOM     19  C   UNL     1       2.189   4.887  20.709  0.00  0.00    +0.000 A 
ATOM     20  C   UNL     1       2.978   5.632  19.830  0.00  0.00    +0.000 A 
ENDBRANCH  13  14
ENDBRANCH  12  13
ENDBRANCH   8  12
TORSDOF 3
ENDMDL
MODEL 6
REMARK VINA RESULT:      -7.1      1.662      1.698
REMARK  Name = 
REMARK  4 active torsions:
REMARK  status: ('A' for Active; 'I' for Inactive)
REMARK    1  A    between atoms: C_1  and  C_2
REMARK    2  A    between atoms: C_8  and  C_10
REMARK    3  A    between atoms: C_10  and  O_11
REMARK    4  A    between atoms: O_11  and  C_12
REMARK                            x       y       z     vdW  Elec       q    Type
REMARK                         _______ _______ _______ _____ _____    ______ ____
ROOT
ATOM      1  C   UNL     1       4.963   2.846  11.464  0.00  0.00    +0.000 C 
ATOM      2  C   UNL     1       5.727   3.645  12.478  0.00  0.00    +0.000 A 
ATOM      3  C   UNL     1       7.026   4.024  12.209  0.00  0.00    +0.000 A 
ATOM      4  C   UNL     1       7.642   4.782  13.170  0.00  0.00    +0.000 A 
ATOM      5  N   UNL     1       7.030   5.171  14.296  0.00  0.00    +0.000 NA
ATOM      6  C   UNL     1       5.769   4.770  14.490  0.00  0.00    +0.000 A 
ATOM      7  N   UNL     1       5.089   5.155  15.637  0.00  0.00    +0.000 N 
ATOM      8  C   UNL     1       5.491   6.193  16.454  0.00  0.00    +0.000 C 
ATOM      9  O   UNL     1       6.435   6.953  16.254  0.00  0.00    +0.000 OA
ATOM     10  N   UNL     1       5.093   3.987  13.627  0.00  0.00    +0.000 NA
ATOM     11  H   UNL     1       4.220   4.676  15.781  0.00  0.00    +0.000 HD
ENDROOT
BRANCH   8  12
ATOM     12  C   UNL     1       4.613   6.393  17.681  0.00  0.00    +0.000 C 
BRANCH  12  13
ATOM     13  O   UNL     1       3.439   5.610  17.506  0.00  0.00    +0.000 OA
BRANCH  13  14
ATOM     14  C   UNL     1       2.953   4.953  18.601  0.00  0.00    +0.000 A 
ATOM     15  C   UNL     1       2.875   5.462  19.899  0.00  0.00    +0.000 A 
ATOM     16  C   UNL     1       2.320   4.685  20.922  0.00  0.00    +0.000 A 
ATOM     17  C   UNL     1       1.850   3.403  20.648  0.00  0.00    +0.000 A 
ATOM     18 CL   UNL     1       1.161   2.457  21.909  0.00  0.00    +0.000 Cl
ATOM     19  C   UNL     1       1.933   2.884  19.360  0.00  0.00    +0.000 A 
ATOM     20  C   UNL     1       2.488   3.661  18.340  0.00  0.00    +0.000 A 
ENDBRANCH  13  14
ENDBRANCH  12  13
ENDBRANCH   8  12
TORSDOF 3
ENDMDL
MODEL 7
REMARK VINA RESULT:      -7.0      0.987      1.018
REMARK  Name = 
REMARK  4 active torsions:
REMARK  status: ('A' for Active; 'I' for Inactive)
REMARK    1  A    between atoms: C_1  and  C_2
REMARK    2  A    between atoms: C_8  and  C_10
REMARK    3  A    between atoms: C_10  and  O_11
REMARK    4  A    between atoms: O_11  and  C_12
REMARK                            x       y       z     vdW  Elec       q    Type
REMARK                         _______ _______ _______ _____ _____    ______ ____
ROOT
ATOM      1  C   UNL     1       4.322   3.078  11.462  0.00  0.00    +0.000 C 
ATOM      2  C   UNL     1       5.398   3.635  12.347  0.00  0.00    +0.000 A 
ATOM      3  C   UNL     1       6.675   3.794  11.849  0.00  0.00    +0.000 A 
ATOM      4  C   UNL     1       7.591   4.341  12.709  0.00  0.00    +0.000 A 
ATOM      5  N   UNL     1       7.281   4.733  13.952  0.00  0.00    +0.000 NA
ATOM      6  C   UNL     1       6.024   4.551  14.368  0.00  0.00    +0.000 A 
ATOM      7  N   UNL     1       5.652   4.950  15.643  0.00  0.00    +0.000 N 
ATOM      8  C   UNL     1       6.390   5.823  16.419  0.00  0.00    +0.000 C 
ATOM      9  O   UNL     1       7.411   6.413  16.078  0.00  0.00    +0.000 OA
ATOM     10  N   UNL     1       5.062   3.983  13.614  0.00  0.00    +0.000 NA
ATOM     11  H   UNL     1       4.747   4.625  15.930  0.00  0.00    +0.000 HD
ENDROOT
BRANCH   8  12
ATOM     12  C   UNL     1       5.806   6.069  17.803  0.00  0.00    +0.000 C 
BRANCH  12  13
ATOM     13  O   UNL     1       5.855   4.841  18.518  0.00  0.00    +0.000 OA
BRANCH  13  14
ATOM     14  C   UNL     1       4.741   4.479  19.221  0.00  0.00    +0.000 A 
ATOM     15  C   UNL     1       3.726   5.334  19.653  0.00  0.00    +0.000 A 
ATOM     16  C   UNL     1       2.620   4.817  20.337  0.00  0.00    +0.000 A 
ATOM     17  C   UNL     1       2.535   3.450  20.594  0.00  0.00    +0.000 A 
ATOM     18 CL   UNL     1       1.168   2.821  21.429  0.00  0.00    +0.000 Cl
ATOM     19  C   UNL     1       3.547   2.593  20.177  0.00  0.00    +0.000 A 
ATOM     20  C   UNL     1       4.650   3.111  19.494  0.00  0.00    +0.000 A 
ENDBRANCH  13  14
ENDBRANCH  12  13
ENDBRANCH   8  12
TORSDOF 3
ENDMDL
MODEL 8
REMARK VINA RESULT:      -7.0      2.024      2.557
REMARK  Name = 
REMARK  4 active torsions:
REMARK  status: ('A' for Active; 'I' for Inactive)
REMARK    1  A    between atoms: C_1  and  C_2
REMARK    2  A    between atoms: C_8  and  C_10
REMARK    3  A    between atoms: C_10  and  O_11
REMARK    4  A    between atoms: O_11  and  C_12
REMARK                            x       y       z     vdW  Elec       q    Type
REMARK                         _______ _______ _______ _____ _____    ______ ____
ROOT
ATOM      1  C   UNL     1       4.794   3.097  11.695  0.00  0.00    +0.000 C 
ATOM      2  C   UNL     1       5.796   3.776  12.581  0.00  0.00    +0.000 A 
ATOM      3  C   UNL     1       6.948   4.300  12.031  0.00  0.00    +0.000 A 
ATOM      4  C   UNL     1       7.794   4.935  12.901  0.00  0.00    +0.000 A 
ATOM      5  N   UNL     1       7.527   5.078  14.206  0.00  0.00    +0.000 NA
ATOM      6  C   UNL     1       6.391   4.547  14.671  0.00  0.00    +0.000 A 
ATOM      7  N   UNL     1       6.065   4.677  16.013  0.00  0.00    +0.000 N 
ATOM      8  C   UNL     1       6.657   5.594  16.860  0.00  0.00    +0.000 C 
ATOM      9  O   UNL     1       7.477   6.451  16.545  0.00  0.00    +0.000 OA
ATOM     10  N   UNL     1       5.516   3.867  13.905  0.00  0.00    +0.000 NA
ATOM     11  H   UNL     1       5.291   4.110  16.306  0.00  0.00    +0.000 HD
ENDROOT
BRANCH   8  12
ATOM     12  C   UNL     1       6.171   5.511  18.300  0.00  0.00    +0.000 C 
BRANCH  12  13
ATOM     13  O   UNL     1       4.805   5.117  18.275  0.00  0.00    +0.000 OA
BRANCH  13  14
ATOM     14  C   UNL     1       3.870   6.077  18.543  0.00  0.00    +0.000 A 
ATOM     15  C   UNL     1       3.044   6.130  19.667  0.00  0.00    +0.000 A 
ATOM     16  C   UNL     1       2.150   7.195  19.828  0.00  0.00    +0.000 A 
ATOM     17  C   UNL     1       2.080   8.199  18.865  0.00  0.00    +0.000 A 
ATOM     18 CL   UNL     1       0.985   9.510  19.074  0.00  0.00    +0.000 Cl
ATOM     19  C   UNL     1       2.893   8.149  17.737  0.00  0.00    +0.000 A 
ATOM     20  C   UNL     1       3.783   7.084  17.578  0.00  0.00    +0.000 A 
ENDBRANCH  13  14
ENDBRANCH  12  13
ENDBRANCH   8  12
TORSDOF 3
ENDMDL
MODEL 9
REMARK VINA RESULT:      -6.9      2.511      3.103
REMARK  Name = 
REMARK  4 active torsions:
REMARK  status: ('A' for Active; 'I' for Inactive)
REMARK    1  A    between atoms: C_1  and  C_2
REMARK    2  A    between atoms: C_8  and  C_10
REMARK    3  A    between atoms: C_10  and  O_11
REMARK    4  A    between atoms: O_11  and  C_12
REMARK                            x       y       z     vdW  Elec       q    Type
REMARK                         _______ _______ _______ _____ _____    ______ ____
ROOT
ATOM      1  C   UNL     1       5.848   2.541  11.681  0.00  0.00    +0.000 C 
ATOM      2  C   UNL     1       6.414   3.573  12.610  0.00  0.00    +0.000 A 
ATOM      3  C   UNL     1       7.477   4.351  12.199  0.00  0.00    +0.000 A 
ATOM      4  C   UNL     1       7.912   5.294  13.092  0.00  0.00    +0.000 A 
ATOM      5  N   UNL     1       7.337   5.489  14.286  0.00  0.00    +0.000 NA
ATOM      6  C   UNL     1       6.309   4.701  14.618  0.00  0.00    +0.000 A 
ATOM      7  N   UNL     1       5.673   4.871  15.839  0.00  0.00    +0.000 N 
ATOM      8  C   UNL     1       5.799   6.005  16.618  0.00  0.00    +0.000 C 
ATOM      9  O   UNL     1       6.412   7.027  16.320  0.00  0.00    +0.000 OA
ATOM     10  N   UNL     1       5.836   3.718  13.828  0.00  0.00    +0.000 NA
ATOM     11  H   UNL     1       5.032   4.137  16.076  0.00  0.00    +0.000 HD
ENDROOT
BRANCH   8  12
ATOM     12  C   UNL     1       5.048   5.937  17.940  0.00  0.00    +0.000 C 
BRANCH  12  13
ATOM     13  O   UNL     1       3.657   5.980  17.650  0.00  0.00    +0.000 OA
BRANCH  13  14
ATOM     14  C   UNL     1       2.892   6.852  18.373  0.00  0.00    +0.000 A 
ATOM     15  C   UNL     1       2.420   6.653  19.671  0.00  0.00    +0.000 A 
ATOM     16  C   UNL     1       1.672   7.652  20.305  0.00  0.00    +0.000 A 
ATOM     17  C   UNL     1       1.393   8.843  19.638  0.00  0.00    +0.000 A 
ATOM     18 CL   UNL     1       0.480  10.070  20.426  0.00  0.00    +0.000 Cl
ATOM     19  C   UNL     1       1.851   9.046  18.341  0.00  0.00    +0.000 A 
ATOM     20  C   UNL     1       2.597   8.047  17.711  0.00  0.00    +0.000 A 
ENDBRANCH  13  14
ENDBRANCH  12  13
ENDBRANCH   8  12
TORSDOF 3
ENDMDL
