MODEL 1
REMARK VINA RESULT:      -7.3      0.000      0.000
REMARK  Name = 
REMARK  5 active torsions:
REMARK  status: ('A' for Active; 'I' for Inactive)
REMARK    1  A    between atoms: C_2  and  C_18
REMARK    2  A    between atoms: N_3  and  C_4
REMARK    3  A    between atoms: C_4  and  C_5
REMARK    4  A    between atoms: C_5  and  N_6
REMARK    5  A    between atoms: C_9  and  N_10
REMARK                            x       y       z     vdW  Elec       q    Type
REMARK                         _______ _______ _______ _____ _____    ______ ____
ROOT
ATOM      1  N   UNL     1       6.676   4.318  18.499  0.00  0.00    +0.000 N 
ATOM      2  C   UNL     1       5.363   4.430  18.956  0.00  0.00    +0.000 A 
ATOM      3  C   UNL     1       4.651   5.604  18.837  0.00  0.00    +0.000 A 
ATOM      4  C   UNL     1       3.367   5.634  19.337  0.00  0.00    +0.000 A 
ATOM      5  N   UNL     1       2.781   4.541  19.868  0.00  0.00    +0.000 NA
ATOM      6  C   UNL     1       3.536   3.433  19.886  0.00  0.00    +0.000 A 
ATOM      7  N   UNL     1       4.807   3.328  19.470  0.00  0.00    +0.000 NA
ATOM      8  H   UNL     1       7.045   3.447  18.877  0.00  0.00    +0.000 HD
ENDROOT
BRANCH   4   9
ATOM      9  N   UNL     1       2.652   6.871  19.323  0.00  0.00    +0.000 N 
ATOM     10  C   UNL     1       1.937   7.443  20.361  0.00  0.00    +0.000 A 
ATOM     11  C   UNL     1       1.349   8.611  19.921  0.00  0.00    +0.000 A 
ATOM     12  C   UNL     1       1.721   8.774  18.571  0.00  0.00    +0.000 A 
ATOM     13  C   UNL     1       2.526   7.709  18.230  0.00  0.00    +0.000 A 
ENDBRANCH   4   9
BRANCH   1  14
ATOM     14  C   UNL     1       7.546   5.483  18.632  0.00  0.00    +0.000 C 
BRANCH  14  15
ATOM     15  C   UNL     1       7.448   6.392  17.404  0.00  0.00    +0.000 C 
BRANCH  15  18
ATOM     16  O   UNL     1       5.383   6.439  15.529  0.00  0.00    +0.000 OA
ATOM     17  C   UNL     1       6.345   5.712  15.292  0.00  0.00    +0.000 C 
ATOM     18  N   UNL     1       7.409   5.634  16.165  0.00  0.00    +0.000 N 
ATOM     19  H   UNL     1       8.149   4.973  15.960  0.00  0.00    +0.000 HD
BRANCH  17  20
ATOM     20  C   UNL     1       6.437   4.890  14.092  0.00  0.00    +0.000 A 
ATOM     21  C   UNL     1       5.552   3.901  13.705  0.00  0.00    +0.000 A 
ATOM     22  C   UNL     1       5.923   3.277  12.480  0.00  0.00    +0.000 A 
ATOM     23  C   UNL     1       7.087   3.804  11.968  0.00  0.00    +0.000 A 
ATOM     24  S   UNL     1       7.715   5.049  12.958  0.00  0.00    +0.000 S 
ENDBRANCH  17  20
ENDBRANCH  15  18
ENDBRANCH  14  15
ENDBRANCH   1  14
TORSDOF 5
ENDMDL
MODEL 2
REMARK VINA RESULT:      -7.3      2.582      6.887
REMARK  Name = 
REMARK  5 active torsions:
REMARK  status: ('A' for Active; 'I' for Inactive)
REMARK    1  A    between atoms: C_2  and  C_18
REMARK    2  A    between atoms: N_3  and  C_4
REMARK    3  A    between atoms: C_4  and  C_5
REMARK    4  A    between atoms: C_5  and  N_6
REMARK    5  A    between atoms: C_9  and  N_10
REMARK                            x       y       z     vdW  Elec       q    Type
REMARK                         _______ _______ _______ _____ _____    ______ ____
ROOT
ATOM      1  N   UNL     1       4.997   7.221  17.758  0.00  0.00    +0.000 N 
ATOM      2  C   UNL     1       5.854   6.240  17.259  0.00  0.00    +0.000 A 
ATOM      3  C   UNL     1       5.921   5.952  15.912  0.00  0.00    +0.000 A 
ATOM      4  C   UNL     1       6.778   4.951  15.509  0.00  0.00    +0.000 A 
ATOM      5  N   UNL     1       7.585   4.307  16.377  0.00  0.00    +0.000 NA
ATOM      6  C   UNL     1       7.486   4.699  17.656  0.00  0.00    +0.000 A 
ATOM      7  N   UNL     1       6.646   5.625  18.143  0.00  0.00    +0.000 NA
ATOM      8  H   UNL     1       4.976   7.106  18.770  0.00  0.00    +0.000 HD
ENDROOT
BRANCH   4   9
ATOM      9  N   UNL     1       6.782   4.563  14.133  0.00  0.00    +0.000 N 
ATOM     10  C   UNL     1       5.992   3.601  13.527  0.00  0.00    +0.000 A 
ATOM     11  C   UNL     1       6.346   3.492  12.198  0.00  0.00    +0.000 A 
ATOM     12  C   UNL     1       7.379   4.423  11.971  0.00  0.00    +0.000 A 
ATOM     13  C   UNL     1       7.620   5.074  13.161  0.00  0.00    +0.000 A 
ENDBRANCH   4   9
BRANCH   1  14
ATOM     14  C   UNL     1       3.697   7.383  17.114  0.00  0.00    +0.000 C 
BRANCH  14  15
ATOM     15  C   UNL     1       2.572   7.474  18.148  0.00  0.00    +0.000 C 
BRANCH  15  18
ATOM     16  O   UNL     1       1.652   4.889  17.647  0.00  0.00    +0.000 OA
ATOM     17  C   UNL     1       2.123   5.115  18.759  0.00  0.00    +0.000 C 
ATOM     18  N   UNL     1       2.603   6.366  19.087  0.00  0.00    +0.000 N 
ATOM     19  H   UNL     1       2.922   6.522  20.036  0.00  0.00    +0.000 HD
BRANCH  17  20
ATOM     20  C   UNL     1       2.210   4.100  19.801  0.00  0.00    +0.000 A 
ATOM     21  C   UNL     1       1.226   3.781  20.720  0.00  0.00    +0.000 A 
ATOM     22  C   UNL     1       1.621   2.743  21.612  0.00  0.00    +0.000 A 
ATOM     23  C   UNL     1       2.899   2.303  21.353  0.00  0.00    +0.000 A 
ATOM     24  S   UNL     1       3.607   3.132  20.035  0.00  0.00    +0.000 S 
ENDBRANCH  17  20
ENDBRANCH  15  18
ENDBRANCH  14  15
ENDBRANCH   1  14
TORSDOF 5
ENDMDL
MODEL 3
REMARK VINA RESULT:      -7.0      2.674      4.653
REMARK  Name = 
REMARK  5 active torsions:
REMARK  status: ('A' for Active; 'I' for Inactive)
REMARK    1  A    between atoms: C_2  and  C_18
REMARK    2  A    between atoms: N_3  and  C_4
REMARK    3  A    between atoms: C_4  and  C_5
REMARK    4  A    between atoms: C_5  and  N_6
REMARK    5  A    between atoms: C_9  and  N_10
REMARK                            x       y       z     vdW  Elec       q    Type
REMARK                         _______ _______ _______ _____ _____    ______ ____
ROOT
ATOM      1  N   UNL     1       2.873   6.623  19.200  0.00  0.00    +0.000 N 
ATOM      2  C   UNL     1       2.165   7.824  19.164  0.00  0.00    +0.000 A 
ATOM      3  C   UNL     1       1.557   8.342  20.288  0.00  0.00    +0.000 A 
ATOM      4  C   UNL     1       0.858   9.522  20.158  0.00  0.00    +0.000 A 
ATOM      5  N   UNL     1       0.813  10.202  18.994  0.00  0.00    +0.000 NA
ATOM      6  C   UNL     1       1.484   9.645  17.974  0.00  0.00    +0.000 A 
ATOM      7  N   UNL     1       2.146   8.478  17.998  0.00  0.00    +0.000 NA
ATOM      8  H   UNL     1       3.045   6.354  18.232  0.00  0.00    +0.000 HD
ENDROOT
BRANCH   4   9
ATOM      9  N   UNL     1       0.130  10.018  21.283  0.00  0.00    +0.000 N 
ATOM     10  C   UNL     1      -0.099   9.375  22.488  0.00  0.00    +0.000 A 
ATOM     11  C   UNL     1      -0.893  10.173  23.285  0.00  0.00    +0.000 A 
ATOM     12  C   UNL     1      -1.155  11.351  22.557  0.00  0.00    +0.000 A 
ATOM     13  C   UNL     1      -0.511  11.241  21.344  0.00  0.00    +0.000 A 
ENDBRANCH   4   9
BRANCH   1  14
ATOM     14  C   UNL     1       2.374   5.562  20.071  0.00  0.00    +0.000 C 
BRANCH  14  15
ATOM     15  C   UNL     1       2.806   4.182  19.569  0.00  0.00    +0.000 C 
BRANCH  15  18
ATOM     16  O   UNL     1       5.580   4.009  19.338  0.00  0.00    +0.000 OA
ATOM     17  C   UNL     1       4.937   4.172  18.304  0.00  0.00    +0.000 C 
ATOM     18  N   UNL     1       3.561   4.264  18.330  0.00  0.00    +0.000 N 
ATOM     19  H   UNL     1       3.078   4.463  17.462  0.00  0.00    +0.000 HD
BRANCH  17  20
ATOM     20  C   UNL     1       5.562   4.278  16.993  0.00  0.00    +0.000 A 
ATOM     21  C   UNL     1       4.949   4.067  15.771  0.00  0.00    +0.000 A 
ATOM     22  C   UNL     1       5.835   4.247  14.671  0.00  0.00    +0.000 A 
ATOM     23  C   UNL     1       7.103   4.586  15.084  0.00  0.00    +0.000 A 
ATOM     24  S   UNL     1       7.214   4.695  16.787  0.00  0.00    +0.000 S 
ENDBRANCH  17  20
ENDBRANCH  15  18
ENDBRANCH  14  15
ENDBRANCH   1  14
TORSDOF 5
ENDMDL
MODEL 4
REMARK VINA RESULT:      -7.0      4.676      8.029
REMARK  Name = 
REMARK  5 active torsions:
REMARK  status: ('A' for Active; 'I' for Inactive)
REMARK    1  A    between atoms: C_2  and  C_18
REMARK    2  A    between atoms: N_3  and  C_4
REMARK    3  A    between atoms: C_4  and  C_5
REMARK    4  A    between atoms: C_5  and  N_6
REMARK    5  A    between atoms: C_9  and  N_10
REMARK                            x       y       z     vdW  Elec       q    Type
REMARK                         _______ _______ _______ _____ _____    ______ ____
ROOT
ATOM      1  N   UNL     1       2.228   7.914  19.114  0.00  0.00    +0.000 N 
ATOM      2  C   UNL     1       2.751   6.647  18.860  0.00  0.00    +0.000 A 
ATOM      3  C   UNL     1       3.642   6.421  17.832  0.00  0.00    +0.000 A 
ATOM      4  C   UNL     1       4.090   5.133  17.638  0.00  0.00    +0.000 A 
ATOM      5  N   UNL     1       3.736   4.121  18.456  0.00  0.00    +0.000 NA
ATOM      6  C   UNL     1       2.911   4.453  19.460  0.00  0.00    +0.000 A 
ATOM      7  N   UNL     1       2.387   5.666  19.694  0.00  0.00    +0.000 NA
ATOM      8  H   UNL     1       1.457   7.789  19.769  0.00  0.00    +0.000 HD
ENDROOT
BRANCH   4   9
ATOM      9  N   UNL     1       4.927   4.859  16.512  0.00  0.00    +0.000 N 
ATOM     10  C   UNL     1       5.438   3.633  16.121  0.00  0.00    +0.000 A 
ATOM     11  C   UNL     1       6.244   3.808  15.015  0.00  0.00    +0.000 A 
ATOM     12  C   UNL     1       6.222   5.182  14.704  0.00  0.00    +0.000 A 
ATOM     13  C   UNL     1       5.402   5.802  15.621  0.00  0.00    +0.000 A 
ENDBRANCH   4   9
BRANCH   1  14
ATOM     14  C   UNL     1       1.950   8.779  17.970  0.00  0.00    +0.000 C 
BRANCH  14  15
ATOM     15  C   UNL     1       1.279  10.082  18.410  0.00  0.00    +0.000 C 
BRANCH  15  18
ATOM     16  O   UNL     1      -1.191  10.556  19.617  0.00  0.00    +0.000 OA
ATOM     17  C   UNL     1      -1.157  10.536  18.389  0.00  0.00    +0.000 C 
ATOM     18  N   UNL     1       0.025  10.312  17.714  0.00  0.00    +0.000 N 
ATOM     19  H   UNL     1      -0.008  10.240  16.704  0.00  0.00    +0.000 HD
BRANCH  17  20
ATOM     20  C   UNL     1      -2.339  10.744  17.563  0.00  0.00    +0.000 A 
ATOM     21  C   UNL     1      -2.481  10.397  16.231  0.00  0.00    +0.000 A 
ATOM     22  C   UNL     1      -3.760  10.735  15.706  0.00  0.00    +0.000 A 
ATOM     23  C   UNL     1      -4.559  11.338  16.651  0.00  0.00    +0.000 A 
ATOM     24  S   UNL     1      -3.768  11.481  18.161  0.00  0.00    +0.000 S 
ENDBRANCH  17  20
ENDBRANCH  15  18
ENDBRANCH  14  15
ENDBRANCH   1  14
TORSDOF 5
ENDMDL
MODEL 5
REMARK VINA RESULT:      -6.9      0.846      1.007
REMARK  Name = 
REMARK  5 active torsions:
REMARK  status: ('A' for Active; 'I' for Inactive)
REMARK    1  A    between atoms: C_2  and  C_18
REMARK    2  A    between atoms: N_3  and  C_4
REMARK    3  A    between atoms: C_4  and  C_5
REMARK    4  A    between atoms: C_5  and  N_6
REMARK    5  A    between atoms: C_9  and  N_10
REMARK                            x       y       z     vdW  Elec       q    Type
REMARK                         _______ _______ _______ _____ _____    ______ ____
ROOT
ATOM      1  N   UNL     1       6.110   4.084  18.427  0.00  0.00    +0.000 N 
ATOM      2  C   UNL     1       4.773   4.323  18.742  0.00  0.00    +0.000 A 
ATOM      3  C   UNL     1       4.231   5.590  18.693  0.00  0.00    +0.000 A 
ATOM      4  C   UNL     1       2.907   5.739  19.043  0.00  0.00    +0.000 A 
ATOM      5  N   UNL     1       2.128   4.685  19.361  0.00  0.00    +0.000 NA
ATOM      6  C   UNL     1       2.733   3.489  19.323  0.00  0.00    +0.000 A 
ATOM      7  N   UNL     1       4.025   3.257  19.044  0.00  0.00    +0.000 NA
ATOM      8  H   UNL     1       6.318   3.133  18.730  0.00  0.00    +0.000 HD
ENDROOT
BRANCH   4   9
ATOM      9  N   UNL     1       2.357   7.057  19.106  0.00  0.00    +0.000 N 
ATOM     10  C   UNL     1       1.803   7.687  20.207  0.00  0.00    +0.000 A 
ATOM     11  C   UNL     1       1.337   8.930  19.834  0.00  0.00    +0.000 A 
ATOM     12  C   UNL     1       1.622   9.081  18.462  0.00  0.00    +0.000 A 
ATOM     13  C   UNL     1       2.255   7.932  18.041  0.00  0.00    +0.000 A 
ENDBRANCH   4   9
BRANCH   1  14
ATOM     14  C   UNL     1       7.092   5.097  18.805  0.00  0.00    +0.000 C 
BRANCH  14  15
ATOM     15  C   UNL     1       7.413   6.025  17.631  0.00  0.00    +0.000 C 
BRANCH  15  18
ATOM     16  O   UNL     1       5.585   6.527  15.585  0.00  0.00    +0.000 OA
ATOM     17  C   UNL     1       6.415   5.640  15.396  0.00  0.00    +0.000 C 
ATOM     18  N   UNL     1       7.356   5.332  16.356  0.00  0.00    +0.000 N 
ATOM     19  H   UNL     1       7.978   4.550  16.183  0.00  0.00    +0.000 HD
BRANCH  17  20
ATOM     20  C   UNL     1       6.470   4.858  14.168  0.00  0.00    +0.000 A 
ATOM     21  C   UNL     1       7.418   4.969  13.167  0.00  0.00    +0.000 A 
ATOM     22  C   UNL     1       7.194   4.062  12.092  0.00  0.00    +0.000 A 
ATOM     23  C   UNL     1       6.075   3.288  12.300  0.00  0.00    +0.000 A 
ATOM     24  S   UNL     1       5.313   3.650  13.788  0.00  0.00    +0.000 S 
ENDBRANCH  17  20
ENDBRANCH  15  18
ENDBRANCH  14  15
ENDBRANCH   1  14
TORSDOF 5
ENDMDL
MODEL 6
REMARK VINA RESULT:      -6.9      4.339      7.970
REMARK  Name = 
REMARK  5 active torsions:
REMARK  status: ('A' for Active; 'I' for Inactive)
REMARK    1  A    between atoms: C_2  and  C_18
REMARK    2  A    between atoms: N_3  and  C_4
REMARK    3  A    between atoms: C_4  and  C_5
REMARK    4  A    between atoms: C_5  and  N_6
REMARK    5  A    between atoms: C_9  and  N_10
REMARK                            x       y       z     vdW  Elec       q    Type
REMARK                         _______ _______ _______ _____ _____    ______ ____
ROOT
ATOM      1  N   UNL     1       2.065   7.831  19.303  0.00  0.00    +0.000 N 
ATOM      2  C   UNL     1       2.667   6.576  19.219  0.00  0.00    +0.000 A 
ATOM      3  C   UNL     1       3.696   6.322  18.336  0.00  0.00    +0.000 A 
ATOM      4  C   UNL     1       4.218   5.047  18.303  0.00  0.00    +0.000 A 
ATOM      5  N   UNL     1       3.797   4.080  19.145  0.00  0.00    +0.000 NA
ATOM      6  C   UNL     1       2.833   4.442  20.004  0.00  0.00    +0.000 A 
ATOM      7  N   UNL     1       2.235   5.641  20.072  0.00  0.00    +0.000 NA
ATOM      8  H   UNL     1       1.219   7.714  19.859  0.00  0.00    +0.000 HD
ENDROOT
BRANCH   4   9
ATOM      9  N   UNL     1       5.207   4.734  17.321  0.00  0.00    +0.000 N 
ATOM     10  C   UNL     1       5.001   4.230  16.048  0.00  0.00    +0.000 A 
ATOM     11  C   UNL     1       6.221   4.015  15.441  0.00  0.00    +0.000 A 
ATOM     12  C   UNL     1       7.214   4.410  16.360  0.00  0.00    +0.000 A 
ATOM     13  C   UNL     1       6.573   4.857  17.496  0.00  0.00    +0.000 A 
ENDBRANCH   4   9
BRANCH   1  14
ATOM     14  C   UNL     1       1.908   8.596  18.068  0.00  0.00    +0.000 C 
BRANCH  14  15
ATOM     15  C   UNL     1       1.461  10.031  18.358  0.00  0.00    +0.000 C 
BRANCH  15  18
ATOM     16  O   UNL     1      -0.959  10.217  19.733  0.00  0.00    +0.000 OA
ATOM     17  C   UNL     1      -0.984  10.401  18.518  0.00  0.00    +0.000 C 
ATOM     18  N   UNL     1       0.170  10.331  17.765  0.00  0.00    +0.000 N 
ATOM     19  H   UNL     1       0.090  10.425  16.759  0.00  0.00    +0.000 HD
BRANCH  17  20
ATOM     20  C   UNL     1      -2.209  10.703  17.789  0.00  0.00    +0.000 A 
ATOM     21  C   UNL     1      -3.242  11.515  18.221  0.00  0.00    +0.000 A 
ATOM     22  C   UNL     1      -4.304  11.605  17.277  0.00  0.00    +0.000 A 
ATOM     23  C   UNL     1      -4.054  10.854  16.151  0.00  0.00    +0.000 A 
ATOM     24  S   UNL     1      -2.544  10.057  16.236  0.00  0.00    +0.000 S 
ENDBRANCH  17  20
ENDBRANCH  15  18
ENDBRANCH  14  15
ENDBRANCH   1  14
TORSDOF 5
ENDMDL
MODEL 7
REMARK VINA RESULT:      -6.8      3.014      3.969
REMARK  Name = 
REMARK  5 active torsions:
REMARK  status: ('A' for Active; 'I' for Inactive)
REMARK    1  A    between atoms: C_2  and  C_18
REMARK    2  A    between atoms: N_3  and  C_4
REMARK    3  A    between atoms: C_4  and  C_5
REMARK    4  A    between atoms: C_5  and  N_6
REMARK    5  A    between atoms: C_9  and  N_10
REMARK                            x       y       z     vdW  Elec       q    Type
REMARK                         _______ _______ _______ _____ _____    ______ ____
ROOT
ATOM      1  N   UNL     1       1.974   1.858  18.676  0.00  0.00    +0.000 N 
ATOM      2  C   UNL     1       2.001   2.920  19.580  0.00  0.00    +0.000 A 
ATOM      3  C   UNL     1       1.910   4.231  19.162  0.00  0.00    +0.000 A 
ATOM      4  C   UNL     1       1.968   5.219  20.121  0.00  0.00    +0.000 A 
ATOM      5  N   UNL     1       2.043   4.935  21.437  0.00  0.00    +0.000 NA
ATOM      6  C   UNL     1       2.069   3.630  21.745  0.00  0.00    +0.000 A 
ATOM      7  N   UNL     1       2.067   2.606  20.878  0.00  0.00    +0.000 NA
ATOM      8  H   UNL     1       2.259   1.027  19.192  0.00  0.00    +0.000 HD
ENDROOT
BRANCH   4   9
ATOM      9  N   UNL     1       1.986   6.585  19.700  0.00  0.00    +0.000 N 
ATOM     10  C   UNL     1       1.604   7.697  20.432  0.00  0.00    +0.000 A 
ATOM     11  C   UNL     1       1.720   8.822  19.642  0.00  0.00    +0.000 A 
ATOM     12  C   UNL     1       2.202   8.397  18.388  0.00  0.00    +0.000 A 
ATOM     13  C   UNL     1       2.369   7.031  18.449  0.00  0.00    +0.000 A 
ENDBRANCH   4   9
BRANCH   1  14
ATOM     14  C   UNL     1       2.619   2.049  17.380  0.00  0.00    +0.000 C 
BRANCH  14  15
ATOM     15  C   UNL     1       4.138   1.901  17.488  0.00  0.00    +0.000 C 
BRANCH  15  18
ATOM     16  O   UNL     1       5.298   3.416  19.522  0.00  0.00    +0.000 OA
ATOM     17  C   UNL     1       5.369   3.858  18.378  0.00  0.00    +0.000 C 
ATOM     18  N   UNL     1       4.824   3.169  17.315  0.00  0.00    +0.000 N 
ATOM     19  H   UNL     1       4.850   3.604  16.400  0.00  0.00    +0.000 HD
BRANCH  17  20
ATOM     20  C   UNL     1       6.021   5.122  18.059  0.00  0.00    +0.000 A 
ATOM     21  C   UNL     1       5.541   6.100  17.207  0.00  0.00    +0.000 A 
ATOM     22  C   UNL     1       6.416   7.219  17.103  0.00  0.00    +0.000 A 
ATOM     23  C   UNL     1       7.544   7.060  17.876  0.00  0.00    +0.000 A 
ATOM     24  S   UNL     1       7.536   5.576  18.724  0.00  0.00    +0.000 S 
ENDBRANCH  17  20
ENDBRANCH  15  18
ENDBRANCH  14  15
ENDBRANCH   1  14
TORSDOF 5
ENDMDL
MODEL 8
REMARK VINA RESULT:      -6.8      2.808      6.762
REMARK  Name = 
REMARK  5 active torsions:
REMARK  status: ('A' for Active; 'I' for Inactive)
REMARK    1  A    between atoms: C_2  and  C_18
REMARK    2  A    between atoms: N_3  and  C_4
REMARK    3  A    between atoms: C_4  and  C_5
REMARK    4  A    between atoms: C_5  and  N_6
REMARK    5  A    between atoms: C_9  and  N_10
REMARK                            x       y       z     vdW  Elec       q    Type
REMARK                         _______ _______ _______ _____ _____    ______ ____
ROOT
ATOM      1  N   UNL     1       4.569   4.058  19.290  0.00  0.00    +0.000 N 
ATOM      2  C   UNL     1       5.629   4.333  18.427  0.00  0.00    +0.000 A 
ATOM      3  C   UNL     1       5.488   4.258  17.057  0.00  0.00    +0.000 A 
ATOM      4  C   UNL     1       6.594   4.524  16.279  0.00  0.00    +0.000 A 
ATOM      5  N   UNL     1       7.769   4.912  16.815  0.00  0.00    +0.000 NA
ATOM      6  C   UNL     1       7.788   5.010  18.153  0.00  0.00    +0.000 A 
ATOM      7  N   UNL     1       6.778   4.724  18.988  0.00  0.00    +0.000 NA
ATOM      8  H   UNL     1       4.965   3.979  20.226  0.00  0.00    +0.000 HD
ENDROOT
BRANCH   4   9
ATOM      9  N   UNL     1       6.498   4.344  14.864  0.00  0.00    +0.000 N 
ATOM     10  C   UNL     1       5.567   3.589  14.172  0.00  0.00    +0.000 A 
ATOM     11  C   UNL     1       5.857   3.633  12.824  0.00  0.00    +0.000 A 
ATOM     12  C   UNL     1       6.995   4.452  12.675  0.00  0.00    +0.000 A 
ATOM     13  C   UNL     1       7.361   4.885  13.930  0.00  0.00    +0.000 A 
ENDBRANCH   4   9
BRANCH   1  14
ATOM     14  C   UNL     1       3.635   3.002  18.909  0.00  0.00    +0.000 C 
BRANCH  14  15
ATOM     15  C   UNL     1       2.185   3.486  18.995  0.00  0.00    +0.000 C 
BRANCH  15  18
ATOM     16  O   UNL     1       2.187   5.515  20.909  0.00  0.00    +0.000 OA
ATOM     17  C   UNL     1       2.074   5.849  19.732  0.00  0.00    +0.000 C 
ATOM     18  N   UNL     1       2.068   4.908  18.723  0.00  0.00    +0.000 N 
ATOM     19  H   UNL     1       1.906   5.226  17.775  0.00  0.00    +0.000 HD
BRANCH  17  20
ATOM     20  C   UNL     1       1.940   7.239  19.315  0.00  0.00    +0.000 A 
ATOM     21  C   UNL     1       2.282   7.762  18.081  0.00  0.00    +0.000 A 
ATOM     22  C   UNL     1       2.031   9.160  17.986  0.00  0.00    +0.000 A 
ATOM     23  C   UNL     1       1.509   9.668  19.154  0.00  0.00    +0.000 A 
ATOM     24  S   UNL     1       1.316   8.458  20.348  0.00  0.00    +0.000 S 
ENDBRANCH  17  20
ENDBRANCH  15  18
ENDBRANCH  14  15
ENDBRANCH   1  14
TORSDOF 5
ENDMDL
MODEL 9
REMARK VINA RESULT:      -6.8      3.569      5.353
REMARK  Name = 
REMARK  5 active torsions:
REMARK  status: ('A' for Active; 'I' for Inactive)
REMARK    1  A    between atoms: C_2  and  C_18
REMARK    2  A    between atoms: N_3  and  C_4
REMARK    3  A    between atoms: C_4  and  C_5
REMARK    4  A    between atoms: C_5  and  N_6
REMARK    5  A    between atoms: C_9  and  N_10
REMARK                            x       y       z     vdW  Elec       q    Type
REMARK                         _______ _______ _______ _____ _____    ______ ____
ROOT
ATOM      1  N   UNL     1       7.118   4.693  18.731  0.00  0.00    +0.000 N 
ATOM      2  C   UNL     1       5.727   4.667  18.819  0.00  0.00    +0.000 A 
ATOM      3  C   UNL     1       4.972   5.819  18.739  0.00  0.00    +0.000 A 
ATOM      4  C   UNL     1       3.604   5.704  18.859  0.00  0.00    +0.000 A 
ATOM      5  N   UNL     1       2.995   4.507  18.984  0.00  0.00    +0.000 NA
ATOM      6  C   UNL     1       3.812   3.443  18.994  0.00  0.00    +0.000 A 
ATOM      7  N   UNL     1       5.152   3.465  18.934  0.00  0.00    +0.000 NA
ATOM      8  H   UNL     1       7.448   3.773  19.020  0.00  0.00    +0.000 HD
ENDROOT
BRANCH   4   9
ATOM      9  N   UNL     1       2.814   6.895  18.890  0.00  0.00    +0.000 N 
ATOM     10  C   UNL     1       2.659   7.828  17.879  0.00  0.00    +0.000 A 
ATOM     11  C   UNL     1       1.859   8.858  18.331  0.00  0.00    +0.000 A 
ATOM     12  C   UNL     1       1.497   8.547  19.657  0.00  0.00    +0.000 A 
ATOM     13  C   UNL     1       2.080   7.339  19.973  0.00  0.00    +0.000 A 
ENDBRANCH   4   9
BRANCH   1  14
ATOM     14  C   UNL     1       7.818   5.830  19.325  0.00  0.00    +0.000 C 
BRANCH  14  15
ATOM     15  C   UNL     1       7.937   6.988  18.332  0.00  0.00    +0.000 C 
BRANCH  15  18
ATOM     16  O   UNL     1       7.745   9.644  17.502  0.00  0.00    +0.000 OA
ATOM     17  C   UNL     1       8.532   9.392  18.410  0.00  0.00    +0.000 C 
ATOM     18  N   UNL     1       8.685   8.105  18.882  0.00  0.00    +0.000 N 
ATOM     19  H   UNL     1       9.393   7.935  19.587  0.00  0.00    +0.000 HD
BRANCH  17  20
ATOM     20  C   UNL     1       9.353  10.412  19.050  0.00  0.00    +0.000 A 
ATOM     21  C   UNL     1       9.416  10.684  20.405  0.00  0.00    +0.000 A 
ATOM     22  C   UNL     1      10.314  11.745  20.713  0.00  0.00    +0.000 A 
ATOM     23  C   UNL     1      10.908  12.259  19.583  0.00  0.00    +0.000 A 
ATOM     24  S   UNL     1      10.390  11.454  18.166  0.00  0.00    +0.000 S 
ENDBRANCH  17  20
ENDBRANCH  15  18
ENDBRANCH  14  15
ENDBRANCH   1  14
TORSDOF 5
ENDMDL
