MODEL 1
REMARK VINA RESULT:      -8.7      0.000      0.000
REMARK  Name = 
REMARK  10 active torsions:
REMARK  status: ('A' for Active; 'I' for Inactive)
REMARK    1  A    between atoms: C_1  and  O_2
REMARK    2  A    between atoms: O_2  and  C_3
REMARK    3  A    between atoms: C_6  and  C_7
REMARK    4  A    between atoms: C_7  and  N_8
REMARK    5  A    between atoms: N_8  and  C_9
REMARK    6  A    between atoms: N_8  and  S_16
REMARK    7  A    between atoms: C_9  and  C_10
REMARK    8  A    between atoms: S_16  and  C_19
REMARK    9  A    between atoms: C_22  and  C_23
REMARK   10  A    between atoms: C_23  and  O_25
REMARK                            x       y       z     vdW  Elec       q    Type
REMARK                         _______ _______ _______ _____ _____    ______ ____
ROOT
ATOM      1  N   UNL     1       3.538   5.378  18.950  0.00  0.00    +0.000 NA
ENDROOT
BRANCH   1   2
ATOM      2  S   UNL     1       5.147   4.699  18.924  0.00  0.00    +0.000 S 
ATOM      3  O   UNL     1       6.037   5.552  19.678  0.00  0.00    +0.000 OA
ATOM      4  O   UNL     1       5.001   3.294  19.249  0.00  0.00    +0.000 OA
BRANCH   2   5
ATOM      5  C   UNL     1       5.725   4.792  17.242  0.00  0.00    +0.000 A 
ATOM      6  C   UNL     1       6.714   5.713  16.895  0.00  0.00    +0.000 A 
ATOM      7  C   UNL     1       7.215   5.721  15.588  0.00  0.00    +0.000 A 
ATOM      8  C   UNL     1       6.740   4.805  14.633  0.00  0.00    +0.000 A 
ATOM      9  C   UNL     1       5.780   3.855  15.006  0.00  0.00    +0.000 A 
ATOM     10  C   UNL     1       5.264   3.857  16.307  0.00  0.00    +0.000 A 
BRANCH   8  11
ATOM     11  C   UNL     1       7.330   4.851  13.267  0.00  0.00    +0.000 C 
ATOM     12  O   UNL     1       8.176   5.668  12.943  0.00  0.00    +0.000 OA
BRANCH  11  13
ATOM     13  O   UNL     1       6.823   3.947  12.403  0.00  0.00    +0.000 OA
ATOM     14  H   UNL     1       7.436   3.606  11.729  0.00  0.00    +0.000 HD
ENDBRANCH  11  13
ENDBRANCH   8  11
ENDBRANCH   2   5
ENDBRANCH   1   2
BRANCH   1  15
ATOM     15  C   UNL     1       3.513   6.719  18.276  0.00  0.00    +0.000 C 
BRANCH  15  19
ATOM     16  C   UNL     1       0.784   9.873  19.434  0.00  0.00    +0.000 A 
ATOM     17  C   UNL     1       1.145   8.895  20.364  0.00  0.00    +0.000 A 
ATOM     18  C   UNL     1       1.971   7.822  19.992  0.00  0.00    +0.000 A 
ATOM     19  C   UNL     1       2.434   7.708  18.676  0.00  0.00    +0.000 A 
ATOM     20  C   UNL     1       1.998   8.657  17.735  0.00  0.00    +0.000 A 
ATOM     21  C   UNL     1       1.179   9.729  18.110  0.00  0.00    +0.000 A 
BRANCH  16  23
ATOM     22  C   UNL     1       0.203  11.229  21.276  0.00  0.00    +0.000 C 
ATOM     23  O   UNL     1       0.015  10.906  19.898  0.00  0.00    +0.000 OA
ENDBRANCH  16  23
ENDBRANCH  15  19
ENDBRANCH   1  15
BRANCH   1  24
ATOM     24  C   UNL     1       2.508   4.454  18.292  0.00  0.00    +0.000 C 
BRANCH  24  25
ATOM     25  C   UNL     1       1.253   4.149  19.142  0.00  0.00    +0.000 C 
ATOM     26  C   UNL     1       0.883   2.658  19.145  0.00  0.00    +0.000 C 
ATOM     27  C   UNL     1       1.751   1.819  20.079  0.00  0.00    +0.000 C 
ATOM     28  C   UNL     1       1.742   2.376  21.497  0.00  0.00    +0.000 C 
ATOM     29  C   UNL     1       2.203   3.828  21.521  0.00  0.00    +0.000 C 
ATOM     30  C   UNL     1       1.374   4.695  20.581  0.00  0.00    +0.000 C 
ENDBRANCH  24  25
ENDBRANCH   1  24
TORSDOF 9
ENDMDL
MODEL 2
REMARK VINA RESULT:      -8.7      0.485      1.181
REMARK  Name = 
REMARK  10 active torsions:
REMARK  status: ('A' for Active; 'I' for Inactive)
REMARK    1  A    between atoms: C_1  and  O_2
REMARK    2  A    between atoms: O_2  and  C_3
REMARK    3  A    between atoms: C_6  and  C_7
REMARK    4  A    between atoms: C_7  and  N_8
REMARK    5  A    between atoms: N_8  and  C_9
REMARK    6  A    between atoms: N_8  and  S_16
REMARK    7  A    between atoms: C_9  and  C_10
REMARK    8  A    between atoms: S_16  and  C_19
REMARK    9  A    between atoms: C_22  and  C_23
REMARK   10  A    between atoms: C_23  and  O_25
REMARK                            x       y       z     vdW  Elec       q    Type
REMARK                         _______ _______ _______ _____ _____    ______ ____
ROOT
ATOM      1  N   UNL     1       3.546   5.325  18.938  0.00  0.00    +0.000 NA
ENDROOT
BRANCH   1   2
ATOM      2  S   UNL     1       5.145   4.627  19.020  0.00  0.00    +0.000 S 
ATOM      3  O   UNL     1       6.018   5.519  19.748  0.00  0.00    +0.000 OA
ATOM      4  O   UNL     1       4.967   3.249  19.433  0.00  0.00    +0.000 OA
BRANCH   2   5
ATOM      5  C   UNL     1       5.787   4.599  17.358  0.00  0.00    +0.000 A 
ATOM      6  C   UNL     1       5.196   3.778  16.397  0.00  0.00    +0.000 A 
ATOM      7  C   UNL     1       5.660   3.825  15.078  0.00  0.00    +0.000 A 
ATOM      8  C   UNL     1       6.699   4.698  14.714  0.00  0.00    +0.000 A 
ATOM      9  C   UNL     1       7.253   5.551  15.678  0.00  0.00    +0.000 A 
ATOM     10  C   UNL     1       6.804   5.493  17.002  0.00  0.00    +0.000 A 
BRANCH   8  11
ATOM     11  C   UNL     1       7.131   4.716  13.288  0.00  0.00    +0.000 C 
ATOM     12  O   UNL     1       6.688   3.940  12.458  0.00  0.00    +0.000 OA
BRANCH  11  13
ATOM     13  O   UNL     1       8.082   5.627  12.999  0.00  0.00    +0.000 OA
ATOM     14  H   UNL     1       8.135   6.396  13.592  0.00  0.00    +0.000 HD
ENDBRANCH  11  13
ENDBRANCH   8  11
ENDBRANCH   2   5
ENDBRANCH   1   2
BRANCH   1  15
ATOM     15  C   UNL     1       3.589   6.688  18.309  0.00  0.00    +0.000 C 
BRANCH  15  19
ATOM     16  C   UNL     1       0.813   9.848  19.328  0.00  0.00    +0.000 A 
ATOM     17  C   UNL     1       1.146   8.886  20.284  0.00  0.00    +0.000 A 
ATOM     18  C   UNL     1       1.988   7.811  19.957  0.00  0.00    +0.000 A 
ATOM     19  C   UNL     1       2.494   7.679  18.658  0.00  0.00    +0.000 A 
ATOM     20  C   UNL     1       2.087   8.611  17.689  0.00  0.00    +0.000 A 
ATOM     21  C   UNL     1       1.252   9.685  18.020  0.00  0.00    +0.000 A 
BRANCH  16  23
ATOM     22  C   UNL     1       0.123  12.076  18.966  0.00  0.00    +0.000 C 
ATOM     23  O   UNL     1       0.025  10.886  19.750  0.00  0.00    +0.000 OA
ENDBRANCH  16  23
ENDBRANCH  15  19
ENDBRANCH   1  15
BRANCH   1  24
ATOM     24  C   UNL     1       2.564   4.436  18.169  0.00  0.00    +0.000 C 
BRANCH  24  25
ATOM     25  C   UNL     1       1.278   4.050  18.937  0.00  0.00    +0.000 C 
ATOM     26  C   UNL     1       1.023   2.535  18.950  0.00  0.00    +0.000 C 
ATOM     27  C   UNL     1       1.884   1.784  19.962  0.00  0.00    +0.000 C 
ATOM     28  C   UNL     1       1.731   2.365  21.362  0.00  0.00    +0.000 C 
ATOM     29  C   UNL     1       2.077   3.849  21.383  0.00  0.00    +0.000 C 
ATOM     30  C   UNL     1       1.254   4.631  20.366  0.00  0.00    +0.000 C 
ENDBRANCH  24  25
ENDBRANCH   1  24
TORSDOF 9
ENDMDL
MODEL 3
REMARK VINA RESULT:      -8.6      0.257      1.292
REMARK  Name = 
REMARK  10 active torsions:
REMARK  status: ('A' for Active; 'I' for Inactive)
REMARK    1  A    between atoms: C_1  and  O_2
REMARK    2  A    between atoms: O_2  and  C_3
REMARK    3  A    between atoms: C_6  and  C_7
REMARK    4  A    between atoms: C_7  and  N_8
REMARK    5  A    between atoms: N_8  and  C_9
REMARK    6  A    between atoms: N_8  and  S_16
REMARK    7  A    between atoms: C_9  and  C_10
REMARK    8  A    between atoms: S_16  and  C_19
REMARK    9  A    between atoms: C_22  and  C_23
REMARK   10  A    between atoms: C_23  and  O_25
REMARK                            x       y       z     vdW  Elec       q    Type
REMARK                         _______ _______ _______ _____ _____    ______ ____
ROOT
ATOM      1  N   UNL     1       3.388   5.285  18.800  0.00  0.00    +0.000 NA
ENDROOT
BRANCH   1   2
ATOM      2  S   UNL     1       5.007   4.650  18.956  0.00  0.00    +0.000 S 
ATOM      3  O   UNL     1       5.811   5.576  19.721  0.00  0.00    +0.000 OA
ATOM      4  O   UNL     1       4.863   3.267  19.366  0.00  0.00    +0.000 OA
BRANCH   2   5
ATOM      5  C   UNL     1       5.724   4.644  17.326  0.00  0.00    +0.000 A 
ATOM      6  C   UNL     1       5.214   3.795  16.344  0.00  0.00    +0.000 A 
ATOM      7  C   UNL     1       5.735   3.858  15.046  0.00  0.00    +0.000 A 
ATOM      8  C   UNL     1       6.752   4.773  14.726  0.00  0.00    +0.000 A 
ATOM      9  C   UNL     1       7.225   5.652  15.710  0.00  0.00    +0.000 A 
ATOM     10  C   UNL     1       6.719   5.579  17.012  0.00  0.00    +0.000 A 
BRANCH   8  11
ATOM     11  C   UNL     1       7.247   4.805  13.322  0.00  0.00    +0.000 C 
ATOM     12  O   UNL     1       8.062   5.624  12.931  0.00  0.00    +0.000 OA
BRANCH  11  13
ATOM     13  O   UNL     1       6.691   3.885  12.507  0.00  0.00    +0.000 OA
ATOM     14  H   UNL     1       6.997   2.969  12.620  0.00  0.00    +0.000 HD
ENDBRANCH  11  13
ENDBRANCH   8  11
ENDBRANCH   2   5
ENDBRANCH   1   2
BRANCH   1  15
ATOM     15  C   UNL     1       3.395   6.587  18.052  0.00  0.00    +0.000 C 
BRANCH  15  19
ATOM     16  C   UNL     1       0.637   9.557  19.574  0.00  0.00    +0.000 A 
ATOM     17  C   UNL     1       1.104   9.656  18.261  0.00  0.00    +0.000 A 
ATOM     18  C   UNL     1       2.054   8.746  17.767  0.00  0.00    +0.000 A 
ATOM     19  C   UNL     1       2.560   7.734  18.592  0.00  0.00    +0.000 A 
ATOM     20  C   UNL     1       2.138   7.697  19.931  0.00  0.00    +0.000 A 
ATOM     21  C   UNL     1       1.187   8.601  20.419  0.00  0.00    +0.000 A 
BRANCH  16  23
ATOM     22  C   UNL     1      -0.196  10.950  21.288  0.00  0.00    +0.000 C 
ATOM     23  O   UNL     1      -0.323  10.457  19.953  0.00  0.00    +0.000 OA
ENDBRANCH  16  23
ENDBRANCH  15  19
ENDBRANCH   1  15
BRANCH   1  24
ATOM     24  C   UNL     1       2.443   4.299  18.104  0.00  0.00    +0.000 C 
BRANCH  24  25
ATOM     25  C   UNL     1       1.201   3.882  18.924  0.00  0.00    +0.000 C 
ATOM     26  C   UNL     1       1.069   2.358  19.073  0.00  0.00    +0.000 C 
ATOM     27  C   UNL     1       1.997   1.769  20.131  0.00  0.00    +0.000 C 
ATOM     28  C   UNL     1       1.813   2.456  21.478  0.00  0.00    +0.000 C 
ATOM     29  C   UNL     1       2.039   3.958  21.365  0.00  0.00    +0.000 C 
ATOM     30  C   UNL     1       1.144   4.582  20.299  0.00  0.00    +0.000 C 
ENDBRANCH  24  25
ENDBRANCH   1  24
TORSDOF 9
ENDMDL
MODEL 4
REMARK VINA RESULT:      -8.1      1.015      1.542
REMARK  Name = 
REMARK  10 active torsions:
REMARK  status: ('A' for Active; 'I' for Inactive)
REMARK    1  A    between atoms: C_1  and  O_2
REMARK    2  A    between atoms: O_2  and  C_3
REMARK    3  A    between atoms: C_6  and  C_7
REMARK    4  A    between atoms: C_7  and  N_8
REMARK    5  A    between atoms: N_8  and  C_9
REMARK    6  A    between atoms: N_8  and  S_16
REMARK    7  A    between atoms: C_9  and  C_10
REMARK    8  A    between atoms: S_16  and  C_19
REMARK    9  A    between atoms: C_22  and  C_23
REMARK   10  A    between atoms: C_23  and  O_25
REMARK                            x       y       z     vdW  Elec       q    Type
REMARK                         _______ _______ _______ _____ _____    ______ ____
ROOT
ATOM      1  N   UNL     1       4.209   5.644  18.496  0.00  0.00    +0.000 NA
ENDROOT
BRANCH   1   2
ATOM      2  S   UNL     1       5.904   5.347  18.200  0.00  0.00    +0.000 S 
ATOM      3  O   UNL     1       6.637   6.585  18.337  0.00  0.00    +0.000 OA
ATOM      4  O   UNL     1       6.254   4.178  18.983  0.00  0.00    +0.000 OA
BRANCH   2   5
ATOM      5  C   UNL     1       6.063   4.897  16.484  0.00  0.00    +0.000 A 
ATOM      6  C   UNL     1       6.958   5.584  15.664  0.00  0.00    +0.000 A 
ATOM      7  C   UNL     1       7.131   5.168  14.339  0.00  0.00    +0.000 A 
ATOM      8  C   UNL     1       6.422   4.063  13.836  0.00  0.00    +0.000 A 
ATOM      9  C   UNL     1       5.560   3.353  14.683  0.00  0.00    +0.000 A 
ATOM     10  C   UNL     1       5.373   3.777  16.003  0.00  0.00    +0.000 A 
BRANCH   8  11
ATOM     11  C   UNL     1       6.668   3.658  12.424  0.00  0.00    +0.000 C 
ATOM     12  O   UNL     1       7.308   4.345  11.646  0.00  0.00    +0.000 OA
BRANCH  11  13
ATOM     13  O   UNL     1       6.089   2.495  12.063  0.00  0.00    +0.000 OA
ATOM     14  H   UNL     1       5.531   2.066  12.734  0.00  0.00    +0.000 HD
ENDBRANCH  11  13
ENDBRANCH   8  11
ENDBRANCH   2   5
ENDBRANCH   1   2
BRANCH   1  15
ATOM     15  C   UNL     1       3.766   6.916  17.832  0.00  0.00    +0.000 C 
BRANCH  15  19
ATOM     16  C   UNL     1       0.789   9.486  19.640  0.00  0.00    +0.000 A 
ATOM     17  C   UNL     1       1.328   8.429  20.377  0.00  0.00    +0.000 A 
ATOM     18  C   UNL     1       2.242   7.539  19.789  0.00  0.00    +0.000 A 
ATOM     19  C   UNL     1       2.614   7.689  18.448  0.00  0.00    +0.000 A 
ATOM     20  C   UNL     1       2.004   8.710  17.701  0.00  0.00    +0.000 A 
ATOM     21  C   UNL     1       1.098   9.600  18.290  0.00  0.00    +0.000 A 
BRANCH  16  23
ATOM     22  C   UNL     1       0.197  10.457  21.709  0.00  0.00    +0.000 C 
ATOM     23  O   UNL     1      -0.056  10.331  20.309  0.00  0.00    +0.000 OA
ENDBRANCH  16  23
ENDBRANCH  15  19
ENDBRANCH   1  15
BRANCH   1  24
ATOM     24  C   UNL     1       3.325   4.485  18.023  0.00  0.00    +0.000 C 
BRANCH  24  25
ATOM     25  C   UNL     1       3.209   3.298  19.007  0.00  0.00    +0.000 C 
ATOM     26  C   UNL     1       2.924   3.743  20.449  0.00  0.00    +0.000 C 
ATOM     27  C   UNL     1       1.466   4.120  20.691  0.00  0.00    +0.000 C 
ATOM     28  C   UNL     1       0.525   2.993  20.284  0.00  0.00    +0.000 C 
ATOM     29  C   UNL     1       0.728   2.607  18.824  0.00  0.00    +0.000 C 
ATOM     30  C   UNL     1       2.182   2.246  18.536  0.00  0.00    +0.000 C 
ENDBRANCH  24  25
ENDBRANCH   1  24
TORSDOF 9
ENDMDL
MODEL 5
REMARK VINA RESULT:      -8.0      1.119      1.887
REMARK  Name = 
REMARK  10 active torsions:
REMARK  status: ('A' for Active; 'I' for Inactive)
REMARK    1  A    between atoms: C_1  and  O_2
REMARK    2  A    between atoms: O_2  and  C_3
REMARK    3  A    between atoms: C_6  and  C_7
REMARK    4  A    between atoms: C_7  and  N_8
REMARK    5  A    between atoms: N_8  and  C_9
REMARK    6  A    between atoms: N_8  and  S_16
REMARK    7  A    between atoms: C_9  and  C_10
REMARK    8  A    between atoms: S_16  and  C_19
REMARK    9  A    between atoms: C_22  and  C_23
REMARK   10  A    between atoms: C_23  and  O_25
REMARK                            x       y       z     vdW  Elec       q    Type
REMARK                         _______ _______ _______ _____ _____    ______ ____
ROOT
ATOM      1  N   UNL     1       4.262   5.649  18.428  0.00  0.00    +0.000 NA
ENDROOT
BRANCH   1   2
ATOM      2  S   UNL     1       5.963   5.421  18.107  0.00  0.00    +0.000 S 
ATOM      3  O   UNL     1       6.624   6.706  18.093  0.00  0.00    +0.000 OA
ATOM      4  O   UNL     1       6.405   4.360  18.991  0.00  0.00    +0.000 OA
BRANCH   2   5
ATOM      5  C   UNL     1       6.101   4.807  16.440  0.00  0.00    +0.000 A 
ATOM      6  C   UNL     1       5.195   3.855  15.972  0.00  0.00    +0.000 A 
ATOM      7  C   UNL     1       5.266   3.441  14.637  0.00  0.00    +0.000 A 
ATOM      8  C   UNL     1       6.228   3.983  13.768  0.00  0.00    +0.000 A 
ATOM      9  C   UNL     1       7.103   4.972  14.238  0.00  0.00    +0.000 A 
ATOM     10  C   UNL     1       7.046   5.375  15.577  0.00  0.00    +0.000 A 
BRANCH   8  11
ATOM     11  C   UNL     1       6.236   3.516  12.354  0.00  0.00    +0.000 C 
ATOM     12  O   UNL     1       7.262   3.408  11.704  0.00  0.00    +0.000 OA
BRANCH  11  13
ATOM     13  O   UNL     1       5.016   3.266  11.836  0.00  0.00    +0.000 OA
ATOM     14  H   UNL     1       4.987   2.654  11.081  0.00  0.00    +0.000 HD
ENDBRANCH  11  13
ENDBRANCH   8  11
ENDBRANCH   2   5
ENDBRANCH   1   2
BRANCH   1  15
ATOM     15  C   UNL     1       3.745   6.869  17.722  0.00  0.00    +0.000 C 
BRANCH  15  19
ATOM     16  C   UNL     1       0.912   9.499  19.670  0.00  0.00    +0.000 A 
ATOM     17  C   UNL     1       1.401   8.383  20.353  0.00  0.00    +0.000 A 
ATOM     18  C   UNL     1       2.265   7.476  19.718  0.00  0.00    +0.000 A 
ATOM     19  C   UNL     1       2.637   7.670  18.382  0.00  0.00    +0.000 A 
ATOM     20  C   UNL     1       2.074   8.753  17.687  0.00  0.00    +0.000 A 
ATOM     21  C   UNL     1       1.218   9.659  18.324  0.00  0.00    +0.000 A 
BRANCH  16  23
ATOM     22  C   UNL     1      -0.132  11.614  19.757  0.00  0.00    +0.000 C 
ATOM     23  O   UNL     1       0.114  10.354  20.383  0.00  0.00    +0.000 OA
ENDBRANCH  16  23
ENDBRANCH  15  19
ENDBRANCH   1  15
BRANCH   1  24
ATOM     24  C   UNL     1       3.426   4.430  18.025  0.00  0.00    +0.000 C 
BRANCH  24  25
ATOM     25  C   UNL     1       3.294   3.332  19.105  0.00  0.00    +0.000 C 
ATOM     26  C   UNL     1       2.841   3.884  20.466  0.00  0.00    +0.000 C 
ATOM     27  C   UNL     1       1.344   4.170  20.536  0.00  0.00    +0.000 C 
ATOM     28  C   UNL     1       0.525   2.942  20.157  0.00  0.00    +0.000 C 
ATOM     29  C   UNL     1       0.895   2.442  18.767  0.00  0.00    +0.000 C 
ATOM     30  C   UNL     1       2.390   2.167  18.649  0.00  0.00    +0.000 C 
ENDBRANCH  24  25
ENDBRANCH   1  24
TORSDOF 9
ENDMDL
MODEL 6
REMARK VINA RESULT:      -8.0      1.120      1.877
REMARK  Name = 
REMARK  10 active torsions:
REMARK  status: ('A' for Active; 'I' for Inactive)
REMARK    1  A    between atoms: C_1  and  O_2
REMARK    2  A    between atoms: O_2  and  C_3
REMARK    3  A    between atoms: C_6  and  C_7
REMARK    4  A    between atoms: C_7  and  N_8
REMARK    5  A    between atoms: N_8  and  C_9
REMARK    6  A    between atoms: N_8  and  S_16
REMARK    7  A    between atoms: C_9  and  C_10
REMARK    8  A    between atoms: S_16  and  C_19
REMARK    9  A    between atoms: C_22  and  C_23
REMARK   10  A    between atoms: C_23  and  O_25
REMARK                            x       y       z     vdW  Elec       q    Type
REMARK                         _______ _______ _______ _____ _____    ______ ____
ROOT
ATOM      1  N   UNL     1       4.274   5.703  18.507  0.00  0.00    +0.000 NA
ENDROOT
BRANCH   1   2
ATOM      2  S   UNL     1       5.969   5.457  18.168  0.00  0.00    +0.000 S 
ATOM      3  O   UNL     1       6.660   6.724  18.243  0.00  0.00    +0.000 OA
ATOM      4  O   UNL     1       6.385   4.327  18.977  0.00  0.00    +0.000 OA
BRANCH   2   5
ATOM      5  C   UNL     1       6.093   4.957  16.463  0.00  0.00    +0.000 A 
ATOM      6  C   UNL     1       7.019   5.575  15.622  0.00  0.00    +0.000 A 
ATOM      7  C   UNL     1       7.160   5.118  14.306  0.00  0.00    +0.000 A 
ATOM      8  C   UNL     1       6.391   4.040  13.835  0.00  0.00    +0.000 A 
ATOM      9  C   UNL     1       5.497   3.398  14.704  0.00  0.00    +0.000 A 
ATOM     10  C   UNL     1       5.341   3.864  16.013  0.00  0.00    +0.000 A 
BRANCH   8  11
ATOM     11  C   UNL     1       6.605   3.588  12.432  0.00  0.00    +0.000 C 
ATOM     12  O   UNL     1       7.264   4.228  11.630  0.00  0.00    +0.000 OA
BRANCH  11  13
ATOM     13  O   UNL     1       5.976   2.440  12.108  0.00  0.00    +0.000 OA
ATOM     14  H   UNL     1       6.213   2.048  11.250  0.00  0.00    +0.000 HD
ENDBRANCH  11  13
ENDBRANCH   8  11
ENDBRANCH   2   5
ENDBRANCH   1   2
BRANCH   1  15
ATOM     15  C   UNL     1       3.729   6.847  17.702  0.00  0.00    +0.000 C 
BRANCH  15  19
ATOM     16  C   UNL     1       0.732   9.344  19.578  0.00  0.00    +0.000 A 
ATOM     17  C   UNL     1       1.215   9.678  18.310  0.00  0.00    +0.000 A 
ATOM     18  C   UNL     1       2.238   8.924  17.711  0.00  0.00    +0.000 A 
ATOM     19  C   UNL     1       2.802   7.835  18.385  0.00  0.00    +0.000 A 
ATOM     20  C   UNL     1       2.360   7.561  19.690  0.00  0.00    +0.000 A 
ATOM     21  C   UNL     1       1.335   8.310  20.283  0.00  0.00    +0.000 A 
BRANCH  16  23
ATOM     22  C   UNL     1      -1.203  10.596  19.072  0.00  0.00    +0.000 C 
ATOM     23  O   UNL     1      -0.298  10.105  20.062  0.00  0.00    +0.000 OA
ENDBRANCH  16  23
ENDBRANCH  15  19
ENDBRANCH   1  15
BRANCH   1  24
ATOM     24  C   UNL     1       3.440   4.445  18.241  0.00  0.00    +0.000 C 
BRANCH  24  25
ATOM     25  C   UNL     1       3.285   3.487  19.444  0.00  0.00    +0.000 C 
ATOM     26  C   UNL     1       2.586   4.144  20.644  0.00  0.00    +0.000 C 
ATOM     27  C   UNL     1       1.071   4.234  20.488  0.00  0.00    +0.000 C 
ATOM     28  C   UNL     1       0.460   2.870  20.193  0.00  0.00    +0.000 C 
ATOM     29  C   UNL     1       1.076   2.249  18.946  0.00  0.00    +0.000 C 
ATOM     30  C   UNL     1       2.594   2.163  19.054  0.00  0.00    +0.000 C 
ENDBRANCH  24  25
ENDBRANCH   1  24
TORSDOF 9
ENDMDL
MODEL 7
REMARK VINA RESULT:      -7.9      0.889      1.647
REMARK  Name = 
REMARK  10 active torsions:
REMARK  status: ('A' for Active; 'I' for Inactive)
REMARK    1  A    between atoms: C_1  and  O_2
REMARK    2  A    between atoms: O_2  and  C_3
REMARK    3  A    between atoms: C_6  and  C_7
REMARK    4  A    between atoms: C_7  and  N_8
REMARK    5  A    between atoms: N_8  and  C_9
REMARK    6  A    between atoms: N_8  and  S_16
REMARK    7  A    between atoms: C_9  and  C_10
REMARK    8  A    between atoms: S_16  and  C_19
REMARK    9  A    between atoms: C_22  and  C_23
REMARK   10  A    between atoms: C_23  and  O_25
REMARK                            x       y       z     vdW  Elec       q    Type
REMARK                         _______ _______ _______ _____ _____    ______ ____
ROOT
ATOM      1  N   UNL     1       3.484   4.431  18.496  0.00  0.00    +0.000 NA
ENDROOT
BRANCH   1   2
ATOM      2  S   UNL     1       5.225   4.518  18.603  0.00  0.00    +0.000 S 
ATOM      3  O   UNL     1       5.601   5.735  19.283  0.00  0.00    +0.000 OA
ATOM      4  O   UNL     1       5.667   3.223  19.082  0.00  0.00    +0.000 OA
BRANCH   2   5
ATOM      5  C   UNL     1       5.840   4.702  16.942  0.00  0.00    +0.000 A 
ATOM      6  C   UNL     1       6.891   5.583  16.682  0.00  0.00    +0.000 A 
ATOM      7  C   UNL     1       7.417   5.658  15.387  0.00  0.00    +0.000 A 
ATOM      8  C   UNL     1       6.906   4.848  14.357  0.00  0.00    +0.000 A 
ATOM      9  C   UNL     1       5.882   3.935  14.641  0.00  0.00    +0.000 A 
ATOM     10  C   UNL     1       5.343   3.870  15.930  0.00  0.00    +0.000 A 
BRANCH   8  11
ATOM     11  C   UNL     1       7.525   4.961  13.007  0.00  0.00    +0.000 C 
ATOM     12  O   UNL     1       7.223   4.224  12.083  0.00  0.00    +0.000 OA
BRANCH  11  13
ATOM     13  O   UNL     1       8.476   5.911  12.901  0.00  0.00    +0.000 OA
ATOM     14  H   UNL     1       8.948   5.954  12.052  0.00  0.00    +0.000 HD
ENDBRANCH  11  13
ENDBRANCH   8  11
ENDBRANCH   2   5
ENDBRANCH   1   2
BRANCH   1  15
ATOM     15  C   UNL     1       2.934   5.619  17.760  0.00  0.00    +0.000 C 
BRANCH  15  19
ATOM     16  C   UNL     1       1.274   8.889  20.059  0.00  0.00    +0.000 A 
ATOM     17  C   UNL     1       1.591   9.082  18.712  0.00  0.00    +0.000 A 
ATOM     18  C   UNL     1       2.197   8.059  17.965  0.00  0.00    +0.000 A 
ATOM     19  C   UNL     1       2.507   6.833  18.565  0.00  0.00    +0.000 A 
ATOM     20  C   UNL     1       2.253   6.683  19.938  0.00  0.00    +0.000 A 
ATOM     21  C   UNL     1       1.643   7.702  20.680  0.00  0.00    +0.000 A 
BRANCH  16  23
ATOM     22  C   UNL     1      -0.202  10.720  19.862  0.00  0.00    +0.000 C 
ATOM     23  O   UNL     1       0.642   9.924  20.695  0.00  0.00    +0.000 OA
ENDBRANCH  16  23
ENDBRANCH  15  19
ENDBRANCH   1  15
BRANCH   1  24
ATOM     24  C   UNL     1       3.007   3.142  17.818  0.00  0.00    +0.000 C 
BRANCH  24  25
ATOM     25  C   UNL     1       2.237   2.160  18.731  0.00  0.00    +0.000 C 
ATOM     26  C   UNL     1       2.963   1.885  20.057  0.00  0.00    +0.000 C 
ATOM     27  C   UNL     1       2.800   3.004  21.081  0.00  0.00    +0.000 C 
ATOM     28  C   UNL     1       1.330   3.321  21.330  0.00  0.00    +0.000 C 
ATOM     29  C   UNL     1       0.620   3.692  20.034  0.00  0.00    +0.000 C 
ATOM     30  C   UNL     1       0.781   2.607  18.975  0.00  0.00    +0.000 C 
ENDBRANCH  24  25
ENDBRANCH   1  24
TORSDOF 9
ENDMDL
MODEL 8
REMARK VINA RESULT:      -7.8      1.298      1.709
REMARK  Name = 
REMARK  10 active torsions:
REMARK  status: ('A' for Active; 'I' for Inactive)
REMARK    1  A    between atoms: C_1  and  O_2
REMARK    2  A    between atoms: O_2  and  C_3
REMARK    3  A    between atoms: C_6  and  C_7
REMARK    4  A    between atoms: C_7  and  N_8
REMARK    5  A    between atoms: N_8  and  C_9
REMARK    6  A    between atoms: N_8  and  S_16
REMARK    7  A    between atoms: C_9  and  C_10
REMARK    8  A    between atoms: S_16  and  C_19
REMARK    9  A    between atoms: C_22  and  C_23
REMARK   10  A    between atoms: C_23  and  O_25
REMARK                            x       y       z     vdW  Elec       q    Type
REMARK                         _______ _______ _______ _____ _____    ______ ____
ROOT
ATOM      1  N   UNL     1       4.428   6.142  18.808  0.00  0.00    +0.000 NA
ENDROOT
BRANCH   1   2
ATOM      2  S   UNL     1       6.042   6.026  18.151  0.00  0.00    +0.000 S 
ATOM      3  O   UNL     1       6.556   7.355  17.910  0.00  0.00    +0.000 OA
ATOM      4  O   UNL     1       6.757   5.087  18.994  0.00  0.00    +0.000 OA
BRANCH   2   5
ATOM      5  C   UNL     1       5.897   5.281  16.540  0.00  0.00    +0.000 A 
ATOM      6  C   UNL     1       5.508   6.057  15.447  0.00  0.00    +0.000 A 
ATOM      7  C   UNL     1       5.476   5.477  14.173  0.00  0.00    +0.000 A 
ATOM      8  C   UNL     1       5.842   4.133  13.987  0.00  0.00    +0.000 A 
ATOM      9  C   UNL     1       6.275   3.377  15.086  0.00  0.00    +0.000 A 
ATOM     10  C   UNL     1       6.292   3.949  16.363  0.00  0.00    +0.000 A 
BRANCH   8  11
ATOM     11  C   UNL     1       5.807   3.583  12.604  0.00  0.00    +0.000 C 
ATOM     12  O   UNL     1       6.819   3.321  11.976  0.00  0.00    +0.000 OA
BRANCH  11  13
ATOM     13  O   UNL     1       4.570   3.441  12.085  0.00  0.00    +0.000 OA
ATOM     14  H   UNL     1       4.356   2.566  11.719  0.00  0.00    +0.000 HD
ENDBRANCH  11  13
ENDBRANCH   8  11
ENDBRANCH   2   5
ENDBRANCH   1   2
BRANCH   1  15
ATOM     15  C   UNL     1       3.529   6.909  17.882  0.00  0.00    +0.000 C 
BRANCH  15  19
ATOM     16  C   UNL     1       0.773   9.739  19.652  0.00  0.00    +0.000 A 
ATOM     17  C   UNL     1       1.227   8.653  20.405  0.00  0.00    +0.000 A 
ATOM     18  C   UNL     1       2.065   7.683  19.830  0.00  0.00    +0.000 A 
ATOM     19  C   UNL     1       2.445   7.782  18.486  0.00  0.00    +0.000 A 
ATOM     20  C   UNL     1       1.916   8.837  17.724  0.00  0.00    +0.000 A 
ATOM     21  C   UNL     1       1.087   9.806  18.300  0.00  0.00    +0.000 A 
BRANCH  16  23
ATOM     22  C   UNL     1      -0.114  10.458  21.718  0.00  0.00    +0.000 C 
ATOM     23  O   UNL     1       0.001  10.660  20.308  0.00  0.00    +0.000 OA
ENDBRANCH  16  23
ENDBRANCH  15  19
ENDBRANCH   1  15
BRANCH   1  24
ATOM     24  C   UNL     1       3.817   4.766  19.093  0.00  0.00    +0.000 C 
BRANCH  24  25
ATOM     25  C   UNL     1       2.687   4.332  18.131  0.00  0.00    +0.000 C 
ATOM     26  C   UNL     1       3.016   3.039  17.369  0.00  0.00    +0.000 C 
ATOM     27  C   UNL     1       2.825   1.776  18.204  0.00  0.00    +0.000 C 
ATOM     28  C   UNL     1       1.423   1.707  18.796  0.00  0.00    +0.000 C 
ATOM     29  C   UNL     1       1.119   2.940  19.637  0.00  0.00    +0.000 C 
ATOM     30  C   UNL     1       1.321   4.225  18.843  0.00  0.00    +0.000 C 
ENDBRANCH  24  25
ENDBRANCH   1  24
TORSDOF 9
ENDMDL
MODEL 9
REMARK VINA RESULT:      -7.8      1.163      1.751
REMARK  Name = 
REMARK  10 active torsions:
REMARK  status: ('A' for Active; 'I' for Inactive)
REMARK    1  A    between atoms: C_1  and  O_2
REMARK    2  A    between atoms: O_2  and  C_3
REMARK    3  A    between atoms: C_6  and  C_7
REMARK    4  A    between atoms: C_7  and  N_8
REMARK    5  A    between atoms: N_8  and  C_9
REMARK    6  A    between atoms: N_8  and  S_16
REMARK    7  A    between atoms: C_9  and  C_10
REMARK    8  A    between atoms: S_16  and  C_19
REMARK    9  A    between atoms: C_22  and  C_23
REMARK   10  A    between atoms: C_23  and  O_25
REMARK                            x       y       z     vdW  Elec       q    Type
REMARK                         _______ _______ _______ _____ _____    ______ ____
ROOT
ATOM      1  N   UNL     1       4.547   5.799  18.820  0.00  0.00    +0.000 NA
ENDROOT
BRANCH   1   2
ATOM      2  S   UNL     1       6.218   5.632  18.341  0.00  0.00    +0.000 S 
ATOM      3  O   UNL     1       6.839   6.936  18.314  0.00  0.00    +0.000 OA
ATOM      4  O   UNL     1       6.766   4.557  19.145  0.00  0.00    +0.000 OA
BRANCH   2   5
ATOM      5  C   UNL     1       6.223   5.078  16.648  0.00  0.00    +0.000 A 
ATOM      6  C   UNL     1       6.979   5.760  15.694  0.00  0.00    +0.000 A 
ATOM      7  C   UNL     1       7.036   5.266  14.385  0.00  0.00    +0.000 A 
ATOM      8  C   UNL     1       6.352   4.090  14.032  0.00  0.00    +0.000 A 
ATOM      9  C   UNL     1       5.634   3.389  15.010  0.00  0.00    +0.000 A 
ATOM     10  C   UNL     1       5.560   3.890  16.315  0.00  0.00    +0.000 A 
BRANCH   8  11
ATOM     11  C   UNL     1       6.472   3.606  12.629  0.00  0.00    +0.000 C 
ATOM     12  O   UNL     1       7.156   4.174  11.795  0.00  0.00    +0.000 OA
BRANCH  11  13
ATOM     13  O   UNL     1       5.730   2.517  12.343  0.00  0.00    +0.000 OA
ATOM     14  H   UNL     1       6.055   1.952  11.621  0.00  0.00    +0.000 HD
ENDBRANCH  11  13
ENDBRANCH   8  11
ENDBRANCH   2   5
ENDBRANCH   1   2
BRANCH   1  15
ATOM     15  C   UNL     1       3.789   6.637  17.831  0.00  0.00    +0.000 C 
BRANCH  15  19
ATOM     16  C   UNL     1       0.817   9.422  19.296  0.00  0.00    +0.000 A 
ATOM     17  C   UNL     1       1.335   9.578  18.008  0.00  0.00    +0.000 A 
ATOM     18  C   UNL     1       2.351   8.731  17.536  0.00  0.00    +0.000 A 
ATOM     19  C   UNL     1       2.873   7.726  18.359  0.00  0.00    +0.000 A 
ATOM     20  C   UNL     1       2.396   7.633  19.677  0.00  0.00    +0.000 A 
ATOM     21  C   UNL     1       1.379   8.474  20.143  0.00  0.00    +0.000 A 
BRANCH  16  23
ATOM     22  C   UNL     1      -1.049  10.677  18.578  0.00  0.00    +0.000 C 
ATOM     23  O   UNL     1      -0.204  10.262  19.652  0.00  0.00    +0.000 OA
ENDBRANCH  16  23
ENDBRANCH  15  19
ENDBRANCH   1  15
BRANCH   1  24
ATOM     24  C   UNL     1       3.852   4.443  18.982  0.00  0.00    +0.000 C 
BRANCH  24  25
ATOM     25  C   UNL     1       2.439   4.346  18.363  0.00  0.00    +0.000 C 
ATOM     26  C   UNL     1       2.297   3.171  17.382  0.00  0.00    +0.000 C 
ATOM     27  C   UNL     1       2.115   1.823  18.073  0.00  0.00    +0.000 C 
ATOM     28  C   UNL     1       0.945   1.850  19.048  0.00  0.00    +0.000 C 
ATOM     29  C   UNL     1       1.121   2.949  20.088  0.00  0.00    +0.000 C 
ATOM     30  C   UNL     1       1.330   4.311  19.436  0.00  0.00    +0.000 C 
ENDBRANCH  24  25
ENDBRANCH   1  24
TORSDOF 9
ENDMDL
