MODEL 1
REMARK VINA RESULT:      -7.5      0.000      0.000
REMARK  Name = 
REMARK  8 active torsions:
REMARK  status: ('A' for Active; 'I' for Inactive)
REMARK    1  A    between atoms: C_1  and  C_2
REMARK    2  A    between atoms: C_2  and  C_3
REMARK    3  A    between atoms: C_3  and  C_4
REMARK    4  A    between atoms: C_6  and  C_7
REMARK    5  A    between atoms: C_11  and  C_12
REMARK    6  A    between atoms: C_12  and  O_13
REMARK    7  A    between atoms: C_15  and  C_16
REMARK    8  A    between atoms: C_16  and  N_17
REMARK                            x       y       z     vdW  Elec       q    Type
REMARK                         _______ _______ _______ _____ _____    ______ ____
ROOT
ATOM      1  C   UNL     1       2.049   4.963  20.452  0.00  0.00    +0.000 C 
ATOM      2  O   UNL     1       2.186   4.608  21.628  0.00  0.00    +0.000 OA
ATOM      3  N   UNL     1       2.031   4.018  19.413  0.00  0.00    +0.000 N 
ATOM      4  C   UNL     1       1.920   2.603  19.752  0.00  0.00    +0.000 C 
ATOM      5  C   UNL     1       3.020   1.768  19.083  0.00  0.00    +0.000 C 
ATOM      6  C   UNL     1       3.124   2.090  17.580  0.00  0.00    +0.000 C 
ATOM      7  C   UNL     1       3.126   3.585  17.212  0.00  0.00    +0.000 C 
ATOM      8  C   UNL     1       1.998   4.299  17.975  0.00  0.00    +0.000 C 
ENDROOT
BRANCH   1  11
ATOM      9  C   UNL     1       1.211   8.486  20.407  0.00  0.00    +0.000 A 
ATOM     10  N   UNL     1       1.271   7.299  20.952  0.00  0.00    +0.000 NA
ATOM     11  C   UNL     1       1.929   6.394  20.127  0.00  0.00    +0.000 A 
ATOM     12  C   UNL     1       2.486   6.986  19.005  0.00  0.00    +0.000 A 
ATOM     13  S   UNL     1       2.054   8.648  18.927  0.00  0.00    +0.000 S 
BRANCH   9  14
ATOM     14  C   UNL     1       0.451   9.621  21.028  0.00  0.00    +0.000 C 
BRANCH  14  16
ATOM     15  C   UNL     1      -0.796  10.312  23.117  0.00  0.00    +0.000 C 
ATOM     16  C   UNL     1       0.205   9.341  22.513  0.00  0.00    +0.000 C 
ENDBRANCH  14  16
ENDBRANCH   9  14
ENDBRANCH   1  11
BRANCH   5  17
ATOM     17  C   UNL     1       4.364   1.893  19.804  0.00  0.00    +0.000 C 
BRANCH  17  18
ATOM     18  O   UNL     1       4.161   2.178  21.185  0.00  0.00    +0.000 OA
ATOM     19  H   UNL     1       4.409   1.381  21.688  0.00  0.00    +0.000 HD
ENDBRANCH  17  18
ENDBRANCH   5  17
BRANCH   7  20
ATOM     20  C   UNL     1       4.458   4.379  17.367  0.00  0.00    +0.000 C 
BRANCH  20  21
ATOM     21  N   UNL     1       4.807   5.309  16.290  0.00  0.00    +0.000 NA
ATOM     22  C   UNL     1       5.519   4.655  15.159  0.00  0.00    +0.000 C 
ATOM     23  C   UNL     1       7.067   4.730  15.108  0.00  0.00    +0.000 C 
ATOM     24  O   UNL     1       7.597   5.982  15.551  0.00  0.00    +0.000 OA
ATOM     25  C   UNL     1       7.063   6.310  16.833  0.00  0.00    +0.000 C 
ATOM     26  C   UNL     1       5.548   6.508  16.721  0.00  0.00    +0.000 C 
ENDBRANCH  20  21
ENDBRANCH   7  20
TORSDOF 7
ENDMDL
MODEL 2
REMARK VINA RESULT:      -7.5      1.115      1.391
REMARK  Name = 
REMARK  8 active torsions:
REMARK  status: ('A' for Active; 'I' for Inactive)
REMARK    1  A    between atoms: C_1  and  C_2
REMARK    2  A    between atoms: C_2  and  C_3
REMARK    3  A    between atoms: C_3  and  C_4
REMARK    4  A    between atoms: C_6  and  C_7
REMARK    5  A    between atoms: C_11  and  C_12
REMARK    6  A    between atoms: C_12  and  O_13
REMARK    7  A    between atoms: C_15  and  C_16
REMARK    8  A    between atoms: C_16  and  N_17
REMARK                            x       y       z     vdW  Elec       q    Type
REMARK                         _______ _______ _______ _____ _____    ______ ____
ROOT
ATOM      1  C   UNL     1       2.113   5.443  20.160  0.00  0.00    +0.000 C 
ATOM      2  O   UNL     1       2.206   5.288  21.382  0.00  0.00    +0.000 OA
ATOM      3  N   UNL     1       2.087   4.338  19.294  0.00  0.00    +0.000 N 
ATOM      4  C   UNL     1       1.917   3.004  19.863  0.00  0.00    +0.000 C 
ATOM      5  C   UNL     1       3.004   2.035  19.378  0.00  0.00    +0.000 C 
ATOM      6  C   UNL     1       3.158   2.095  17.846  0.00  0.00    +0.000 C 
ATOM      7  C   UNL     1       3.223   3.506  17.233  0.00  0.00    +0.000 C 
ATOM      8  C   UNL     1       2.101   4.373  17.829  0.00  0.00    +0.000 C 
ENDROOT
BRANCH   1  11
ATOM      9  C   UNL     1       1.456   8.949  19.532  0.00  0.00    +0.000 A 
ATOM     10  N   UNL     1       1.479   7.872  20.274  0.00  0.00    +0.000 NA
ATOM     11  C   UNL     1       2.052   6.802  19.596  0.00  0.00    +0.000 A 
ATOM     12  C   UNL     1       2.588   7.159  18.369  0.00  0.00    +0.000 A 
ATOM     13  S   UNL     1       2.239   8.805  18.018  0.00  0.00    +0.000 S 
BRANCH   9  14
ATOM     14  C   UNL     1       0.784  10.216  19.973  0.00  0.00    +0.000 C 
BRANCH  14  16
ATOM     15  C   UNL     1      -1.314  10.237  18.560  0.00  0.00    +0.000 C 
ATOM     16  C   UNL     1       0.051  10.862  18.794  0.00  0.00    +0.000 C 
ENDBRANCH  14  16
ENDBRANCH   9  14
ENDBRANCH   1  11
BRANCH   5  17
ATOM     17  C   UNL     1       4.332   2.238  20.110  0.00  0.00    +0.000 C 
BRANCH  17  18
ATOM     18  O   UNL     1       5.196   1.128  19.886  0.00  0.00    +0.000 OA
ATOM     19  H   UNL     1       6.026   1.476  19.511  0.00  0.00    +0.000 HD
ENDBRANCH  17  18
ENDBRANCH   5  17
BRANCH   7  20
ATOM     20  C   UNL     1       4.578   4.272  17.294  0.00  0.00    +0.000 C 
BRANCH  20  21
ATOM     21  N   UNL     1       4.870   5.195  16.193  0.00  0.00    +0.000 NA
ATOM     22  C   UNL     1       5.503   4.529  15.023  0.00  0.00    +0.000 C 
ATOM     23  C   UNL     1       7.046   4.585  14.877  0.00  0.00    +0.000 C 
ATOM     24  O   UNL     1       7.616   5.832  15.280  0.00  0.00    +0.000 OA
ATOM     25  C   UNL     1       7.167   6.171  16.592  0.00  0.00    +0.000 C 
ATOM     26  C   UNL     1       5.650   6.387  16.573  0.00  0.00    +0.000 C 
ENDBRANCH  20  21
ENDBRANCH   7  20
TORSDOF 7
ENDMDL
MODEL 3
REMARK VINA RESULT:      -7.2      0.692      1.076
REMARK  Name = 
REMARK  8 active torsions:
REMARK  status: ('A' for Active; 'I' for Inactive)
REMARK    1  A    between atoms: C_1  and  C_2
REMARK    2  A    between atoms: C_2  and  C_3
REMARK    3  A    between atoms: C_3  and  C_4
REMARK    4  A    between atoms: C_6  and  C_7
REMARK    5  A    between atoms: C_11  and  C_12
REMARK    6  A    between atoms: C_12  and  O_13
REMARK    7  A    between atoms: C_15  and  C_16
REMARK    8  A    between atoms: C_16  and  N_17
REMARK                            x       y       z     vdW  Elec       q    Type
REMARK                         _______ _______ _______ _____ _____    ______ ____
ROOT
ATOM      1  C   UNL     1       2.025   5.184  20.497  0.00  0.00    +0.000 C 
ATOM      2  O   UNL     1       2.266   4.832  21.658  0.00  0.00    +0.000 OA
ATOM      3  N   UNL     1       1.918   4.237  19.466  0.00  0.00    +0.000 N 
ATOM      4  C   UNL     1       1.841   2.823  19.817  0.00  0.00    +0.000 C 
ATOM      5  C   UNL     1       2.879   1.989  19.055  0.00  0.00    +0.000 C 
ATOM      6  C   UNL     1       2.849   2.307  17.548  0.00  0.00    +0.000 C 
ATOM      7  C   UNL     1       2.815   3.802  17.178  0.00  0.00    +0.000 C 
ATOM      8  C   UNL     1       1.757   4.515  18.036  0.00  0.00    +0.000 C 
ENDROOT
BRANCH   1  11
ATOM      9  C   UNL     1       1.169   8.703  20.514  0.00  0.00    +0.000 A 
ATOM     10  N   UNL     1       1.277   7.518  21.055  0.00  0.00    +0.000 NA
ATOM     11  C   UNL     1       1.873   6.614  20.182  0.00  0.00    +0.000 A 
ATOM     12  C   UNL     1       2.338   7.207  19.019  0.00  0.00    +0.000 A 
ATOM     13  S   UNL     1       1.894   8.867  18.973  0.00  0.00    +0.000 S 
BRANCH   9  14
ATOM     14  C   UNL     1       0.454   9.835  21.191  0.00  0.00    +0.000 C 
BRANCH  14  16
ATOM     15  C   UNL     1      -0.989  10.437  23.179  0.00  0.00    +0.000 C 
ATOM     16  C   UNL     1      -0.130   9.367  22.527  0.00  0.00    +0.000 C 
ENDBRANCH  14  16
ENDBRANCH   9  14
ENDBRANCH   1  11
BRANCH   5  17
ATOM     17  C   UNL     1       4.281   2.118  19.655  0.00  0.00    +0.000 C 
BRANCH  17  18
ATOM     18  O   UNL     1       4.204   2.270  21.069  0.00  0.00    +0.000 OA
ATOM     19  H   UNL     1       4.068   3.218  21.253  0.00  0.00    +0.000 HD
ENDBRANCH  17  18
ENDBRANCH   5  17
BRANCH   7  20
ATOM     20  C   UNL     1       4.154   4.599  17.214  0.00  0.00    +0.000 C 
BRANCH  20  21
ATOM     21  N   UNL     1       5.349   3.914  16.710  0.00  0.00    +0.000 NA
ATOM     22  C   UNL     1       6.604   4.367  17.368  0.00  0.00    +0.000 C 
ATOM     23  C   UNL     1       7.474   5.437  16.658  0.00  0.00    +0.000 C 
ATOM     24  O   UNL     1       7.521   5.289  15.237  0.00  0.00    +0.000 OA
ATOM     25  C   UNL     1       6.196   5.209  14.712  0.00  0.00    +0.000 C 
ATOM     26  C   UNL     1       5.511   3.946  15.246  0.00  0.00    +0.000 C 
ENDBRANCH  20  21
ENDBRANCH   7  20
TORSDOF 7
ENDMDL
MODEL 4
REMARK VINA RESULT:      -7.0      1.333      1.907
REMARK  Name = 
REMARK  8 active torsions:
REMARK  status: ('A' for Active; 'I' for Inactive)
REMARK    1  A    between atoms: C_1  and  C_2
REMARK    2  A    between atoms: C_2  and  C_3
REMARK    3  A    between atoms: C_3  and  C_4
REMARK    4  A    between atoms: C_6  and  C_7
REMARK    5  A    between atoms: C_11  and  C_12
REMARK    6  A    between atoms: C_12  and  O_13
REMARK    7  A    between atoms: C_15  and  C_16
REMARK    8  A    between atoms: C_16  and  N_17
REMARK                            x       y       z     vdW  Elec       q    Type
REMARK                         _______ _______ _______ _____ _____    ______ ____
ROOT
ATOM      1  C   UNL     1       1.998   4.808  20.568  0.00  0.00    +0.000 C 
ATOM      2  O   UNL     1       2.148   4.406  21.727  0.00  0.00    +0.000 OA
ATOM      3  N   UNL     1       2.041   3.915  19.485  0.00  0.00    +0.000 N 
ATOM      4  C   UNL     1       2.010   2.482  19.755  0.00  0.00    +0.000 C 
ATOM      5  C   UNL     1       3.161   1.744  19.057  0.00  0.00    +0.000 C 
ATOM      6  C   UNL     1       3.255   2.144  17.572  0.00  0.00    +0.000 C 
ATOM      7  C   UNL     1       3.173   3.653  17.276  0.00  0.00    +0.000 C 
ATOM      8  C   UNL     1       2.000   4.263  18.062  0.00  0.00    +0.000 C 
ENDROOT
BRANCH   1  11
ATOM      9  C   UNL     1       1.989   8.149  19.169  0.00  0.00    +0.000 A 
ATOM     10  N   UNL     1       2.180   6.856  19.123  0.00  0.00    +0.000 NA
ATOM     11  C   UNL     1       1.797   6.244  20.311  0.00  0.00    +0.000 A 
ATOM     12  C   UNL     1       1.176   7.112  21.195  0.00  0.00    +0.000 A 
ATOM     13  S   UNL     1       1.210   8.718  20.582  0.00  0.00    +0.000 S 
BRANCH   9  14
ATOM     14  C   UNL     1       2.428   9.068  18.067  0.00  0.00    +0.000 C 
BRANCH  14  16
ATOM     15  C   UNL     1       2.400  11.595  17.981  0.00  0.00    +0.000 C 
ATOM     16  C   UNL     1       1.562  10.330  18.057  0.00  0.00    +0.000 C 
ENDBRANCH  14  16
ENDBRANCH   9  14
ENDBRANCH   1  11
BRANCH   5  17
ATOM     17  C   UNL     1       4.491   1.911  19.795  0.00  0.00    +0.000 C 
BRANCH  17  18
ATOM     18  O   UNL     1       4.264   2.092  21.190  0.00  0.00    +0.000 OA
ATOM     19  H   UNL     1       5.036   1.726  21.661  0.00  0.00    +0.000 HD
ENDBRANCH  17  18
ENDBRANCH   5  17
BRANCH   7  20
ATOM     20  C   UNL     1       4.455   4.513  17.481  0.00  0.00    +0.000 C 
BRANCH  20  21
ATOM     21  N   UNL     1       4.820   5.432  16.398  0.00  0.00    +0.000 NA
ATOM     22  C   UNL     1       5.449   4.748  15.236  0.00  0.00    +0.000 C 
ATOM     23  C   UNL     1       6.996   4.731  15.129  0.00  0.00    +0.000 C 
ATOM     24  O   UNL     1       7.616   5.944  15.560  0.00  0.00    +0.000 OA
ATOM     25  C   UNL     1       7.151   6.291  16.865  0.00  0.00    +0.000 C 
ATOM     26  C   UNL     1       5.647   6.580  16.810  0.00  0.00    +0.000 C 
ENDBRANCH  20  21
ENDBRANCH   7  20
TORSDOF 7
ENDMDL
MODEL 5
REMARK VINA RESULT:      -7.0      1.537      2.215
REMARK  Name = 
REMARK  8 active torsions:
REMARK  status: ('A' for Active; 'I' for Inactive)
REMARK    1  A    between atoms: C_1  and  C_2
REMARK    2  A    between atoms: C_2  and  C_3
REMARK    3  A    between atoms: C_3  and  C_4
REMARK    4  A    between atoms: C_6  and  C_7
REMARK    5  A    between atoms: C_11  and  C_12
REMARK    6  A    between atoms: C_12  and  O_13
REMARK    7  A    between atoms: C_15  and  C_16
REMARK    8  A    between atoms: C_16  and  N_17
REMARK                            x       y       z     vdW  Elec       q    Type
REMARK                         _______ _______ _______ _____ _____    ______ ____
ROOT
ATOM      1  C   UNL     1       2.049   5.127  20.641  0.00  0.00    +0.000 C 
ATOM      2  O   UNL     1       2.391   4.807  21.785  0.00  0.00    +0.000 OA
ATOM      3  N   UNL     1       1.966   4.166  19.620  0.00  0.00    +0.000 N 
ATOM      4  C   UNL     1       2.038   2.753  19.978  0.00  0.00    +0.000 C 
ATOM      5  C   UNL     1       3.100   2.010  19.156  0.00  0.00    +0.000 C 
ATOM      6  C   UNL     1       2.950   2.313  17.653  0.00  0.00    +0.000 C 
ATOM      7  C   UNL     1       2.759   3.796  17.283  0.00  0.00    +0.000 C 
ATOM      8  C   UNL     1       1.694   4.417  18.202  0.00  0.00    +0.000 C 
ENDROOT
BRANCH   1  11
ATOM      9  C   UNL     1       1.822   8.409  19.127  0.00  0.00    +0.000 A 
ATOM     10  N   UNL     1       2.105   7.133  19.128  0.00  0.00    +0.000 NA
ATOM     11  C   UNL     1       1.750   6.535  20.332  0.00  0.00    +0.000 A 
ATOM     12  C   UNL     1       1.055   7.385  21.177  0.00  0.00    +0.000 A 
ATOM     13  S   UNL     1       0.983   8.968  20.509  0.00  0.00    +0.000 S 
BRANCH   9  14
ATOM     14  C   UNL     1       2.210   9.320  17.999  0.00  0.00    +0.000 C 
BRANCH  14  16
ATOM     15  C   UNL     1       2.438  11.837  18.079  0.00  0.00    +0.000 C 
ATOM     16  C   UNL     1       1.480  10.660  18.128  0.00  0.00    +0.000 C 
ENDBRANCH  14  16
ENDBRANCH   9  14
ENDBRANCH   1  11
BRANCH   5  17
ATOM     17  C   UNL     1       4.518   2.270  19.669  0.00  0.00    +0.000 C 
BRANCH  17  18
ATOM     18  O   UNL     1       5.187   1.038  19.923  0.00  0.00    +0.000 OA
ATOM     19  H   UNL     1       5.154   0.880  20.884  0.00  0.00    +0.000 HD
ENDBRANCH  17  18
ENDBRANCH   5  17
BRANCH   7  20
ATOM     20  C   UNL     1       4.020   4.710  17.235  0.00  0.00    +0.000 C 
BRANCH  20  21
ATOM     21  N   UNL     1       5.295   4.068  16.903  0.00  0.00    +0.000 NA
ATOM     22  C   UNL     1       6.459   4.685  17.593  0.00  0.00    +0.000 C 
ATOM     23  C   UNL     1       7.309   5.733  16.829  0.00  0.00    +0.000 C 
ATOM     24  O   UNL     1       7.482   5.433  15.442  0.00  0.00    +0.000 OA
ATOM     25  C   UNL     1       6.212   5.194  14.834  0.00  0.00    +0.000 C 
ATOM     26  C   UNL     1       5.573   3.950  15.460  0.00  0.00    +0.000 C 
ENDBRANCH  20  21
ENDBRANCH   7  20
TORSDOF 7
ENDMDL
MODEL 6
REMARK VINA RESULT:      -7.0      2.611      5.878
REMARK  Name = 
REMARK  8 active torsions:
REMARK  status: ('A' for Active; 'I' for Inactive)
REMARK    1  A    between atoms: C_1  and  C_2
REMARK    2  A    between atoms: C_2  and  C_3
REMARK    3  A    between atoms: C_3  and  C_4
REMARK    4  A    between atoms: C_6  and  C_7
REMARK    5  A    between atoms: C_11  and  C_12
REMARK    6  A    between atoms: C_12  and  O_13
REMARK    7  A    between atoms: C_15  and  C_16
REMARK    8  A    between atoms: C_16  and  N_17
REMARK                            x       y       z     vdW  Elec       q    Type
REMARK                         _______ _______ _______ _____ _____    ______ ____
ROOT
ATOM      1  C   UNL     1       4.151   3.069  18.007  0.00  0.00    +0.000 C 
ATOM      2  O   UNL     1       3.768   2.111  17.326  0.00  0.00    +0.000 OA
ATOM      3  N   UNL     1       3.608   3.310  19.279  0.00  0.00    +0.000 N 
ATOM      4  C   UNL     1       2.777   2.281  19.895  0.00  0.00    +0.000 C 
ATOM      5  C   UNL     1       1.428   2.842  20.363  0.00  0.00    +0.000 C 
ATOM      6  C   UNL     1       1.619   4.130  21.188  0.00  0.00    +0.000 C 
ATOM      7  C   UNL     1       2.587   5.170  20.593  0.00  0.00    +0.000 C 
ATOM      8  C   UNL     1       3.876   4.465  20.140  0.00  0.00    +0.000 C 
ENDROOT
BRANCH   1  11
ATOM      9  C   UNL     1       6.766   5.539  17.588  0.00  0.00    +0.000 A 
ATOM     10  N   UNL     1       6.019   4.727  18.288  0.00  0.00    +0.000 NA
ATOM     11  C   UNL     1       5.170   3.987  17.472  0.00  0.00    +0.000 A 
ATOM     12  C   UNL     1       5.416   4.174  16.121  0.00  0.00    +0.000 A 
ATOM     13  S   UNL     1       6.613   5.386  15.891  0.00  0.00    +0.000 S 
BRANCH   9  14
ATOM     14  C   UNL     1       7.685   6.540  18.225  0.00  0.00    +0.000 C 
BRANCH  14  16
ATOM     15  C   UNL     1       8.377   8.972  18.196  0.00  0.00    +0.000 C 
ATOM     16  C   UNL     1       7.616   7.873  17.475  0.00  0.00    +0.000 C 
ENDBRANCH  14  16
ENDBRANCH   9  14
ENDBRANCH   1  11
BRANCH   5  17
ATOM     17  C   UNL     1       0.442   3.026  19.207  0.00  0.00    +0.000 C 
BRANCH  17  18
ATOM     18  O   UNL     1       0.657   2.033  18.210  0.00  0.00    +0.000 OA
ATOM     19  H   UNL     1       1.436   1.512  18.479  0.00  0.00    +0.000 HD
ENDBRANCH  17  18
ENDBRANCH   5  17
BRANCH   7  20
ATOM     20  C   UNL     1       2.061   6.099  19.458  0.00  0.00    +0.000 C 
BRANCH  20  21
ATOM     21  N   UNL     1       2.497   7.499  19.489  0.00  0.00    +0.000 NA
ATOM     22  C   UNL     1       1.709   8.337  20.431  0.00  0.00    +0.000 C 
ATOM     23  C   UNL     1       0.539   9.189  19.873  0.00  0.00    +0.000 C 
ATOM     24  O   UNL     1       0.805   9.758  18.589  0.00  0.00    +0.000 OA
ATOM     25  C   UNL     1       1.236   8.741  17.685  0.00  0.00    +0.000 C 
ATOM     26  C   UNL     1       2.566   8.156  18.172  0.00  0.00    +0.000 C 
ENDBRANCH  20  21
ENDBRANCH   7  20
TORSDOF 7
ENDMDL
MODEL 7
REMARK VINA RESULT:      -7.0      1.309      1.820
REMARK  Name = 
REMARK  8 active torsions:
REMARK  status: ('A' for Active; 'I' for Inactive)
REMARK    1  A    between atoms: C_1  and  C_2
REMARK    2  A    between atoms: C_2  and  C_3
REMARK    3  A    between atoms: C_3  and  C_4
REMARK    4  A    between atoms: C_6  and  C_7
REMARK    5  A    between atoms: C_11  and  C_12
REMARK    6  A    between atoms: C_12  and  O_13
REMARK    7  A    between atoms: C_15  and  C_16
REMARK    8  A    between atoms: C_16  and  N_17
REMARK                            x       y       z     vdW  Elec       q    Type
REMARK                         _______ _______ _______ _____ _____    ______ ____
ROOT
ATOM      1  C   UNL     1       2.144   5.750  20.195  0.00  0.00    +0.000 C 
ATOM      2  O   UNL     1       2.440   5.603  21.386  0.00  0.00    +0.000 OA
ATOM      3  N   UNL     1       2.017   4.642  19.343  0.00  0.00    +0.000 N 
ATOM      4  C   UNL     1       1.988   3.305  19.928  0.00  0.00    +0.000 C 
ATOM      5  C   UNL     1       3.015   2.373  19.272  0.00  0.00    +0.000 C 
ATOM      6  C   UNL     1       2.916   2.432  17.735  0.00  0.00    +0.000 C 
ATOM      7  C   UNL     1       2.831   3.842  17.123  0.00  0.00    +0.000 C 
ATOM      8  C   UNL     1       1.791   4.672  17.895  0.00  0.00    +0.000 C 
ENDROOT
BRANCH   1  11
ATOM      9  C   UNL     1       1.105   9.169  19.602  0.00  0.00    +0.000 A 
ATOM     10  N   UNL     1       1.229   8.088  20.326  0.00  0.00    +0.000 NA
ATOM     11  C   UNL     1       1.944   7.104  19.651  0.00  0.00    +0.000 A 
ATOM     12  C   UNL     1       2.475   7.545  18.450  0.00  0.00    +0.000 A 
ATOM     13  S   UNL     1       1.950   9.147  18.114  0.00  0.00    +0.000 S 
BRANCH   9  14
ATOM     14  C   UNL     1       0.277  10.341  20.039  0.00  0.00    +0.000 C 
BRANCH  14  16
ATOM     15  C   UNL     1      -1.658  10.360  18.411  0.00  0.00    +0.000 C 
ATOM     16  C   UNL     1      -0.355  11.024  18.822  0.00  0.00    +0.000 C 
ENDBRANCH  14  16
ENDBRANCH   9  14
ENDBRANCH   1  11
BRANCH   5  17
ATOM     17  C   UNL     1       4.437   2.625  19.779  0.00  0.00    +0.000 C 
BRANCH  17  18
ATOM     18  O   UNL     1       5.118   1.390  19.980  0.00  0.00    +0.000 OA
ATOM     19  H   UNL     1       4.886   1.072  20.872  0.00  0.00    +0.000 HD
ENDBRANCH  17  18
ENDBRANCH   5  17
BRANCH   7  20
ATOM     20  C   UNL     1       4.150   4.657  16.965  0.00  0.00    +0.000 C 
BRANCH  20  21
ATOM     21  N   UNL     1       5.372   3.896  16.688  0.00  0.00    +0.000 NA
ATOM     22  C   UNL     1       6.560   4.407  17.423  0.00  0.00    +0.000 C 
ATOM     23  C   UNL     1       7.535   5.365  16.691  0.00  0.00    +0.000 C 
ATOM     24  O   UNL     1       7.735   5.040  15.313  0.00  0.00    +0.000 OA
ATOM     25  C   UNL     1       6.474   4.916  14.655  0.00  0.00    +0.000 C 
ATOM     26  C   UNL     1       5.696   3.741  15.258  0.00  0.00    +0.000 C 
ENDBRANCH  20  21
ENDBRANCH   7  20
TORSDOF 7
ENDMDL
MODEL 8
REMARK VINA RESULT:      -6.8      0.867      1.102
REMARK  Name = 
REMARK  8 active torsions:
REMARK  status: ('A' for Active; 'I' for Inactive)
REMARK    1  A    between atoms: C_1  and  C_2
REMARK    2  A    between atoms: C_2  and  C_3
REMARK    3  A    between atoms: C_3  and  C_4
REMARK    4  A    between atoms: C_6  and  C_7
REMARK    5  A    between atoms: C_11  and  C_12
REMARK    6  A    between atoms: C_12  and  O_13
REMARK    7  A    between atoms: C_15  and  C_16
REMARK    8  A    between atoms: C_16  and  N_17
REMARK                            x       y       z     vdW  Elec       q    Type
REMARK                         _______ _______ _______ _____ _____    ______ ____
ROOT
ATOM      1  C   UNL     1       2.040   4.792  20.313  0.00  0.00    +0.000 C 
ATOM      2  O   UNL     1       1.944   4.436  21.493  0.00  0.00    +0.000 OA
ATOM      3  N   UNL     1       2.222   3.848  19.289  0.00  0.00    +0.000 N 
ATOM      4  C   UNL     1       2.043   2.433  19.598  0.00  0.00    +0.000 C 
ATOM      5  C   UNL     1       3.250   1.596  19.155  0.00  0.00    +0.000 C 
ATOM      6  C   UNL     1       3.646   1.919  17.701  0.00  0.00    +0.000 C 
ATOM      7  C   UNL     1       3.723   3.414  17.343  0.00  0.00    +0.000 C 
ATOM      8  C   UNL     1       2.470   4.131  17.873  0.00  0.00    +0.000 C 
ENDROOT
BRANCH   1  11
ATOM      9  C   UNL     1       1.444   8.364  20.276  0.00  0.00    +0.000 A 
ATOM     10  N   UNL     1       1.473   7.183  20.837  0.00  0.00    +0.000 NA
ATOM     11  C   UNL     1       1.989   6.224  19.973  0.00  0.00    +0.000 A 
ATOM     12  C   UNL     1       2.480   6.761  18.794  0.00  0.00    +0.000 A 
ATOM     13  S   UNL     1       2.158   8.448  18.723  0.00  0.00    +0.000 S 
BRANCH   9  14
ATOM     14  C   UNL     1       0.824   9.558  20.941  0.00  0.00    +0.000 C 
BRANCH  14  16
ATOM     15  C   UNL     1      -0.066   9.546  23.308  0.00  0.00    +0.000 C 
ATOM     16  C   UNL     1      -0.308   9.114  21.872  0.00  0.00    +0.000 C 
ENDBRANCH  14  16
ENDBRANCH   9  14
ENDBRANCH   1  11
BRANCH   5  17
ATOM     17  C   UNL     1       4.428   1.716  20.125  0.00  0.00    +0.000 C 
BRANCH  17  18
ATOM     18  O   UNL     1       3.966   2.071  21.425  0.00  0.00    +0.000 OA
ATOM     19  H   UNL     1       3.919   3.044  21.462  0.00  0.00    +0.000 HD
ENDBRANCH  17  18
ENDBRANCH   5  17
BRANCH   7  20
ATOM     20  C   UNL     1       5.002   4.204  17.756  0.00  0.00    +0.000 C 
BRANCH  20  21
ATOM     21  N   UNL     1       5.778   4.823  16.678  0.00  0.00    +0.000 NA
ATOM     22  C   UNL     1       7.197   5.072  17.046  0.00  0.00    +0.000 C 
ATOM     23  C   UNL     1       7.604   6.487  17.535  0.00  0.00    +0.000 C 
ATOM     24  O   UNL     1       6.932   7.547  16.850  0.00  0.00    +0.000 OA
ATOM     25  C   UNL     1       5.522   7.329  16.882  0.00  0.00    +0.000 C 
ATOM     26  C   UNL     1       5.185   6.048  16.111  0.00  0.00    +0.000 C 
ENDBRANCH  20  21
ENDBRANCH   7  20
TORSDOF 7
ENDMDL
MODEL 9
REMARK VINA RESULT:      -6.8      1.318      1.648
REMARK  Name = 
REMARK  8 active torsions:
REMARK  status: ('A' for Active; 'I' for Inactive)
REMARK    1  A    between atoms: C_1  and  C_2
REMARK    2  A    between atoms: C_2  and  C_3
REMARK    3  A    between atoms: C_3  and  C_4
REMARK    4  A    between atoms: C_6  and  C_7
REMARK    5  A    between atoms: C_11  and  C_12
REMARK    6  A    between atoms: C_12  and  O_13
REMARK    7  A    between atoms: C_15  and  C_16
REMARK    8  A    between atoms: C_16  and  N_17
REMARK                            x       y       z     vdW  Elec       q    Type
REMARK                         _______ _______ _______ _____ _____    ______ ____
ROOT
ATOM      1  C   UNL     1       1.899   5.282  19.999  0.00  0.00    +0.000 C 
ATOM      2  O   UNL     1       1.648   5.110  21.197  0.00  0.00    +0.000 OA
ATOM      3  N   UNL     1       2.115   4.189  19.144  0.00  0.00    +0.000 N 
ATOM      4  C   UNL     1       1.793   2.849  19.623  0.00  0.00    +0.000 C 
ATOM      5  C   UNL     1       2.970   1.881  19.446  0.00  0.00    +0.000 C 
ATOM      6  C   UNL     1       3.545   1.962  18.018  0.00  0.00    +0.000 C 
ATOM      7  C   UNL     1       3.778   3.381  17.468  0.00  0.00    +0.000 C 
ATOM      8  C   UNL     1       2.536   4.245  17.742  0.00  0.00    +0.000 C 
ENDROOT
BRANCH   1  11
ATOM      9  C   UNL     1       1.600   8.842  19.401  0.00  0.00    +0.000 A 
ATOM     10  N   UNL     1       1.477   7.757  20.120  0.00  0.00    +0.000 NA
ATOM     11  C   UNL     1       1.998   6.649  19.460  0.00  0.00    +0.000 A 
ATOM     12  C   UNL     1       2.646   6.974  18.280  0.00  0.00    +0.000 A 
ATOM     13  S   UNL     1       2.470   8.650  17.941  0.00  0.00    +0.000 S 
BRANCH   9  14
ATOM     14  C   UNL     1       1.015  10.158  19.822  0.00  0.00    +0.000 C 
BRANCH  14  16
ATOM     15  C   UNL     1      -1.236  10.405  18.696  0.00  0.00    +0.000 C 
ATOM     16  C   UNL     1      -0.504  10.035  19.974  0.00  0.00    +0.000 C 
ENDBRANCH  14  16
ENDBRANCH   9  14
ENDBRANCH   1  11
BRANCH   5  17
ATOM     17  C   UNL     1       4.043   2.068  20.522  0.00  0.00    +0.000 C 
BRANCH  17  18
ATOM     18  O   UNL     1       5.250   1.417  20.137  0.00  0.00    +0.000 OA
ATOM     19  H   UNL     1       5.025   0.775  19.438  0.00  0.00    +0.000 HD
ENDBRANCH  17  18
ENDBRANCH   5  17
BRANCH   7  20
ATOM     20  C   UNL     1       5.063   4.141  17.915  0.00  0.00    +0.000 C 
BRANCH  20  21
ATOM     21  N   UNL     1       5.985   4.568  16.859  0.00  0.00    +0.000 NA
ATOM     22  C   UNL     1       7.327   4.953  17.372  0.00  0.00    +0.000 C 
ATOM     23  C   UNL     1       7.630   6.455  17.613  0.00  0.00    +0.000 C 
ATOM     24  O   UNL     1       7.054   7.322  16.635  0.00  0.00    +0.000 OA
ATOM     25  C   UNL     1       5.659   7.048  16.503  0.00  0.00    +0.000 C 
ATOM     26  C   UNL     1       5.466   5.624  15.971  0.00  0.00    +0.000 C 
ENDBRANCH  20  21
ENDBRANCH   7  20
TORSDOF 7
ENDMDL
