MODEL 1
REMARK VINA RESULT:      -8.2      0.000      0.000
REMARK  Name = 
REMARK  9 active torsions:
REMARK  status: ('A' for Active; 'I' for Inactive)
REMARK    1  A    between atoms: C_1  and  O_2
REMARK    2  A    between atoms: O_2  and  C_3
REMARK    3  A    between atoms: C_6  and  S_7
REMARK    4  A    between atoms: S_7  and  N_10
REMARK    5  A    between atoms: N_10  and  C_11
REMARK    6  A    between atoms: C_11  and  C_12
REMARK    7  A    between atoms: C_12  and  O_13
REMARK    8  A    between atoms: O_13  and  C_14
REMARK    9  A    between atoms: C_21  and  N_22
REMARK                            x       y       z     vdW  Elec       q    Type
REMARK                         _______ _______ _______ _____ _____    ______ ____
ROOT
ATOM      1  S   UNL     1       3.093   2.633  18.295  0.00  0.00    +0.000 S 
ATOM      2  O   UNL     1       1.907   3.124  17.646  0.00  0.00    +0.000 OA
ATOM      3  O   UNL     1       3.585   1.288  18.090  0.00  0.00    +0.000 OA
ENDROOT
BRANCH   1   7
ATOM      4  C   UNL     1       6.662   5.377  17.491  0.00  0.00    +0.000 A 
ATOM      5  C   UNL     1       6.052   5.313  18.755  0.00  0.00    +0.000 A 
ATOM      6  C   UNL     1       4.968   4.476  18.982  0.00  0.00    +0.000 A 
ATOM      7  C   UNL     1       4.447   3.726  17.932  0.00  0.00    +0.000 A 
ATOM      8  C   UNL     1       4.979   3.834  16.643  0.00  0.00    +0.000 A 
ATOM      9  C   UNL     1       6.104   4.660  16.413  0.00  0.00    +0.000 A 
BRANCH   9  10
ATOM     10  N   UNL     1       6.641   4.702  15.095  0.00  0.00    +0.000 N 
ATOM     11  C   UNL     1       6.317   4.007  13.955  0.00  0.00    +0.000 A 
ATOM     12  N   UNL     1       7.089   4.394  12.963  0.00  0.00    +0.000 NA
ATOM     13  N   UNL     1       7.912   5.350  13.487  0.00  0.00    +0.000 NA
ATOM     14  N   UNL     1       7.651   5.551  14.770  0.00  0.00    +0.000 NA
ENDBRANCH   9  10
BRANCH   4  16
ATOM     15  C   UNL     1       7.680   7.491  17.791  0.00  0.00    +0.000 C 
ATOM     16  O   UNL     1       7.773   6.152  17.296  0.00  0.00    +0.000 OA
ENDBRANCH   4  16
ENDBRANCH   1   7
BRANCH   1  17
ATOM     17  N   UNL     1       2.934   2.823  19.961  0.00  0.00    +0.000 NA
ATOM     18  H   UNL     1       3.700   3.362  20.361  0.00  0.00    +0.000 HD
BRANCH  17  19
ATOM     19  C   UNL     1       1.612   2.978  20.585  0.00  0.00    +0.000 C 
BRANCH  19  20
ATOM     20  C   UNL     1       1.045   4.387  20.472  0.00  0.00    +0.000 C 
BRANCH  20  21
ATOM     21  O   UNL     1       2.092   5.315  20.746  0.00  0.00    +0.000 OA
BRANCH  21  22
ATOM     22  C   UNL     1       1.986   6.513  20.093  0.00  0.00    +0.000 A 
ATOM     23  C   UNL     1       1.416   7.536  20.850  0.00  0.00    +0.000 A 
ATOM     24  C   UNL     1       1.230   8.802  20.298  0.00  0.00    +0.000 A 
ATOM     25  C   UNL     1       1.635   9.057  18.989  0.00  0.00    +0.000 A 
ATOM     26  C   UNL     1       2.231   8.047  18.238  0.00  0.00    +0.000 A 
ATOM     27  C   UNL     1       2.410   6.776  18.788  0.00  0.00    +0.000 A 
ENDBRANCH  21  22
ENDBRANCH  20  21
ENDBRANCH  19  20
ENDBRANCH  17  19
ENDBRANCH   1  17
TORSDOF 8
ENDMDL
MODEL 2
REMARK VINA RESULT:      -8.2      0.648      1.149
REMARK  Name = 
REMARK  9 active torsions:
REMARK  status: ('A' for Active; 'I' for Inactive)
REMARK    1  A    between atoms: C_1  and  O_2
REMARK    2  A    between atoms: O_2  and  C_3
REMARK    3  A    between atoms: C_6  and  S_7
REMARK    4  A    between atoms: S_7  and  N_10
REMARK    5  A    between atoms: N_10  and  C_11
REMARK    6  A    between atoms: C_11  and  C_12
REMARK    7  A    between atoms: C_12  and  O_13
REMARK    8  A    between atoms: O_13  and  C_14
REMARK    9  A    between atoms: C_21  and  N_22
REMARK                            x       y       z     vdW  Elec       q    Type
REMARK                         _______ _______ _______ _____ _____    ______ ____
ROOT
ATOM      1  S   UNL     1       3.198   2.727  17.996  0.00  0.00    +0.000 S 
ATOM      2  O   UNL     1       2.099   2.841  17.073  0.00  0.00    +0.000 OA
ATOM      3  O   UNL     1       3.863   1.469  18.252  0.00  0.00    +0.000 OA
ENDROOT
BRANCH   1   7
ATOM      4  C   UNL     1       6.549   5.654  16.939  0.00  0.00    +0.000 A 
ATOM      5  C   UNL     1       5.929   5.668  18.199  0.00  0.00    +0.000 A 
ATOM      6  C   UNL     1       4.912   4.774  18.504  0.00  0.00    +0.000 A 
ATOM      7  C   UNL     1       4.465   3.884  17.532  0.00  0.00    +0.000 A 
ATOM      8  C   UNL     1       5.005   3.904  16.241  0.00  0.00    +0.000 A 
ATOM      9  C   UNL     1       6.064   4.790  15.936  0.00  0.00    +0.000 A 
BRANCH   9  10
ATOM     10  N   UNL     1       6.614   4.743  14.623  0.00  0.00    +0.000 N 
ATOM     11  C   UNL     1       6.269   4.008  13.515  0.00  0.00    +0.000 A 
ATOM     12  N   UNL     1       7.067   4.310  12.514  0.00  0.00    +0.000 NA
ATOM     13  N   UNL     1       7.927   5.254  13.000  0.00  0.00    +0.000 NA
ATOM     14  N   UNL     1       7.665   5.529  14.268  0.00  0.00    +0.000 NA
ENDBRANCH   9  10
BRANCH   4  16
ATOM     15  C   UNL     1       7.699   7.636  17.526  0.00  0.00    +0.000 C 
ATOM     16  O   UNL     1       7.598   6.492  16.673  0.00  0.00    +0.000 OA
ENDBRANCH   4  16
ENDBRANCH   1   7
BRANCH   1  17
ATOM     17  N   UNL     1       2.724   3.321  19.499  0.00  0.00    +0.000 NA
ATOM     18  H   UNL     1       3.501   3.733  20.013  0.00  0.00    +0.000 HD
BRANCH  17  19
ATOM     19  C   UNL     1       1.399   3.929  19.693  0.00  0.00    +0.000 C 
BRANCH  19  20
ATOM     20  C   UNL     1       1.402   5.098  20.669  0.00  0.00    +0.000 C 
BRANCH  20  21
ATOM     21  O   UNL     1       2.467   5.977  20.314  0.00  0.00    +0.000 OA
BRANCH  21  22
ATOM     22  C   UNL     1       2.073   7.182  19.800  0.00  0.00    +0.000 A 
ATOM     23  C   UNL     1       2.368   7.358  18.448  0.00  0.00    +0.000 A 
ATOM     24  C   UNL     1       2.040   8.550  17.804  0.00  0.00    +0.000 A 
ATOM     25  C   UNL     1       1.394   9.565  18.506  0.00  0.00    +0.000 A 
ATOM     26  C   UNL     1       1.071   9.384  19.849  0.00  0.00    +0.000 A 
ATOM     27  C   UNL     1       1.407   8.193  20.497  0.00  0.00    +0.000 A 
ENDBRANCH  21  22
ENDBRANCH  20  21
ENDBRANCH  19  20
ENDBRANCH  17  19
ENDBRANCH   1  17
TORSDOF 8
ENDMDL
MODEL 3
REMARK VINA RESULT:      -7.9      3.225      7.481
REMARK  Name = 
REMARK  9 active torsions:
REMARK  status: ('A' for Active; 'I' for Inactive)
REMARK    1  A    between atoms: C_1  and  O_2
REMARK    2  A    between atoms: O_2  and  C_3
REMARK    3  A    between atoms: C_6  and  S_7
REMARK    4  A    between atoms: S_7  and  N_10
REMARK    5  A    between atoms: N_10  and  C_11
REMARK    6  A    between atoms: C_11  and  C_12
REMARK    7  A    between atoms: C_12  and  O_13
REMARK    8  A    between atoms: O_13  and  C_14
REMARK    9  A    between atoms: C_21  and  N_22
REMARK                            x       y       z     vdW  Elec       q    Type
REMARK                         _______ _______ _______ _____ _____    ______ ____
ROOT
ATOM      1  S   UNL     1       7.384   5.172  17.270  0.00  0.00    +0.000 S 
ATOM      2  O   UNL     1       8.258   4.154  17.789  0.00  0.00    +0.000 OA
ATOM      3  O   UNL     1       7.515   5.690  15.927  0.00  0.00    +0.000 OA
ENDROOT
BRANCH   1   7
ATOM      4  C   UNL     1       3.081   3.656  17.595  0.00  0.00    +0.000 A 
ATOM      5  C   UNL     1       3.646   4.011  16.358  0.00  0.00    +0.000 A 
ATOM      6  C   UNL     1       4.953   4.472  16.277  0.00  0.00    +0.000 A 
ATOM      7  C   UNL     1       5.700   4.631  17.441  0.00  0.00    +0.000 A 
ATOM      8  C   UNL     1       5.136   4.367  18.694  0.00  0.00    +0.000 A 
ATOM      9  C   UNL     1       3.816   3.866  18.780  0.00  0.00    +0.000 A 
BRANCH   9  10
ATOM     10  N   UNL     1       3.300   3.567  20.073  0.00  0.00    +0.000 N 
ATOM     11  C   UNL     1       2.419   4.244  20.882  0.00  0.00    +0.000 A 
ATOM     12  N   UNL     1       2.230   3.570  21.996  0.00  0.00    +0.000 NA
ATOM     13  N   UNL     1       3.004   2.449  21.885  0.00  0.00    +0.000 NA
ATOM     14  N   UNL     1       3.651   2.430  20.729  0.00  0.00    +0.000 NA
ENDBRANCH   9  10
BRANCH   4  16
ATOM     15  C   UNL     1       1.732   1.779  18.096  0.00  0.00    +0.000 C 
ATOM     16  O   UNL     1       1.816   3.138  17.656  0.00  0.00    +0.000 OA
ENDBRANCH   4  16
ENDBRANCH   1   7
BRANCH   1  17
ATOM     17  N   UNL     1       7.421   6.509  18.293  0.00  0.00    +0.000 NA
ATOM     18  H   UNL     1       7.832   6.290  19.199  0.00  0.00    +0.000 HD
BRANCH  17  19
ATOM     19  C   UNL     1       7.651   7.863  17.766  0.00  0.00    +0.000 C 
BRANCH  19  20
ATOM     20  C   UNL     1       8.680   8.659  18.559  0.00  0.00    +0.000 C 
BRANCH  20  21
ATOM     21  O   UNL     1       8.560  10.034  18.197  0.00  0.00    +0.000 OA
BRANCH  21  22
ATOM     22  C   UNL     1       9.555  10.844  18.672  0.00  0.00    +0.000 A 
ATOM     23  C   UNL     1       9.557  11.006  20.058  0.00  0.00    +0.000 A 
ATOM     24  C   UNL     1      10.505  11.823  20.670  0.00  0.00    +0.000 A 
ATOM     25  C   UNL     1      11.472  12.466  19.900  0.00  0.00    +0.000 A 
ATOM     26  C   UNL     1      11.492  12.284  18.519  0.00  0.00    +0.000 A 
ATOM     27  C   UNL     1      10.537  11.473  17.903  0.00  0.00    +0.000 A 
ENDBRANCH  21  22
ENDBRANCH  20  21
ENDBRANCH  19  20
ENDBRANCH  17  19
ENDBRANCH   1  17
TORSDOF 8
ENDMDL
MODEL 4
REMARK VINA RESULT:      -7.9      0.881      1.001
REMARK  Name = 
REMARK  9 active torsions:
REMARK  status: ('A' for Active; 'I' for Inactive)
REMARK    1  A    between atoms: C_1  and  O_2
REMARK    2  A    between atoms: O_2  and  C_3
REMARK    3  A    between atoms: C_6  and  S_7
REMARK    4  A    between atoms: S_7  and  N_10
REMARK    5  A    between atoms: N_10  and  C_11
REMARK    6  A    between atoms: C_11  and  C_12
REMARK    7  A    between atoms: C_12  and  O_13
REMARK    8  A    between atoms: O_13  and  C_14
REMARK    9  A    between atoms: C_21  and  N_22
REMARK                            x       y       z     vdW  Elec       q    Type
REMARK                         _______ _______ _______ _____ _____    ______ ____
ROOT
ATOM      1  S   UNL     1       4.190   2.388  19.435  0.00  0.00    +0.000 S 
ATOM      2  O   UNL     1       3.584   1.555  18.430  0.00  0.00    +0.000 OA
ATOM      3  O   UNL     1       5.175   1.882  20.364  0.00  0.00    +0.000 OA
ENDROOT
BRANCH   1   7
ATOM      4  C   UNL     1       6.176   6.047  17.542  0.00  0.00    +0.000 A 
ATOM      5  C   UNL     1       5.676   6.077  18.854  0.00  0.00    +0.000 A 
ATOM      6  C   UNL     1       5.074   4.958  19.414  0.00  0.00    +0.000 A 
ATOM      7  C   UNL     1       4.919   3.806  18.649  0.00  0.00    +0.000 A 
ATOM      8  C   UNL     1       5.330   3.774  17.312  0.00  0.00    +0.000 A 
ATOM      9  C   UNL     1       5.974   4.900  16.747  0.00  0.00    +0.000 A 
BRANCH   9  10
ATOM     10  N   UNL     1       6.418   4.807  15.398  0.00  0.00    +0.000 N 
ATOM     11  C   UNL     1       5.889   4.160  14.306  0.00  0.00    +0.000 A 
ATOM     12  N   UNL     1       6.651   4.367  13.255  0.00  0.00    +0.000 NA
ATOM     13  N   UNL     1       7.676   5.158  13.691  0.00  0.00    +0.000 NA
ATOM     14  N   UNL     1       7.547   5.436  14.979  0.00  0.00    +0.000 NA
ENDBRANCH   9  10
BRANCH   4  16
ATOM     15  C   UNL     1       7.839   7.698  17.867  0.00  0.00    +0.000 C 
ATOM     16  O   UNL     1       6.830   7.132  17.025  0.00  0.00    +0.000 OA
ENDBRANCH   4  16
ENDBRANCH   1   7
BRANCH   1  17
ATOM     17  N   UNL     1       2.983   3.096  20.372  0.00  0.00    +0.000 NA
ATOM     18  H   UNL     1       3.365   3.659  21.130  0.00  0.00    +0.000 HD
BRANCH  17  19
ATOM     19  C   UNL     1       1.725   3.559  19.767  0.00  0.00    +0.000 C 
BRANCH  19  20
ATOM     20  C   UNL     1       1.144   4.796  20.439  0.00  0.00    +0.000 C 
BRANCH  20  21
ATOM     21  O   UNL     1       2.182   5.764  20.572  0.00  0.00    +0.000 OA
BRANCH  21  22
ATOM     22  C   UNL     1       2.011   6.899  19.827  0.00  0.00    +0.000 A 
ATOM     23  C   UNL     1       1.481   7.979  20.531  0.00  0.00    +0.000 A 
ATOM     24  C   UNL     1       1.237   9.190  19.886  0.00  0.00    +0.000 A 
ATOM     25  C   UNL     1       1.543   9.333  18.534  0.00  0.00    +0.000 A 
ATOM     26  C   UNL     1       2.099   8.266  17.832  0.00  0.00    +0.000 A 
ATOM     27  C   UNL     1       2.336   7.050  18.476  0.00  0.00    +0.000 A 
ENDBRANCH  21  22
ENDBRANCH  20  21
ENDBRANCH  19  20
ENDBRANCH  17  19
ENDBRANCH   1  17
TORSDOF 8
ENDMDL
MODEL 5
REMARK VINA RESULT:      -7.9      3.475      8.041
REMARK  Name = 
REMARK  9 active torsions:
REMARK  status: ('A' for Active; 'I' for Inactive)
REMARK    1  A    between atoms: C_1  and  O_2
REMARK    2  A    between atoms: O_2  and  C_3
REMARK    3  A    between atoms: C_6  and  S_7
REMARK    4  A    between atoms: S_7  and  N_10
REMARK    5  A    between atoms: N_10  and  C_11
REMARK    6  A    between atoms: C_11  and  C_12
REMARK    7  A    between atoms: C_12  and  O_13
REMARK    8  A    between atoms: O_13  and  C_14
REMARK    9  A    between atoms: C_21  and  N_22
REMARK                            x       y       z     vdW  Elec       q    Type
REMARK                         _______ _______ _______ _____ _____    ______ ____
ROOT
ATOM      1  S   UNL     1       3.565   5.443  18.501  0.00  0.00    +0.000 S 
ATOM      2  O   UNL     1       4.066   5.000  19.775  0.00  0.00    +0.000 OA
ATOM      3  O   UNL     1       2.695   4.623  17.687  0.00  0.00    +0.000 OA
ENDROOT
BRANCH   1   7
ATOM      4  C   UNL     1       1.340   9.417  18.912  0.00  0.00    +0.000 A 
ATOM      5  C   UNL     1       2.006   9.065  17.726  0.00  0.00    +0.000 A 
ATOM      6  C   UNL     1       2.679   7.856  17.619  0.00  0.00    +0.000 A 
ATOM      7  C   UNL     1       2.736   7.001  18.715  0.00  0.00    +0.000 A 
ATOM      8  C   UNL     1       2.156   7.363  19.935  0.00  0.00    +0.000 A 
ATOM      9  C   UNL     1       1.441   8.579  20.041  0.00  0.00    +0.000 A 
BRANCH   9  10
ATOM     10  N   UNL     1       0.827   8.885  21.289  0.00  0.00    +0.000 N 
ATOM     11  C   UNL     1      -0.439   8.642  21.766  0.00  0.00    +0.000 A 
ATOM     12  N   UNL     1      -0.548   9.104  22.992  0.00  0.00    +0.000 NA
ATOM     13  N   UNL     1       0.669   9.646  23.293  0.00  0.00    +0.000 NA
ATOM     14  N   UNL     1       1.511   9.517  22.278  0.00  0.00    +0.000 NA
ENDBRANCH   9  10
BRANCH   4  16
ATOM     15  C   UNL     1      -0.677  10.536  18.385  0.00  0.00    +0.000 C 
ATOM     16  O   UNL     1       0.622  10.580  18.984  0.00  0.00    +0.000 OA
ENDBRANCH   4  16
ENDBRANCH   1   7
BRANCH   1  17
ATOM     17  N   UNL     1       4.859   5.874  17.515  0.00  0.00    +0.000 NA
ATOM     18  H   UNL     1       4.674   6.726  16.986  0.00  0.00    +0.000 HD
BRANCH  17  19
ATOM     19  C   UNL     1       6.249   5.642  17.939  0.00  0.00    +0.000 C 
BRANCH  19  20
ATOM     20  C   UNL     1       7.078   4.874  16.918  0.00  0.00    +0.000 C 
BRANCH  20  21
ATOM     21  O   UNL     1       7.158   5.654  15.726  0.00  0.00    +0.000 OA
BRANCH  21  22
ATOM     22  C   UNL     1       6.856   4.980  14.575  0.00  0.00    +0.000 A 
ATOM     23  C   UNL     1       7.736   5.216  13.519  0.00  0.00    +0.000 A 
ATOM     24  C   UNL     1       7.532   4.608  12.282  0.00  0.00    +0.000 A 
ATOM     25  C   UNL     1       6.456   3.741  12.101  0.00  0.00    +0.000 A 
ATOM     26  C   UNL     1       5.590   3.479  13.161  0.00  0.00    +0.000 A 
ATOM     27  C   UNL     1       5.789   4.095  14.398  0.00  0.00    +0.000 A 
ENDBRANCH  21  22
ENDBRANCH  20  21
ENDBRANCH  19  20
ENDBRANCH  17  19
ENDBRANCH   1  17
TORSDOF 8
ENDMDL
MODEL 6
REMARK VINA RESULT:      -7.8      3.785      7.606
REMARK  Name = 
REMARK  9 active torsions:
REMARK  status: ('A' for Active; 'I' for Inactive)
REMARK    1  A    between atoms: C_1  and  O_2
REMARK    2  A    between atoms: O_2  and  C_3
REMARK    3  A    between atoms: C_6  and  S_7
REMARK    4  A    between atoms: S_7  and  N_10
REMARK    5  A    between atoms: N_10  and  C_11
REMARK    6  A    between atoms: C_11  and  C_12
REMARK    7  A    between atoms: C_12  and  O_13
REMARK    8  A    between atoms: O_13  and  C_14
REMARK    9  A    between atoms: C_21  and  N_22
REMARK                            x       y       z     vdW  Elec       q    Type
REMARK                         _______ _______ _______ _____ _____    ______ ____
ROOT
ATOM      1  S   UNL     1       7.045   5.642  17.060  0.00  0.00    +0.000 S 
ATOM      2  O   UNL     1       7.848   4.876  17.975  0.00  0.00    +0.000 OA
ATOM      3  O   UNL     1       7.241   5.585  15.628  0.00  0.00    +0.000 OA
ENDROOT
BRANCH   1   7
ATOM      4  C   UNL     1       2.676   4.542  17.846  0.00  0.00    +0.000 A 
ATOM      5  C   UNL     1       3.473   3.802  16.957  0.00  0.00    +0.000 A 
ATOM      6  C   UNL     1       4.797   4.150  16.728  0.00  0.00    +0.000 A 
ATOM      7  C   UNL     1       5.330   5.276  17.348  0.00  0.00    +0.000 A 
ATOM      8  C   UNL     1       4.535   6.082  18.171  0.00  0.00    +0.000 A 
ATOM      9  C   UNL     1       3.195   5.713  18.435  0.00  0.00    +0.000 A 
BRANCH   9  10
ATOM     10  N   UNL     1       2.438   6.536  19.316  0.00  0.00    +0.000 N 
ATOM     11  C   UNL     1       1.820   6.265  20.512  0.00  0.00    +0.000 A 
ATOM     12  N   UNL     1       1.242   7.353  20.972  0.00  0.00    +0.000 NA
ATOM     13  N   UNL     1       1.503   8.327  20.050  0.00  0.00    +0.000 NA
ATOM     14  N   UNL     1       2.227   7.852  19.048  0.00  0.00    +0.000 NA
ENDBRANCH   9  10
BRANCH   4  16
ATOM     15  C   UNL     1       1.265   2.871  18.748  0.00  0.00    +0.000 C 
ATOM     16  O   UNL     1       1.394   4.149  18.118  0.00  0.00    +0.000 OA
ENDBRANCH   4  16
ENDBRANCH   1   7
BRANCH   1  17
ATOM     17  N   UNL     1       7.124   7.271  17.479  0.00  0.00    +0.000 NA
ATOM     18  H   UNL     1       6.210   7.653  17.714  0.00  0.00    +0.000 HD
BRANCH  17  19
ATOM     19  C   UNL     1       8.281   7.812  18.210  0.00  0.00    +0.000 C 
BRANCH  19  20
ATOM     20  C   UNL     1       8.387   9.330  18.146  0.00  0.00    +0.000 C 
BRANCH  20  21
ATOM     21  O   UNL     1       8.936   9.794  19.377  0.00  0.00    +0.000 OA
BRANCH  21  22
ATOM     22  C   UNL     1       9.836  10.818  19.257  0.00  0.00    +0.000 A 
ATOM     23  C   UNL     1      10.128  11.180  17.942  0.00  0.00    +0.000 A 
ATOM     24  C   UNL     1      11.046  12.195  17.678  0.00  0.00    +0.000 A 
ATOM     25  C   UNL     1      11.661  12.869  18.731  0.00  0.00    +0.000 A 
ATOM     26  C   UNL     1      11.352  12.531  20.047  0.00  0.00    +0.000 A 
ATOM     27  C   UNL     1      10.439  11.508  20.312  0.00  0.00    +0.000 A 
ENDBRANCH  21  22
ENDBRANCH  20  21
ENDBRANCH  19  20
ENDBRANCH  17  19
ENDBRANCH   1  17
TORSDOF 8
ENDMDL
MODEL 7
REMARK VINA RESULT:      -7.8      4.010      7.502
REMARK  Name = 
REMARK  9 active torsions:
REMARK  status: ('A' for Active; 'I' for Inactive)
REMARK    1  A    between atoms: C_1  and  O_2
REMARK    2  A    between atoms: O_2  and  C_3
REMARK    3  A    between atoms: C_6  and  S_7
REMARK    4  A    between atoms: S_7  and  N_10
REMARK    5  A    between atoms: N_10  and  C_11
REMARK    6  A    between atoms: C_11  and  C_12
REMARK    7  A    between atoms: C_12  and  O_13
REMARK    8  A    between atoms: O_13  and  C_14
REMARK    9  A    between atoms: C_21  and  N_22
REMARK                            x       y       z     vdW  Elec       q    Type
REMARK                         _______ _______ _______ _____ _____    ______ ____
ROOT
ATOM      1  S   UNL     1       7.074   5.737  16.629  0.00  0.00    +0.000 S 
ATOM      2  O   UNL     1       7.930   5.085  17.584  0.00  0.00    +0.000 OA
ATOM      3  O   UNL     1       7.169   5.485  15.208  0.00  0.00    +0.000 OA
ENDROOT
BRANCH   1   7
ATOM      4  C   UNL     1       2.764   4.867  17.884  0.00  0.00    +0.000 A 
ATOM      5  C   UNL     1       3.567   3.886  17.278  0.00  0.00    +0.000 A 
ATOM      6  C   UNL     1       4.873   4.167  16.901  0.00  0.00    +0.000 A 
ATOM      7  C   UNL     1       5.379   5.451  17.080  0.00  0.00    +0.000 A 
ATOM      8  C   UNL     1       4.575   6.470  17.601  0.00  0.00    +0.000 A 
ATOM      9  C   UNL     1       3.254   6.182  18.017  0.00  0.00    +0.000 A 
BRANCH   9  10
ATOM     10  N   UNL     1       2.488   7.239  18.585  0.00  0.00    +0.000 N 
ATOM     11  C   UNL     1       2.089   7.484  19.877  0.00  0.00    +0.000 A 
ATOM     12  N   UNL     1       1.397   8.601  19.924  0.00  0.00    +0.000 NA
ATOM     13  N   UNL     1       1.361   9.068  18.641  0.00  0.00    +0.000 NA
ATOM     14  N   UNL     1       2.019   8.261  17.823  0.00  0.00    +0.000 NA
ENDBRANCH   9  10
BRANCH   4  16
ATOM     15  C   UNL     1       1.203   3.162  18.388  0.00  0.00    +0.000 C 
ATOM     16  O   UNL     1       1.502   4.559  18.315  0.00  0.00    +0.000 OA
ENDBRANCH   4  16
ENDBRANCH   1   7
BRANCH   1  17
ATOM     17  N   UNL     1       7.202   7.406  16.816  0.00  0.00    +0.000 NA
ATOM     18  H   UNL     1       6.336   7.888  16.582  0.00  0.00    +0.000 HD
BRANCH  17  19
ATOM     19  C   UNL     1       8.020   7.990  17.891  0.00  0.00    +0.000 C 
BRANCH  19  20
ATOM     20  C   UNL     1       7.992   9.512  17.920  0.00  0.00    +0.000 C 
BRANCH  20  21
ATOM     21  O   UNL     1       9.154   9.970  18.608  0.00  0.00    +0.000 OA
BRANCH  21  22
ATOM     22  C   UNL     1       9.595  11.210  18.235  0.00  0.00    +0.000 A 
ATOM     23  C   UNL     1      10.955  11.275  17.936  0.00  0.00    +0.000 A 
ATOM     24  C   UNL     1      11.538  12.484  17.562  0.00  0.00    +0.000 A 
ATOM     25  C   UNL     1      10.755  13.633  17.463  0.00  0.00    +0.000 A 
ATOM     26  C   UNL     1       9.390  13.568  17.732  0.00  0.00    +0.000 A 
ATOM     27  C   UNL     1       8.807  12.358  18.116  0.00  0.00    +0.000 A 
ENDBRANCH  21  22
ENDBRANCH  20  21
ENDBRANCH  19  20
ENDBRANCH  17  19
ENDBRANCH   1  17
TORSDOF 8
ENDMDL
MODEL 8
REMARK VINA RESULT:      -7.8      3.140      7.441
REMARK  Name = 
REMARK  9 active torsions:
REMARK  status: ('A' for Active; 'I' for Inactive)
REMARK    1  A    between atoms: C_1  and  O_2
REMARK    2  A    between atoms: O_2  and  C_3
REMARK    3  A    between atoms: C_6  and  S_7
REMARK    4  A    between atoms: S_7  and  N_10
REMARK    5  A    between atoms: N_10  and  C_11
REMARK    6  A    between atoms: C_11  and  C_12
REMARK    7  A    between atoms: C_12  and  O_13
REMARK    8  A    between atoms: O_13  and  C_14
REMARK    9  A    between atoms: C_21  and  N_22
REMARK                            x       y       z     vdW  Elec       q    Type
REMARK                         _______ _______ _______ _____ _____    ______ ____
ROOT
ATOM      1  S   UNL     1       7.539   5.279  17.986  0.00  0.00    +0.000 S 
ATOM      2  O   UNL     1       7.934   5.705  19.303  0.00  0.00    +0.000 OA
ATOM      3  O   UNL     1       8.218   4.213  17.284  0.00  0.00    +0.000 OA
ENDROOT
BRANCH   1   7
ATOM      4  C   UNL     1       3.128   4.073  17.914  0.00  0.00    +0.000 A 
ATOM      5  C   UNL     1       3.767   4.595  16.778  0.00  0.00    +0.000 A 
ATOM      6  C   UNL     1       5.107   4.959  16.817  0.00  0.00    +0.000 A 
ATOM      7  C   UNL     1       5.814   4.850  18.010  0.00  0.00    +0.000 A 
ATOM      8  C   UNL     1       5.181   4.414  19.179  0.00  0.00    +0.000 A 
ATOM      9  C   UNL     1       3.826   4.011  19.138  0.00  0.00    +0.000 A 
BRANCH   9  10
ATOM     10  N   UNL     1       3.237   3.530  20.341  0.00  0.00    +0.000 N 
ATOM     11  C   UNL     1       3.408   2.356  21.034  0.00  0.00    +0.000 A 
ATOM     12  N   UNL     1       2.649   2.358  22.108  0.00  0.00    +0.000 NA
ATOM     13  N   UNL     1       1.990   3.555  22.091  0.00  0.00    +0.000 NA
ATOM     14  N   UNL     1       2.337   4.275  21.035  0.00  0.00    +0.000 NA
ENDBRANCH   9  10
BRANCH   4  16
ATOM     15  C   UNL     1       1.636   2.237  17.935  0.00  0.00    +0.000 C 
ATOM     16  O   UNL     1       1.828   3.652  17.846  0.00  0.00    +0.000 OA
ENDBRANCH   4  16
ENDBRANCH   1   7
BRANCH   1  17
ATOM     17  N   UNL     1       7.549   6.604  16.947  0.00  0.00    +0.000 NA
ATOM     18  H   UNL     1       7.182   6.373  16.025  0.00  0.00    +0.000 HD
BRANCH  17  19
ATOM     19  C   UNL     1       7.292   7.964  17.446  0.00  0.00    +0.000 C 
BRANCH  19  20
ATOM     20  C   UNL     1       8.480   8.582  18.172  0.00  0.00    +0.000 C 
BRANCH  20  21
ATOM     21  O   UNL     1       8.239   9.980  18.318  0.00  0.00    +0.000 OA
BRANCH  21  22
ATOM     22  C   UNL     1       9.327  10.715  18.703  0.00  0.00    +0.000 A 
ATOM     23  C   UNL     1       9.435  10.910  20.080  0.00  0.00    +0.000 A 
ATOM     24  C   UNL     1      10.486  11.659  20.605  0.00  0.00    +0.000 A 
ATOM     25  C   UNL     1      11.448  12.201  19.755  0.00  0.00    +0.000 A 
ATOM     26  C   UNL     1      11.360  11.986  18.381  0.00  0.00    +0.000 A 
ATOM     27  C   UNL     1      10.303  11.242  17.854  0.00  0.00    +0.000 A 
ENDBRANCH  21  22
ENDBRANCH  20  21
ENDBRANCH  19  20
ENDBRANCH  17  19
ENDBRANCH   1  17
TORSDOF 8
ENDMDL
MODEL 9
REMARK VINA RESULT:      -7.7      3.995      7.591
REMARK  Name = 
REMARK  9 active torsions:
REMARK  status: ('A' for Active; 'I' for Inactive)
REMARK    1  A    between atoms: C_1  and  O_2
REMARK    2  A    between atoms: O_2  and  C_3
REMARK    3  A    between atoms: C_6  and  S_7
REMARK    4  A    between atoms: S_7  and  N_10
REMARK    5  A    between atoms: N_10  and  C_11
REMARK    6  A    between atoms: C_11  and  C_12
REMARK    7  A    between atoms: C_12  and  O_13
REMARK    8  A    between atoms: O_13  and  C_14
REMARK    9  A    between atoms: C_21  and  N_22
REMARK                            x       y       z     vdW  Elec       q    Type
REMARK                         _______ _______ _______ _____ _____    ______ ____
ROOT
ATOM      1  S   UNL     1       7.099   5.907  16.764  0.00  0.00    +0.000 S 
ATOM      2  O   UNL     1       7.917   5.197  17.711  0.00  0.00    +0.000 OA
ATOM      3  O   UNL     1       7.244   5.734  15.336  0.00  0.00    +0.000 OA
ENDROOT
BRANCH   1   7
ATOM      4  C   UNL     1       2.742   4.997  17.815  0.00  0.00    +0.000 A 
ATOM      5  C   UNL     1       3.567   4.040  17.202  0.00  0.00    +0.000 A 
ATOM      6  C   UNL     1       4.887   4.333  16.888  0.00  0.00    +0.000 A 
ATOM      7  C   UNL     1       5.387   5.607  17.138  0.00  0.00    +0.000 A 
ATOM      8  C   UNL     1       4.564   6.606  17.668  0.00  0.00    +0.000 A 
ATOM      9  C   UNL     1       3.229   6.304  18.021  0.00  0.00    +0.000 A 
BRANCH   9  10
ATOM     10  N   UNL     1       2.442   7.340  18.601  0.00  0.00    +0.000 N 
ATOM     11  C   UNL     1       1.858   8.457  18.054  0.00  0.00    +0.000 A 
ATOM     12  N   UNL     1       1.214   9.124  18.987  0.00  0.00    +0.000 NA
ATOM     13  N   UNL     1       1.394   8.413  20.140  0.00  0.00    +0.000 NA
ATOM     14  N   UNL     1       2.128   7.333  19.923  0.00  0.00    +0.000 NA
ENDBRANCH   9  10
BRANCH   4  16
ATOM     15  C   UNL     1       1.239   3.293  18.472  0.00  0.00    +0.000 C 
ATOM     16  O   UNL     1       1.464   4.676  18.184  0.00  0.00    +0.000 OA
ENDBRANCH   4  16
ENDBRANCH   1   7
BRANCH   1  17
ATOM     17  N   UNL     1       7.228   7.562  17.050  0.00  0.00    +0.000 NA
ATOM     18  H   UNL     1       6.333   7.981  17.298  0.00  0.00    +0.000 HD
BRANCH  17  19
ATOM     19  C   UNL     1       8.429   8.133  17.679  0.00  0.00    +0.000 C 
BRANCH  19  20
ATOM     20  C   UNL     1       8.261   9.586  18.106  0.00  0.00    +0.000 C 
BRANCH  20  21
ATOM     21  O   UNL     1       9.122   9.829  19.216  0.00  0.00    +0.000 OA
BRANCH  21  22
ATOM     22  C   UNL     1       9.951  10.909  19.077  0.00  0.00    +0.000 A 
ATOM     23  C   UNL     1      10.266  11.554  20.272  0.00  0.00    +0.000 A 
ATOM     24  C   UNL     1      11.085  12.682  20.270  0.00  0.00    +0.000 A 
ATOM     25  C   UNL     1      11.611  13.158  19.071  0.00  0.00    +0.000 A 
ATOM     26  C   UNL     1      11.323  12.500  17.877  0.00  0.00    +0.000 A 
ATOM     27  C   UNL     1      10.495  11.375  17.878  0.00  0.00    +0.000 A 
ENDBRANCH  21  22
ENDBRANCH  20  21
ENDBRANCH  19  20
ENDBRANCH  17  19
ENDBRANCH   1  17
TORSDOF 8
ENDMDL
