MODEL 1
REMARK VINA RESULT:      -6.3      0.000      0.000
REMARK  Name = 
REMARK  11 active torsions:
REMARK  status: ('A' for Active; 'I' for Inactive)
REMARK    1  A    between atoms: C_1  and  O_2
REMARK    2  A    between atoms: O_2  and  C_3
REMARK    3  A    between atoms: C_5  and  C_6
REMARK    4  A    between atoms: C_6  and  C_7
REMARK    5  A    between atoms: C_6  and  C_8
REMARK    6  A    between atoms: C_9  and  O_10
REMARK    7  A    between atoms: O_10  and  C_11
REMARK    8  A    between atoms: N_15  and  C_16
REMARK    9  A    between atoms: C_16  and  C_17
REMARK   10  A    between atoms: C_17  and  N_18
REMARK   11  A    between atoms: C_20  and  N_21
REMARK                            x       y       z     vdW  Elec       q    Type
REMARK                         _______ _______ _______ _____ _____    ______ ____
ROOT
ATOM      1  C   UNL     1       2.088   8.384  18.985  0.00  0.00    +0.000 A 
ATOM      2  C   UNL     1       1.613   9.001  17.851  0.00  0.00    +0.000 A 
ATOM      3  N   UNL     1       0.476   9.723  17.813  0.00  0.00    +0.000 NA
ATOM      4  C   UNL     1      -0.162   9.909  18.974  0.00  0.00    +0.000 A 
ATOM      5  N   UNL     1      -1.390  10.551  19.005  0.00  0.00    +0.000 N 
ATOM      6  N   UNL     1       0.300   9.474  20.152  0.00  0.00    +0.000 NA
ATOM      7  C   UNL     1       1.394   8.693  20.143  0.00  0.00    +0.000 A 
ATOM      8  H   UNL     1      -1.241  11.436  19.474  0.00  0.00    +0.000 HD
ENDROOT
BRANCH   7   9
ATOM      9  N   UNL     1       1.806   8.232  21.397  0.00  0.00    +0.000 N 
ATOM     10  H   UNL     1       1.496   8.913  22.085  0.00  0.00    +0.000 HD
ATOM     11  H   UNL     1       1.452   7.301  21.586  0.00  0.00    +0.000 HD
ENDBRANCH   7   9
BRANCH   1  12
ATOM     12  O   UNL     1       3.176   7.556  19.044  0.00  0.00    +0.000 OA
BRANCH  12  16
ATOM     13  C   UNL     1       2.959   3.526  17.894  0.00  0.00    +0.000 A 
ATOM     14  C   UNL     1       3.820   4.426  17.254  0.00  0.00    +0.000 A 
ATOM     15  C   UNL     1       3.898   5.780  17.629  0.00  0.00    +0.000 A 
ATOM     16  C   UNL     1       3.054   6.233  18.660  0.00  0.00    +0.000 A 
ATOM     17  C   UNL     1       2.194   5.335  19.314  0.00  0.00    +0.000 A 
ATOM     18  C   UNL     1       2.124   3.997  18.908  0.00  0.00    +0.000 A 
ATOM     19  I   UNL     1       0.765   2.746  19.898  0.00  0.00    +0.000 I 
BRANCH  15  20
ATOM     20  C   UNL     1       4.943   6.688  16.990  0.00  0.00    +0.000 C 
ATOM     21  C   UNL     1       6.292   6.474  17.685  0.00  0.00    +0.000 C 
ATOM     22  C   UNL     1       5.108   6.499  15.474  0.00  0.00    +0.000 C 
ENDBRANCH  15  20
BRANCH  13  24
ATOM     23  C   UNL     1       3.804   1.356  18.263  0.00  0.00    +0.000 C 
ATOM     24  O   UNL     1       2.900   2.200  17.550  0.00  0.00    +0.000 OA
ENDBRANCH  13  24
ENDBRANCH  12  16
ENDBRANCH   1  12
BRANCH   5  25
ATOM     25  C   UNL     1      -2.067  10.687  17.720  0.00  0.00    +0.000 C 
BRANCH  25  26
ATOM     26  C   UNL     1      -3.479  11.259  17.954  0.00  0.00    +0.000 C 
BRANCH  26  27
ATOM     27  N   UNL     1      -4.056  11.852  16.741  0.00  0.00    +0.000 NA
ATOM     28  H   UNL     1      -3.427  12.589  16.421  0.00  0.00    +0.000 HD
ATOM     29  H   UNL     1      -4.924  12.325  16.993  0.00  0.00    +0.000 HD
ENDBRANCH  26  27
ENDBRANCH  25  26
ENDBRANCH   5  25
TORSDOF 8
ENDMDL
MODEL 2
REMARK VINA RESULT:      -6.2      3.652      8.146
REMARK  Name = 
REMARK  11 active torsions:
REMARK  status: ('A' for Active; 'I' for Inactive)
REMARK    1  A    between atoms: C_1  and  O_2
REMARK    2  A    between atoms: O_2  and  C_3
REMARK    3  A    between atoms: C_5  and  C_6
REMARK    4  A    between atoms: C_6  and  C_7
REMARK    5  A    between atoms: C_6  and  C_8
REMARK    6  A    between atoms: C_9  and  O_10
REMARK    7  A    between atoms: O_10  and  C_11
REMARK    8  A    between atoms: N_15  and  C_16
REMARK    9  A    between atoms: C_16  and  C_17
REMARK   10  A    between atoms: C_17  and  N_18
REMARK   11  A    between atoms: C_20  and  N_21
REMARK                            x       y       z     vdW  Elec       q    Type
REMARK                         _______ _______ _______ _____ _____    ______ ____
ROOT
ATOM      1  C   UNL     1       1.505   9.205  19.426  0.00  0.00    +0.000 A 
ATOM      2  C   UNL     1       1.993   8.652  18.264  0.00  0.00    +0.000 A 
ATOM      3  N   UNL     1       2.522   7.415  18.190  0.00  0.00    +0.000 NA
ATOM      4  C   UNL     1       2.478   6.671  19.300  0.00  0.00    +0.000 A 
ATOM      5  N   UNL     1       3.091   5.428  19.337  0.00  0.00    +0.000 N 
ATOM      6  N   UNL     1       1.890   7.066  20.436  0.00  0.00    +0.000 NA
ATOM      7  C   UNL     1       1.443   8.331  20.498  0.00  0.00    +0.000 A 
ATOM      8  H   UNL     1       2.348   4.741  19.400  0.00  0.00    +0.000 HD
ENDROOT
BRANCH   7   9
ATOM      9  N   UNL     1       0.877   8.703  21.722  0.00  0.00    +0.000 N 
ATOM     10  H   UNL     1       1.422   9.484  22.080  0.00  0.00    +0.000 HD
ATOM     11  H   UNL     1      -0.106   8.928  21.625  0.00  0.00    +0.000 HD
ENDBRANCH   7   9
BRANCH   1  12
ATOM     12  O   UNL     1       1.059  10.491  19.568  0.00  0.00    +0.000 OA
BRANCH  12  16
ATOM     13  C   UNL     1      -2.894  11.579  18.674  0.00  0.00    +0.000 A 
ATOM     14  C   UNL     1      -2.305  11.900  19.903  0.00  0.00    +0.000 A 
ATOM     15  C   UNL     1      -0.982  11.537  20.215  0.00  0.00    +0.000 A 
ATOM     16  C   UNL     1      -0.254  10.801  19.261  0.00  0.00    +0.000 A 
ATOM     17  C   UNL     1      -0.833  10.483  18.022  0.00  0.00    +0.000 A 
ATOM     18  C   UNL     1      -2.157  10.842  17.746  0.00  0.00    +0.000 A 
ATOM     19  I   UNL     1      -2.960  10.268  15.897  0.00  0.00    +0.000 I 
BRANCH  15  20
ATOM     20  C   UNL     1      -0.344  12.022  21.512  0.00  0.00    +0.000 C 
ATOM     21  C   UNL     1      -0.141  13.539  21.440  0.00  0.00    +0.000 C 
ATOM     22  C   UNL     1      -1.136  11.668  22.781  0.00  0.00    +0.000 C 
ENDBRANCH  15  20
BRANCH  13  24
ATOM     23  C   UNL     1      -4.935  12.472  19.448  0.00  0.00    +0.000 C 
ATOM     24  O   UNL     1      -4.174  11.954  18.356  0.00  0.00    +0.000 OA
ENDBRANCH  13  24
ENDBRANCH  12  16
ENDBRANCH   1  12
BRANCH   5  25
ATOM     25  C   UNL     1       4.037   5.156  18.260  0.00  0.00    +0.000 C 
BRANCH  25  26
ATOM     26  C   UNL     1       5.350   4.623  18.866  0.00  0.00    +0.000 C 
BRANCH  26  27
ATOM     27  N   UNL     1       5.298   3.182  19.147  0.00  0.00    +0.000 NA
ATOM     28  H   UNL     1       5.489   3.049  20.140  0.00  0.00    +0.000 HD
ATOM     29  H   UNL     1       6.070   2.729  18.658  0.00  0.00    +0.000 HD
ENDBRANCH  26  27
ENDBRANCH  25  26
ENDBRANCH   5  25
TORSDOF 8
ENDMDL
MODEL 3
REMARK VINA RESULT:      -6.2      4.060      8.317
REMARK  Name = 
REMARK  11 active torsions:
REMARK  status: ('A' for Active; 'I' for Inactive)
REMARK    1  A    between atoms: C_1  and  O_2
REMARK    2  A    between atoms: O_2  and  C_3
REMARK    3  A    between atoms: C_5  and  C_6
REMARK    4  A    between atoms: C_6  and  C_7
REMARK    5  A    between atoms: C_6  and  C_8
REMARK    6  A    between atoms: C_9  and  O_10
REMARK    7  A    between atoms: O_10  and  C_11
REMARK    8  A    between atoms: N_15  and  C_16
REMARK    9  A    between atoms: C_16  and  C_17
REMARK   10  A    between atoms: C_17  and  N_18
REMARK   11  A    between atoms: C_20  and  N_21
REMARK                            x       y       z     vdW  Elec       q    Type
REMARK                         _______ _______ _______ _____ _____    ______ ____
ROOT
ATOM      1  C   UNL     1       0.998   9.749  19.826  0.00  0.00    +0.000 A 
ATOM      2  C   UNL     1       0.865   8.932  20.926  0.00  0.00    +0.000 A 
ATOM      3  N   UNL     1       1.295   7.655  20.964  0.00  0.00    +0.000 NA
ATOM      4  C   UNL     1       1.963   7.209  19.894  0.00  0.00    +0.000 A 
ATOM      5  N   UNL     1       2.348   5.880  19.812  0.00  0.00    +0.000 N 
ATOM      6  N   UNL     1       2.270   7.974  18.840  0.00  0.00    +0.000 NA
ATOM      7  C   UNL     1       1.761   9.216  18.801  0.00  0.00    +0.000 A 
ATOM      8  H   UNL     1       3.359   5.868  19.874  0.00  0.00    +0.000 HD
ENDROOT
BRANCH   7   9
ATOM      9  N   UNL     1       2.079   9.954  17.657  0.00  0.00    +0.000 N 
ATOM     10  H   UNL     1       3.071   9.821  17.480  0.00  0.00    +0.000 HD
ATOM     11  H   UNL     1       1.505   9.682  16.866  0.00  0.00    +0.000 HD
ENDBRANCH   7   9
BRANCH   1  12
ATOM     12  O   UNL     1       0.483  11.011  19.707  0.00  0.00    +0.000 OA
BRANCH  12  16
ATOM     13  C   UNL     1      -3.454  11.685  18.421  0.00  0.00    +0.000 A 
ATOM     14  C   UNL     1      -3.021  12.079  19.693  0.00  0.00    +0.000 A 
ATOM     15  C   UNL     1      -1.704  11.856  20.135  0.00  0.00    +0.000 A 
ATOM     16  C   UNL     1      -0.818  11.184  19.271  0.00  0.00    +0.000 A 
ATOM     17  C   UNL     1      -1.242  10.793  17.990  0.00  0.00    +0.000 A 
ATOM     18  C   UNL     1      -2.563  11.013  17.583  0.00  0.00    +0.000 A 
ATOM     19  I   UNL     1      -3.124  10.336  15.681  0.00  0.00    +0.000 I 
BRANCH  15  20
ATOM     20  C   UNL     1      -1.245  12.420  21.476  0.00  0.00    +0.000 C 
ATOM     21  C   UNL     1      -1.973  13.740  21.745  0.00  0.00    +0.000 C 
ATOM     22  C   UNL     1      -1.442  11.469  22.666  0.00  0.00    +0.000 C 
ENDBRANCH  15  20
BRANCH  13  24
ATOM     23  C   UNL     1      -5.743  11.154  18.618  0.00  0.00    +0.000 C 
ATOM     24  O   UNL     1      -4.728  11.925  17.975  0.00  0.00    +0.000 OA
ENDBRANCH  13  24
ENDBRANCH  12  16
ENDBRANCH   1  12
BRANCH   5  25
ATOM     25  C   UNL     1       1.703   4.973  20.755  0.00  0.00    +0.000 C 
BRANCH  25  26
ATOM     26  C   UNL     1       2.381   3.592  20.669  0.00  0.00    +0.000 C 
BRANCH  26  27
ATOM     27  N   UNL     1       2.532   2.954  21.983  0.00  0.00    +0.000 NA
ATOM     28  H   UNL     1       2.197   1.994  21.906  0.00  0.00    +0.000 HD
ATOM     29  H   UNL     1       1.899   3.412  22.640  0.00  0.00    +0.000 HD
ENDBRANCH  26  27
ENDBRANCH  25  26
ENDBRANCH   5  25
TORSDOF 8
ENDMDL
MODEL 4
REMARK VINA RESULT:      -6.1      1.993      2.717
REMARK  Name = 
REMARK  11 active torsions:
REMARK  status: ('A' for Active; 'I' for Inactive)
REMARK    1  A    between atoms: C_1  and  O_2
REMARK    2  A    between atoms: O_2  and  C_3
REMARK    3  A    between atoms: C_5  and  C_6
REMARK    4  A    between atoms: C_6  and  C_7
REMARK    5  A    between atoms: C_6  and  C_8
REMARK    6  A    between atoms: C_9  and  O_10
REMARK    7  A    between atoms: O_10  and  C_11
REMARK    8  A    between atoms: N_15  and  C_16
REMARK    9  A    between atoms: C_16  and  C_17
REMARK   10  A    between atoms: C_17  and  N_18
REMARK   11  A    between atoms: C_20  and  N_21
REMARK                            x       y       z     vdW  Elec       q    Type
REMARK                         _______ _______ _______ _____ _____    ______ ____
ROOT
ATOM      1  C   UNL     1       2.061   8.229  19.238  0.00  0.00    +0.000 A 
ATOM      2  C   UNL     1       1.572   7.841  20.464  0.00  0.00    +0.000 A 
ATOM      3  N   UNL     1       0.666   8.551  21.165  0.00  0.00    +0.000 NA
ATOM      4  C   UNL     1       0.165   9.643  20.576  0.00  0.00    +0.000 A 
ATOM      5  N   UNL     1      -0.692  10.484  21.269  0.00  0.00    +0.000 N 
ATOM      6  N   UNL     1       0.469  10.018  19.327  0.00  0.00    +0.000 NA
ATOM      7  C   UNL     1       1.431   9.332  18.688  0.00  0.00    +0.000 A 
ATOM      8  H   UNL     1      -1.602  10.392  20.831  0.00  0.00    +0.000 HD
ENDROOT
BRANCH   7   9
ATOM      9  N   UNL     1       1.737   9.794  17.404  0.00  0.00    +0.000 N 
ATOM     10  H   UNL     1       1.117  10.576  17.210  0.00  0.00    +0.000 HD
ATOM     11  H   UNL     1       2.715  10.046  17.322  0.00  0.00    +0.000 HD
ENDBRANCH   7   9
BRANCH   1  12
ATOM     12  O   UNL     1       3.056   7.596  18.543  0.00  0.00    +0.000 OA
BRANCH  12  16
ATOM     13  C   UNL     1       3.905   3.538  19.196  0.00  0.00    +0.000 A 
ATOM     14  C   UNL     1       4.650   4.308  18.293  0.00  0.00    +0.000 A 
ATOM     15  C   UNL     1       4.372   5.668  18.064  0.00  0.00    +0.000 A 
ATOM     16  C   UNL     1       3.287   6.248  18.748  0.00  0.00    +0.000 A 
ATOM     17  C   UNL     1       2.540   5.486  19.662  0.00  0.00    +0.000 A 
ATOM     18  C   UNL     1       2.828   4.131  19.857  0.00  0.00    +0.000 A 
ATOM     19  I   UNL     1       1.618   3.057  21.190  0.00  0.00    +0.000 I 
BRANCH  15  20
ATOM     20  C   UNL     1       5.293   6.494  17.172  0.00  0.00    +0.000 C 
ATOM     21  C   UNL     1       6.722   6.426  17.720  0.00  0.00    +0.000 C 
ATOM     22  C   UNL     1       5.287   6.076  15.694  0.00  0.00    +0.000 C 
ENDBRANCH  15  20
BRANCH  13  24
ATOM     23  C   UNL     1       3.758   1.314  18.426  0.00  0.00    +0.000 C 
ATOM     24  O   UNL     1       4.189   2.220  19.442  0.00  0.00    +0.000 OA
ENDBRANCH  13  24
ENDBRANCH  12  16
ENDBRANCH   1  12
BRANCH   5  25
ATOM     25  C   UNL     1      -0.729  10.299  22.716  0.00  0.00    +0.000 C 
BRANCH  25  26
ATOM     26  C   UNL     1      -1.606  11.402  23.341  0.00  0.00    +0.000 C 
BRANCH  26  27
ATOM     27  N   UNL     1      -1.033  12.743  23.172  0.00  0.00    +0.000 NA
ATOM     28  H   UNL     1      -1.255  13.287  24.006  0.00  0.00    +0.000 HD
ATOM     29  H   UNL     1      -1.519  13.208  22.405  0.00  0.00    +0.000 HD
ENDBRANCH  26  27
ENDBRANCH  25  26
ENDBRANCH   5  25
TORSDOF 8
ENDMDL
MODEL 5
REMARK VINA RESULT:      -6.1      4.582      7.112
REMARK  Name = 
REMARK  11 active torsions:
REMARK  status: ('A' for Active; 'I' for Inactive)
REMARK    1  A    between atoms: C_1  and  O_2
REMARK    2  A    between atoms: O_2  and  C_3
REMARK    3  A    between atoms: C_5  and  C_6
REMARK    4  A    between atoms: C_6  and  C_7
REMARK    5  A    between atoms: C_6  and  C_8
REMARK    6  A    between atoms: C_9  and  O_10
REMARK    7  A    between atoms: O_10  and  C_11
REMARK    8  A    between atoms: N_15  and  C_16
REMARK    9  A    between atoms: C_16  and  C_17
REMARK   10  A    between atoms: C_17  and  N_18
REMARK   11  A    between atoms: C_20  and  N_21
REMARK                            x       y       z     vdW  Elec       q    Type
REMARK                         _______ _______ _______ _____ _____    ______ ____
ROOT
ATOM      1  C   UNL     1       5.384   6.230  16.798  0.00  0.00    +0.000 A 
ATOM      2  C   UNL     1       4.960   5.706  15.598  0.00  0.00    +0.000 A 
ATOM      3  N   UNL     1       5.792   5.378  14.590  0.00  0.00    +0.000 NA
ATOM      4  C   UNL     1       7.104   5.493  14.826  0.00  0.00    +0.000 A 
ATOM      5  N   UNL     1       8.022   5.274  13.810  0.00  0.00    +0.000 N 
ATOM      6  N   UNL     1       7.616   5.851  16.010  0.00  0.00    +0.000 NA
ATOM      7  C   UNL     1       6.759   6.245  16.966  0.00  0.00    +0.000 A 
ATOM      8  H   UNL     1       8.521   4.426  14.051  0.00  0.00    +0.000 HD
ENDROOT
BRANCH   7   9
ATOM      9  N   UNL     1       7.351   6.649  18.166  0.00  0.00    +0.000 N 
ATOM     10  H   UNL     1       6.630   7.106  18.719  0.00  0.00    +0.000 HD
ATOM     11  H   UNL     1       7.775   5.867  18.654  0.00  0.00    +0.000 HD
ENDBRANCH   7   9
BRANCH   1  12
ATOM     12  O   UNL     1       4.570   6.675  17.803  0.00  0.00    +0.000 OA
BRANCH  12  16
ATOM     13  C   UNL     1       1.973   4.034  19.776  0.00  0.00    +0.000 A 
ATOM     14  C   UNL     1       1.831   5.422  19.888  0.00  0.00    +0.000 A 
ATOM     15  C   UNL     1       2.697   6.317  19.233  0.00  0.00    +0.000 A 
ATOM     16  C   UNL     1       3.755   5.781  18.474  0.00  0.00    +0.000 A 
ATOM     17  C   UNL     1       3.900   4.389  18.349  0.00  0.00    +0.000 A 
ATOM     18  C   UNL     1       3.034   3.523  19.025  0.00  0.00    +0.000 A 
ATOM     19  I   UNL     1       3.367   1.463  18.834  0.00  0.00    +0.000 I 
BRANCH  15  20
ATOM     20  C   UNL     1       2.421   7.816  19.279  0.00  0.00    +0.000 C 
ATOM     21  C   UNL     1       1.831   8.263  17.938  0.00  0.00    +0.000 C 
ATOM     22  C   UNL     1       1.495   8.257  20.423  0.00  0.00    +0.000 C 
ENDBRANCH  15  20
BRANCH  13  24
ATOM     23  C   UNL     1       1.469   2.812  21.729  0.00  0.00    +0.000 C 
ATOM     24  O   UNL     1       1.115   3.158  20.390  0.00  0.00    +0.000 OA
ENDBRANCH  13  24
ENDBRANCH  12  16
ENDBRANCH   1  12
BRANCH   5  25
ATOM     25  C   UNL     1       7.478   5.258  12.457  0.00  0.00    +0.000 C 
BRANCH  25  26
ATOM     26  C   UNL     1       7.347   3.797  11.985  0.00  0.00    +0.000 C 
BRANCH  26  27
ATOM     27  N   UNL     1       6.098   3.169  12.431  0.00  0.00    +0.000 NA
ATOM     28  H   UNL     1       6.134   2.182  12.178  0.00  0.00    +0.000 HD
ATOM     29  H   UNL     1       5.326   3.561  11.890  0.00  0.00    +0.000 HD
ENDBRANCH  26  27
ENDBRANCH  25  26
ENDBRANCH   5  25
TORSDOF 8
ENDMDL
MODEL 6
REMARK VINA RESULT:      -6.1      3.925      7.942
REMARK  Name = 
REMARK  11 active torsions:
REMARK  status: ('A' for Active; 'I' for Inactive)
REMARK    1  A    between atoms: C_1  and  O_2
REMARK    2  A    between atoms: O_2  and  C_3
REMARK    3  A    between atoms: C_5  and  C_6
REMARK    4  A    between atoms: C_6  and  C_7
REMARK    5  A    between atoms: C_6  and  C_8
REMARK    6  A    between atoms: C_9  and  O_10
REMARK    7  A    between atoms: O_10  and  C_11
REMARK    8  A    between atoms: N_15  and  C_16
REMARK    9  A    between atoms: C_16  and  C_17
REMARK   10  A    between atoms: C_17  and  N_18
REMARK   11  A    between atoms: C_20  and  N_21
REMARK                            x       y       z     vdW  Elec       q    Type
REMARK                         _______ _______ _______ _____ _____    ______ ____
ROOT
ATOM      1  C   UNL     1       1.485   8.925  19.689  0.00  0.00    +0.000 A 
ATOM      2  C   UNL     1       1.261   8.191  20.830  0.00  0.00    +0.000 A 
ATOM      3  N   UNL     1       1.498   6.868  20.926  0.00  0.00    +0.000 NA
ATOM      4  C   UNL     1       2.065   6.277  19.869  0.00  0.00    +0.000 A 
ATOM      5  N   UNL     1       2.247   4.902  19.847  0.00  0.00    +0.000 N 
ATOM      6  N   UNL     1       2.455   6.935  18.771  0.00  0.00    +0.000 NA
ATOM      7  C   UNL     1       2.134   8.236  18.678  0.00  0.00    +0.000 A 
ATOM      8  H   UNL     1       3.247   4.743  19.892  0.00  0.00    +0.000 HD
ENDROOT
BRANCH   7   9
ATOM      9  N   UNL     1       2.528   8.863  17.492  0.00  0.00    +0.000 N 
ATOM     10  H   UNL     1       3.225   9.561  17.737  0.00  0.00    +0.000 HD
ATOM     11  H   UNL     1       2.873   8.193  16.813  0.00  0.00    +0.000 HD
ENDBRANCH   7   9
BRANCH   1  12
ATOM     12  O   UNL     1       1.159  10.243  19.514  0.00  0.00    +0.000 OA
BRANCH  12  16
ATOM     13  C   UNL     1      -2.774  11.460  18.704  0.00  0.00    +0.000 A 
ATOM     14  C   UNL     1      -2.162  11.729  19.934  0.00  0.00    +0.000 A 
ATOM     15  C   UNL     1      -0.845  11.323  20.218  0.00  0.00    +0.000 A 
ATOM     16  C   UNL     1      -0.148  10.596  19.234  0.00  0.00    +0.000 A 
ATOM     17  C   UNL     1      -0.751  10.330  17.993  0.00  0.00    +0.000 A 
ATOM     18  C   UNL     1      -2.069  10.731  17.745  0.00  0.00    +0.000 A 
ATOM     19  I   UNL     1      -2.908  10.232  15.891  0.00  0.00    +0.000 I 
BRANCH  15  20
ATOM     20  C   UNL     1      -0.179  11.753  21.520  0.00  0.00    +0.000 C 
ATOM     21  C   UNL     1       0.008  13.273  21.514  0.00  0.00    +0.000 C 
ATOM     22  C   UNL     1      -0.935  11.331  22.790  0.00  0.00    +0.000 C 
ENDBRANCH  15  20
BRANCH  13  24
ATOM     23  C   UNL     1      -4.784  12.377  19.530  0.00  0.00    +0.000 C 
ATOM     24  O   UNL     1      -4.047  11.878  18.413  0.00  0.00    +0.000 OA
ENDBRANCH  13  24
ENDBRANCH  12  16
ENDBRANCH   1  12
BRANCH   5  25
ATOM     25  C   UNL     1       1.500   4.148  20.847  0.00  0.00    +0.000 C 
BRANCH  25  26
ATOM     26  C   UNL     1       1.354   2.689  20.371  0.00  0.00    +0.000 C 
BRANCH  26  27
ATOM     27  N   UNL     1       0.787   2.589  19.021  0.00  0.00    +0.000 NA
ATOM     28  H   UNL     1      -0.208   2.389  19.112  0.00  0.00    +0.000 HD
ATOM     29  H   UNL     1       1.189   1.772  18.561  0.00  0.00    +0.000 HD
ENDBRANCH  26  27
ENDBRANCH  25  26
ENDBRANCH   5  25
TORSDOF 8
ENDMDL
MODEL 7
REMARK VINA RESULT:      -6.1      2.774      3.890
REMARK  Name = 
REMARK  11 active torsions:
REMARK  status: ('A' for Active; 'I' for Inactive)
REMARK    1  A    between atoms: C_1  and  O_2
REMARK    2  A    between atoms: O_2  and  C_3
REMARK    3  A    between atoms: C_5  and  C_6
REMARK    4  A    between atoms: C_6  and  C_7
REMARK    5  A    between atoms: C_6  and  C_8
REMARK    6  A    between atoms: C_9  and  O_10
REMARK    7  A    between atoms: O_10  and  C_11
REMARK    8  A    between atoms: N_15  and  C_16
REMARK    9  A    between atoms: C_16  and  C_17
REMARK   10  A    between atoms: C_17  and  N_18
REMARK   11  A    between atoms: C_20  and  N_21
REMARK                            x       y       z     vdW  Elec       q    Type
REMARK                         _______ _______ _______ _____ _____    ______ ____
ROOT
ATOM      1  C   UNL     1       2.171   7.202  18.830  0.00  0.00    +0.000 A 
ATOM      2  C   UNL     1       2.192   8.245  17.932  0.00  0.00    +0.000 A 
ATOM      3  N   UNL     1       1.762   9.489  18.221  0.00  0.00    +0.000 NA
ATOM      4  C   UNL     1       1.382   9.719  19.483  0.00  0.00    +0.000 A 
ATOM      5  N   UNL     1       0.831  10.942  19.838  0.00  0.00    +0.000 N 
ATOM      6  N   UNL     1       1.466   8.810  20.461  0.00  0.00    +0.000 NA
ATOM      7  C   UNL     1       1.825   7.561  20.121  0.00  0.00    +0.000 A 
ATOM      8  H   UNL     1       1.504  11.396  20.444  0.00  0.00    +0.000 HD
ENDROOT
BRANCH   7   9
ATOM      9  N   UNL     1       1.854   6.643  21.176  0.00  0.00    +0.000 N 
ATOM     10  H   UNL     1       0.933   6.216  21.229  0.00  0.00    +0.000 HD
ATOM     11  H   UNL     1       2.592   5.958  21.053  0.00  0.00    +0.000 HD
ENDBRANCH   7   9
BRANCH   1  12
ATOM     12  O   UNL     1       2.496   5.903  18.547  0.00  0.00    +0.000 OA
BRANCH  12  16
ATOM     13  C   UNL     1       6.130   4.985  16.660  0.00  0.00    +0.000 A 
ATOM     14  C   UNL     1       5.053   4.090  16.652  0.00  0.00    +0.000 A 
ATOM     15  C   UNL     1       3.832   4.386  17.285  0.00  0.00    +0.000 A 
ATOM     16  C   UNL     1       3.718   5.611  17.969  0.00  0.00    +0.000 A 
ATOM     17  C   UNL     1       4.790   6.519  17.973  0.00  0.00    +0.000 A 
ATOM     18  C   UNL     1       6.000   6.191  17.351  0.00  0.00    +0.000 A 
ATOM     19  I   UNL     1       7.566   7.579  17.466  0.00  0.00    +0.000 I 
BRANCH  15  20
ATOM     20  C   UNL     1       2.648   3.437  17.137  0.00  0.00    +0.000 C 
ATOM     21  C   UNL     1       2.963   2.120  17.854  0.00  0.00    +0.000 C 
ATOM     22  C   UNL     1       1.314   3.999  17.653  0.00  0.00    +0.000 C 
ENDBRANCH  15  20
BRANCH  13  24
ATOM     23  C   UNL     1       7.248   4.760  14.596  0.00  0.00    +0.000 C 
ATOM     24  O   UNL     1       7.312   4.713  16.022  0.00  0.00    +0.000 OA
ENDBRANCH  13  24
ENDBRANCH  12  16
ENDBRANCH   1  12
BRANCH   5  25
ATOM     25  C   UNL     1       0.392  11.784  18.731  0.00  0.00    +0.000 C 
BRANCH  25  26
ATOM     26  C   UNL     1       1.407  12.928  18.536  0.00  0.00    +0.000 C 
BRANCH  26  27
ATOM     27  N   UNL     1       2.386  12.640  17.481  0.00  0.00    +0.000 NA
ATOM     28  H   UNL     1       3.244  12.317  17.927  0.00  0.00    +0.000 HD
ATOM     29  H   UNL     1       2.633  13.517  17.020  0.00  0.00    +0.000 HD
ENDBRANCH  26  27
ENDBRANCH  25  26
ENDBRANCH   5  25
TORSDOF 8
ENDMDL
MODEL 8
REMARK VINA RESULT:      -6.0      2.521      3.509
REMARK  Name = 
REMARK  11 active torsions:
REMARK  status: ('A' for Active; 'I' for Inactive)
REMARK    1  A    between atoms: C_1  and  O_2
REMARK    2  A    between atoms: O_2  and  C_3
REMARK    3  A    between atoms: C_5  and  C_6
REMARK    4  A    between atoms: C_6  and  C_7
REMARK    5  A    between atoms: C_6  and  C_8
REMARK    6  A    between atoms: C_9  and  O_10
REMARK    7  A    between atoms: O_10  and  C_11
REMARK    8  A    between atoms: N_15  and  C_16
REMARK    9  A    between atoms: C_16  and  C_17
REMARK   10  A    between atoms: C_17  and  N_18
REMARK   11  A    between atoms: C_20  and  N_21
REMARK                            x       y       z     vdW  Elec       q    Type
REMARK                         _______ _______ _______ _____ _____    ______ ____
ROOT
ATOM      1  C   UNL     1       1.804   8.014  18.569  0.00  0.00    +0.000 A 
ATOM      2  C   UNL     1       1.887   9.126  17.763  0.00  0.00    +0.000 A 
ATOM      3  N   UNL     1       1.640  10.380  18.192  0.00  0.00    +0.000 NA
ATOM      4  C   UNL     1       1.389  10.534  19.497  0.00  0.00    +0.000 A 
ATOM      5  N   UNL     1       1.025  11.775  19.999  0.00  0.00    +0.000 N 
ATOM      6  N   UNL     1       1.433   9.534  20.385  0.00  0.00    +0.000 NA
ATOM      7  C   UNL     1       1.605   8.289  19.911  0.00  0.00    +0.000 A 
ATOM      8  H   UNL     1       1.794  12.087  20.580  0.00  0.00    +0.000 HD
ENDROOT
BRANCH   7   9
ATOM      9  N   UNL     1       1.599   7.279  20.879  0.00  0.00    +0.000 N 
ATOM     10  H   UNL     1       0.636   6.969  20.985  0.00  0.00    +0.000 HD
ATOM     11  H   UNL     1       2.224   6.520  20.630  0.00  0.00    +0.000 HD
ENDBRANCH   7   9
BRANCH   1  12
ATOM     12  O   UNL     1       1.941   6.718  18.151  0.00  0.00    +0.000 OA
BRANCH  12  16
ATOM     13  C   UNL     1       5.719   4.973  17.607  0.00  0.00    +0.000 A 
ATOM     14  C   UNL     1       4.569   4.194  17.784  0.00  0.00    +0.000 A 
ATOM     15  C   UNL     1       3.298   4.768  17.970  0.00  0.00    +0.000 A 
ATOM     16  C   UNL     1       3.204   6.172  18.010  0.00  0.00    +0.000 A 
ATOM     17  C   UNL     1       4.350   6.962  17.824  0.00  0.00    +0.000 A 
ATOM     18  C   UNL     1       5.604   6.364  17.658  0.00  0.00    +0.000 A 
ATOM     19  I   UNL     1       7.268   7.622  17.455  0.00  0.00    +0.000 I 
BRANCH  15  20
ATOM     20  C   UNL     1       2.061   3.878  18.027  0.00  0.00    +0.000 C 
ATOM     21  C   UNL     1       2.420   2.479  17.517  0.00  0.00    +0.000 C 
ATOM     22  C   UNL     1       1.419   3.770  19.419  0.00  0.00    +0.000 C 
ENDBRANCH  15  20
BRANCH  13  24
ATOM     23  C   UNL     1       7.288   4.201  16.026  0.00  0.00    +0.000 C 
ATOM     24  O   UNL     1       6.954   4.418  17.398  0.00  0.00    +0.000 OA
ENDBRANCH  13  24
ENDBRANCH  12  16
ENDBRANCH   1  12
BRANCH   5  25
ATOM     25  C   UNL     1       0.612  12.763  19.009  0.00  0.00    +0.000 C 
BRANCH  25  26
ATOM     26  C   UNL     1      -0.916  12.686  18.829  0.00  0.00    +0.000 C 
BRANCH  26  27
ATOM     27  N   UNL     1      -1.310  12.497  17.427  0.00  0.00    +0.000 NA
ATOM     28  H   UNL     1      -0.559  12.857  16.838  0.00  0.00    +0.000 HD
ATOM     29  H   UNL     1      -2.116  13.093  17.234  0.00  0.00    +0.000 HD
ENDBRANCH  26  27
ENDBRANCH  25  26
ENDBRANCH   5  25
TORSDOF 8
ENDMDL
MODEL 9
REMARK VINA RESULT:      -6.0      3.688      8.079
REMARK  Name = 
REMARK  11 active torsions:
REMARK  status: ('A' for Active; 'I' for Inactive)
REMARK    1  A    between atoms: C_1  and  O_2
REMARK    2  A    between atoms: O_2  and  C_3
REMARK    3  A    between atoms: C_5  and  C_6
REMARK    4  A    between atoms: C_6  and  C_7
REMARK    5  A    between atoms: C_6  and  C_8
REMARK    6  A    between atoms: C_9  and  O_10
REMARK    7  A    between atoms: O_10  and  C_11
REMARK    8  A    between atoms: N_15  and  C_16
REMARK    9  A    between atoms: C_16  and  C_17
REMARK   10  A    between atoms: C_17  and  N_18
REMARK   11  A    between atoms: C_20  and  N_21
REMARK                            x       y       z     vdW  Elec       q    Type
REMARK                         _______ _______ _______ _____ _____    ______ ____
ROOT
ATOM      1  C   UNL     1       1.025   9.649  19.676  0.00  0.00    +0.000 A 
ATOM      2  C   UNL     1       1.604   8.998  18.611  0.00  0.00    +0.000 A 
ATOM      3  N   UNL     1       2.208   7.797  18.706  0.00  0.00    +0.000 NA
ATOM      4  C   UNL     1       2.150   7.184  19.894  0.00  0.00    +0.000 A 
ATOM      5  N   UNL     1       2.832   5.996  20.104  0.00  0.00    +0.000 N 
ATOM      6  N   UNL     1       1.483   7.669  20.948  0.00  0.00    +0.000 NA
ATOM      7  C   UNL     1       0.959   8.902  20.840  0.00  0.00    +0.000 A 
ATOM      8  H   UNL     1       2.129   5.275  20.215  0.00  0.00    +0.000 HD
ENDROOT
BRANCH   7   9
ATOM      9  N   UNL     1       0.311   9.375  21.985  0.00  0.00    +0.000 N 
ATOM     10  H   UNL     1       0.694  10.295  22.189  0.00  0.00    +0.000 HD
ATOM     11  H   UNL     1      -0.695   9.392  21.864  0.00  0.00    +0.000 HD
ENDBRANCH   7   9
BRANCH   1  12
ATOM     12  O   UNL     1       0.499  10.911  19.646  0.00  0.00    +0.000 OA
BRANCH  12  16
ATOM     13  C   UNL     1      -3.387  11.660  18.248  0.00  0.00    +0.000 A 
ATOM     14  C   UNL     1      -2.965  12.094  19.510  0.00  0.00    +0.000 A 
ATOM     15  C   UNL     1      -1.666  11.846  19.990  0.00  0.00    +0.000 A 
ATOM     16  C   UNL     1      -0.787  11.108  19.175  0.00  0.00    +0.000 A 
ATOM     17  C   UNL     1      -1.199  10.676  17.903  0.00  0.00    +0.000 A 
ATOM     18  C   UNL     1      -2.502  10.922  17.459  0.00  0.00    +0.000 A 
ATOM     19  I   UNL     1      -3.048  10.182  15.575  0.00  0.00    +0.000 I 
BRANCH  15  20
ATOM     20  C   UNL     1      -1.215  12.453  21.315  0.00  0.00    +0.000 C 
ATOM     21  C   UNL     1      -0.975  13.954  21.128  0.00  0.00    +0.000 C 
ATOM     22  C   UNL     1      -2.188  12.227  22.482  0.00  0.00    +0.000 C 
ENDBRANCH  15  20
BRANCH  13  24
ATOM     23  C   UNL     1      -5.697  11.745  18.711  0.00  0.00    +0.000 C 
ATOM     24  O   UNL     1      -4.642  11.923  17.765  0.00  0.00    +0.000 OA
ENDBRANCH  13  24
ENDBRANCH  12  16
ENDBRANCH   1  12
BRANCH   5  25
ATOM     25  C   UNL     1       3.847   5.662  19.110  0.00  0.00    +0.000 C 
BRANCH  25  26
ATOM     26  C   UNL     1       3.384   4.425  18.316  0.00  0.00    +0.000 C 
BRANCH  26  27
ATOM     27  N   UNL     1       2.020   4.568  17.792  0.00  0.00    +0.000 NA
ATOM     28  H   UNL     1       1.889   3.869  17.061  0.00  0.00    +0.000 HD
ATOM     29  H   UNL     1       1.946   5.470  17.322  0.00  0.00    +0.000 HD
ENDBRANCH  26  27
ENDBRANCH  25  26
ENDBRANCH   5  25
TORSDOF 8
ENDMDL
