MODEL 1
REMARK VINA RESULT:      -7.6      0.000      0.000
REMARK  Name = 
REMARK  11 active torsions:
REMARK  status: ('A' for Active; 'I' for Inactive)
REMARK    1  A    between atoms: C_1  and  C_2
REMARK    2  A    between atoms: C_2  and  O_3
REMARK    3  A    between atoms: O_3  and  C_4
REMARK    4  A    between atoms: C_4  and  C_6
REMARK    5  A    between atoms: C_6  and  C_7
REMARK    6  A    between atoms: C_7  and  C_8
REMARK    7  A    between atoms: C_8  and  N_9
REMARK    8  A    between atoms: C_10  and  C_12
REMARK    9  A    between atoms: C_18  and  C_19
REMARK   10  A    between atoms: C_23  and  C_24
REMARK   11  A    between atoms: C_31  and  C_32
REMARK                            x       y       z     vdW  Elec       q    Type
REMARK                         _______ _______ _______ _____ _____    ______ ____
ROOT
ATOM      1  C   UNL     1       5.595   4.381  16.668  0.00  0.00    +0.000 A 
ATOM      2  C   UNL     1       4.956   3.190  17.063  0.00  0.00    +0.000 A 
ATOM      3  N   UNL     1       3.986   3.388  17.953  0.00  0.00    +0.000 NA
ATOM      4  N   UNL     1       3.957   4.736  18.149  0.00  0.00    +0.000 N 
ATOM      5  C   UNL     1       3.025   5.272  19.056  0.00  0.00    +0.000 A 
ATOM      6  N   UNL     1       2.843   6.562  19.247  0.00  0.00    +0.000 NA
ATOM      7  C   UNL     1       1.875   6.766  20.215  0.00  0.00    +0.000 A 
ATOM      8  C   UNL     1       1.377   5.608  20.783  0.00  0.00    +0.000 A 
ATOM      9  S   UNL     1       2.068   4.234  20.018  0.00  0.00    +0.000 S 
ATOM     10  C   UNL     1       4.921   5.372  17.374  0.00  0.00    +0.000 A 
ATOM     11  C   UNL     1       5.184   6.841  17.369  0.00  0.00    +0.000 C 
ENDROOT
BRANCH   7  12
ATOM     12  C   UNL     1       1.456   8.115  20.578  0.00  0.00    +0.000 A 
ATOM     13  C   UNL     1       1.373   8.523  21.915  0.00  0.00    +0.000 A 
ATOM     14  C   UNL     1       0.933   9.807  22.240  0.00  0.00    +0.000 A 
ATOM     15  C   UNL     1       0.566  10.699  21.233  0.00  0.00    +0.000 A 
ATOM     16  C   UNL     1       0.632  10.317  19.887  0.00  0.00    +0.000 A 
ATOM     17  C   UNL     1       1.081   9.021  19.570  0.00  0.00    +0.000 A 
BRANCH  16  18
ATOM     18  C   UNL     1       0.225  11.263  18.786  0.00  0.00    +0.000 C 
ATOM     19  F   UNL     1      -0.493  12.335  19.230  0.00  0.00    +0.000 F 
ATOM     20  F   UNL     1       1.292  11.784  18.121  0.00  0.00    +0.000 F 
ATOM     21  F   UNL     1      -0.552  10.664  17.841  0.00  0.00    +0.000 F 
ENDBRANCH  16  18
ENDBRANCH   7  12
BRANCH   1  23
ATOM     22  N   UNL     1       6.381   4.865  14.449  0.00  0.00    +0.000 N 
ATOM     23  C   UNL     1       6.716   4.593  15.759  0.00  0.00    +0.000 C 
ATOM     24  O   UNL     1       7.883   4.521  16.129  0.00  0.00    +0.000 OA
ATOM     25  H   UNL     1       5.415   4.916  14.167  0.00  0.00    +0.000 HD
BRANCH  22  26
ATOM     26  C   UNL     1       7.401   5.022  13.435  0.00  0.00    +0.000 C 
BRANCH  26  27
ATOM     27  C   UNL     1       6.965   4.490  12.073  0.00  0.00    +0.000 C 
BRANCH  27  28
ATOM     28  C   UNL     1       7.039   2.968  11.983  0.00  0.00    +0.000 C 
BRANCH  28  29
ATOM     29  C   UNL     1       5.706   2.385  11.580  0.00  0.00    +0.000 C 
ATOM     30  O   UNL     1       5.505   1.218  11.283  0.00  0.00    +0.000 OA
BRANCH  29  31
ATOM     31  O   UNL     1       4.786   3.390  11.501  0.00  0.00    +0.000 OA
BRANCH  31  33
ATOM     32  C   UNL     1       3.190   4.089   9.872  0.00  0.00    +0.000 C 
ATOM     33  C   UNL     1       3.544   3.019  10.891  0.00  0.00    +0.000 C 
ENDBRANCH  31  33
ENDBRANCH  29  31
ENDBRANCH  28  29
ENDBRANCH  27  28
ENDBRANCH  26  27
ENDBRANCH  22  26
ENDBRANCH   1  23
TORSDOF 9
ENDMDL
MODEL 2
REMARK VINA RESULT:      -7.5      5.432      9.564
REMARK  Name = 
REMARK  11 active torsions:
REMARK  status: ('A' for Active; 'I' for Inactive)
REMARK    1  A    between atoms: C_1  and  C_2
REMARK    2  A    between atoms: C_2  and  O_3
REMARK    3  A    between atoms: O_3  and  C_4
REMARK    4  A    between atoms: C_4  and  C_6
REMARK    5  A    between atoms: C_6  and  C_7
REMARK    6  A    between atoms: C_7  and  C_8
REMARK    7  A    between atoms: C_8  and  N_9
REMARK    8  A    between atoms: C_10  and  C_12
REMARK    9  A    between atoms: C_18  and  C_19
REMARK   10  A    between atoms: C_23  and  C_24
REMARK   11  A    between atoms: C_31  and  C_32
REMARK                            x       y       z     vdW  Elec       q    Type
REMARK                         _______ _______ _______ _____ _____    ______ ____
ROOT
ATOM      1  C   UNL     1       1.341   8.369  20.094  0.00  0.00    +0.000 A 
ATOM      2  C   UNL     1       1.127   7.284  20.966  0.00  0.00    +0.000 A 
ATOM      3  N   UNL     1       1.761   6.177  20.586  0.00  0.00    +0.000 NA
ATOM      4  N   UNL     1       2.427   6.524  19.449  0.00  0.00    +0.000 N 
ATOM      5  C   UNL     1       3.201   5.551  18.790  0.00  0.00    +0.000 A 
ATOM      6  N   UNL     1       3.962   5.803  17.746  0.00  0.00    +0.000 NA
ATOM      7  C   UNL     1       4.574   4.639  17.315  0.00  0.00    +0.000 A 
ATOM      8  C   UNL     1       4.216   3.505  18.021  0.00  0.00    +0.000 A 
ATOM      9  S   UNL     1       3.163   3.925  19.311  0.00  0.00    +0.000 S 
ATOM     10  C   UNL     1       2.199   7.857  19.127  0.00  0.00    +0.000 A 
ATOM     11  C   UNL     1       2.748   8.555  17.928  0.00  0.00    +0.000 C 
ENDROOT
BRANCH   7  12
ATOM     12  C   UNL     1       5.509   4.658  16.196  0.00  0.00    +0.000 A 
ATOM     13  C   UNL     1       6.763   5.274  16.296  0.00  0.00    +0.000 A 
ATOM     14  C   UNL     1       7.626   5.313  15.199  0.00  0.00    +0.000 A 
ATOM     15  C   UNL     1       7.244   4.741  13.986  0.00  0.00    +0.000 A 
ATOM     16  C   UNL     1       5.994   4.125  13.853  0.00  0.00    +0.000 A 
ATOM     17  C   UNL     1       5.133   4.087  14.967  0.00  0.00    +0.000 A 
BRANCH  16  18
ATOM     18  C   UNL     1       5.559   3.514  12.544  0.00  0.00    +0.000 C 
ATOM     19  F   UNL     1       6.230   4.011  11.466  0.00  0.00    +0.000 F 
ATOM     20  F   UNL     1       5.745   2.166  12.507  0.00  0.00    +0.000 F 
ATOM     21  F   UNL     1       4.238   3.719  12.284  0.00  0.00    +0.000 F 
ENDBRANCH  16  18
ENDBRANCH   7  12
BRANCH   1  23
ATOM     22  N   UNL     1       0.014  10.083  19.054  0.00  0.00    +0.000 N 
ATOM     23  C   UNL     1       0.803   9.725  20.128  0.00  0.00    +0.000 C 
ATOM     24  O   UNL     1       1.045  10.505  21.042  0.00  0.00    +0.000 OA
ATOM     25  H   UNL     1      -0.169   9.426  18.311  0.00  0.00    +0.000 HD
BRANCH  22  26
ATOM     26  C   UNL     1      -0.519  11.422  18.933  0.00  0.00    +0.000 C 
BRANCH  26  27
ATOM     27  C   UNL     1      -1.510  11.560  17.780  0.00  0.00    +0.000 C 
BRANCH  27  28
ATOM     28  C   UNL     1      -1.952  10.211  17.219  0.00  0.00    +0.000 C 
BRANCH  28  29
ATOM     29  C   UNL     1      -3.380  10.268  16.736  0.00  0.00    +0.000 C 
ATOM     30  O   UNL     1      -3.742  10.137  15.577  0.00  0.00    +0.000 OA
BRANCH  29  31
ATOM     31  O   UNL     1      -4.192  10.593  17.784  0.00  0.00    +0.000 OA
BRANCH  31  33
ATOM     32  C   UNL     1      -6.498  11.044  18.193  0.00  0.00    +0.000 C 
ATOM     33  C   UNL     1      -5.248  11.507  17.465  0.00  0.00    +0.000 C 
ENDBRANCH  31  33
ENDBRANCH  29  31
ENDBRANCH  28  29
ENDBRANCH  27  28
ENDBRANCH  26  27
ENDBRANCH  22  26
ENDBRANCH   1  23
TORSDOF 9
ENDMDL
MODEL 3
REMARK VINA RESULT:      -7.4      5.473      9.464
REMARK  Name = 
REMARK  11 active torsions:
REMARK  status: ('A' for Active; 'I' for Inactive)
REMARK    1  A    between atoms: C_1  and  C_2
REMARK    2  A    between atoms: C_2  and  O_3
REMARK    3  A    between atoms: O_3  and  C_4
REMARK    4  A    between atoms: C_4  and  C_6
REMARK    5  A    between atoms: C_6  and  C_7
REMARK    6  A    between atoms: C_7  and  C_8
REMARK    7  A    between atoms: C_8  and  N_9
REMARK    8  A    between atoms: C_10  and  C_12
REMARK    9  A    between atoms: C_18  and  C_19
REMARK   10  A    between atoms: C_23  and  C_24
REMARK   11  A    between atoms: C_31  and  C_32
REMARK                            x       y       z     vdW  Elec       q    Type
REMARK                         _______ _______ _______ _____ _____    ______ ____
ROOT
ATOM      1  C   UNL     1       1.564   7.415  20.420  0.00  0.00    +0.000 A 
ATOM      2  C   UNL     1       1.334   6.213  21.116  0.00  0.00    +0.000 A 
ATOM      3  N   UNL     1       1.912   5.159  20.544  0.00  0.00    +0.000 NA
ATOM      4  N   UNL     1       2.557   5.660  19.454  0.00  0.00    +0.000 N 
ATOM      5  C   UNL     1       3.272   4.778  18.622  0.00  0.00    +0.000 A 
ATOM      6  N   UNL     1       4.011   5.166  17.604  0.00  0.00    +0.000 NA
ATOM      7  C   UNL     1       4.564   4.065  16.974  0.00  0.00    +0.000 A 
ATOM      8  C   UNL     1       4.182   2.847  17.504  0.00  0.00    +0.000 A 
ATOM      9  S   UNL     1       3.185   3.092  18.881  0.00  0.00    +0.000 S 
ATOM     10  C   UNL     1       2.372   7.035  19.354  0.00  0.00    +0.000 A 
ATOM     11  C   UNL     1       2.914   7.895  18.262  0.00  0.00    +0.000 C 
ENDROOT
BRANCH   7  12
ATOM     12  C   UNL     1       5.465   4.230  15.840  0.00  0.00    +0.000 A 
ATOM     13  C   UNL     1       6.675   4.926  15.957  0.00  0.00    +0.000 A 
ATOM     14  C   UNL     1       7.504   5.104  14.848  0.00  0.00    +0.000 A 
ATOM     15  C   UNL     1       7.132   4.592  13.606  0.00  0.00    +0.000 A 
ATOM     16  C   UNL     1       5.926   3.898  13.455  0.00  0.00    +0.000 A 
ATOM     17  C   UNL     1       5.100   3.720  14.581  0.00  0.00    +0.000 A 
BRANCH  16  18
ATOM     18  C   UNL     1       5.501   3.350  12.116  0.00  0.00    +0.000 C 
ATOM     19  F   UNL     1       4.183   3.563  11.837  0.00  0.00    +0.000 F 
ATOM     20  F   UNL     1       6.192   3.901  11.081  0.00  0.00    +0.000 F 
ATOM     21  F   UNL     1       5.687   2.004  12.018  0.00  0.00    +0.000 F 
ENDBRANCH  16  18
ENDBRANCH   7  12
BRANCH   1  23
ATOM     22  N   UNL     1       0.650   9.476  19.584  0.00  0.00    +0.000 N 
ATOM     23  C   UNL     1       1.082   8.766  20.686  0.00  0.00    +0.000 C 
ATOM     24  O   UNL     1       1.072   9.250  21.813  0.00  0.00    +0.000 OA
ATOM     25  H   UNL     1       0.671   9.059  18.666  0.00  0.00    +0.000 HD
BRANCH  22  26
ATOM     26  C   UNL     1       0.218  10.851  19.705  0.00  0.00    +0.000 C 
BRANCH  26  27
ATOM     27  C   UNL     1      -1.292  11.009  19.545  0.00  0.00    +0.000 C 
BRANCH  27  28
ATOM     28  C   UNL     1      -1.737  10.976  18.085  0.00  0.00    +0.000 C 
BRANCH  28  29
ATOM     29  C   UNL     1      -3.227  11.188  17.970  0.00  0.00    +0.000 C 
ATOM     30  O   UNL     1      -3.886  11.964  18.645  0.00  0.00    +0.000 OA
BRANCH  29  31
ATOM     31  O   UNL     1      -3.734  10.302  17.065  0.00  0.00    +0.000 OA
BRANCH  31  33
ATOM     32  C   UNL     1      -3.139  10.249  14.756  0.00  0.00    +0.000 C 
ATOM     33  C   UNL     1      -2.773   9.763  16.149  0.00  0.00    +0.000 C 
ENDBRANCH  31  33
ENDBRANCH  29  31
ENDBRANCH  28  29
ENDBRANCH  27  28
ENDBRANCH  26  27
ENDBRANCH  22  26
ENDBRANCH   1  23
TORSDOF 9
ENDMDL
MODEL 4
REMARK VINA RESULT:      -7.4      3.341      5.057
REMARK  Name = 
REMARK  11 active torsions:
REMARK  status: ('A' for Active; 'I' for Inactive)
REMARK    1  A    between atoms: C_1  and  C_2
REMARK    2  A    between atoms: C_2  and  O_3
REMARK    3  A    between atoms: O_3  and  C_4
REMARK    4  A    between atoms: C_4  and  C_6
REMARK    5  A    between atoms: C_6  and  C_7
REMARK    6  A    between atoms: C_7  and  C_8
REMARK    7  A    between atoms: C_8  and  N_9
REMARK    8  A    between atoms: C_10  and  C_12
REMARK    9  A    between atoms: C_18  and  C_19
REMARK   10  A    between atoms: C_23  and  C_24
REMARK   11  A    between atoms: C_31  and  C_32
REMARK                            x       y       z     vdW  Elec       q    Type
REMARK                         _______ _______ _______ _____ _____    ______ ____
ROOT
ATOM      1  C   UNL     1       2.997   5.406  19.390  0.00  0.00    +0.000 A 
ATOM      2  C   UNL     1       2.249   5.041  20.526  0.00  0.00    +0.000 A 
ATOM      3  N   UNL     1       1.557   6.054  21.044  0.00  0.00    +0.000 NA
ATOM      4  N   UNL     1       1.829   7.116  20.235  0.00  0.00    +0.000 N 
ATOM      5  C   UNL     1       1.241   8.361  20.526  0.00  0.00    +0.000 A 
ATOM      6  N   UNL     1       1.354   9.424  19.758  0.00  0.00    +0.000 NA
ATOM      7  C   UNL     1       0.683  10.492  20.327  0.00  0.00    +0.000 A 
ATOM      8  C   UNL     1       0.115  10.224  21.559  0.00  0.00    +0.000 A 
ATOM      9  S   UNL     1       0.344   8.571  21.965  0.00  0.00    +0.000 S 
ATOM     10  C   UNL     1       2.698   6.752  19.211  0.00  0.00    +0.000 A 
ATOM     11  C   UNL     1       3.226   7.678  18.167  0.00  0.00    +0.000 C 
ENDROOT
BRANCH   7  12
ATOM     12  C   UNL     1       0.619  11.780  19.646  0.00  0.00    +0.000 A 
ATOM     13  C   UNL     1      -0.584  12.279  19.130  0.00  0.00    +0.000 A 
ATOM     14  C   UNL     1      -0.615  13.497  18.448  0.00  0.00    +0.000 A 
ATOM     15  C   UNL     1       0.558  14.230  18.270  0.00  0.00    +0.000 A 
ATOM     16  C   UNL     1       1.777  13.753  18.768  0.00  0.00    +0.000 A 
ATOM     17  C   UNL     1       1.795  12.527  19.458  0.00  0.00    +0.000 A 
BRANCH  16  18
ATOM     18  C   UNL     1       3.057  14.527  18.571  0.00  0.00    +0.000 C 
ATOM     19  F   UNL     1       4.026  13.813  17.929  0.00  0.00    +0.000 F 
ATOM     20  F   UNL     1       2.879  15.656  17.833  0.00  0.00    +0.000 F 
ATOM     21  F   UNL     1       3.612  14.928  19.748  0.00  0.00    +0.000 F 
ENDBRANCH  16  18
ENDBRANCH   7  12
BRANCH   1  23
ATOM     22  N   UNL     1       3.778   4.786  17.203  0.00  0.00    +0.000 N 
ATOM     23  C   UNL     1       3.907   4.617  18.566  0.00  0.00    +0.000 C 
ATOM     24  O   UNL     1       4.724   3.842  19.050  0.00  0.00    +0.000 OA
ATOM     25  H   UNL     1       3.097   5.427  16.828  0.00  0.00    +0.000 HD
BRANCH  22  26
ATOM     26  C   UNL     1       4.571   4.007  16.277  0.00  0.00    +0.000 C 
BRANCH  26  27
ATOM     27  C   UNL     1       5.513   4.868  15.439  0.00  0.00    +0.000 C 
BRANCH  27  28
ATOM     28  C   UNL     1       6.979   4.476  15.612  0.00  0.00    +0.000 C 
BRANCH  28  29
ATOM     29  C   UNL     1       7.463   4.797  17.004  0.00  0.00    +0.000 C 
ATOM     30  O   UNL     1       8.221   4.105  17.667  0.00  0.00    +0.000 OA
BRANCH  29  31
ATOM     31  O   UNL     1       6.838   5.927  17.444  0.00  0.00    +0.000 OA
BRANCH  31  33
ATOM     32  C   UNL     1       7.808   8.101  17.592  0.00  0.00    +0.000 C 
ATOM     33  C   UNL     1       7.637   6.763  18.291  0.00  0.00    +0.000 C 
ENDBRANCH  31  33
ENDBRANCH  29  31
ENDBRANCH  28  29
ENDBRANCH  27  28
ENDBRANCH  26  27
ENDBRANCH  22  26
ENDBRANCH   1  23
TORSDOF 9
ENDMDL
MODEL 5
REMARK VINA RESULT:      -7.3      5.542      9.437
REMARK  Name = 
REMARK  11 active torsions:
REMARK  status: ('A' for Active; 'I' for Inactive)
REMARK    1  A    between atoms: C_1  and  C_2
REMARK    2  A    between atoms: C_2  and  O_3
REMARK    3  A    between atoms: O_3  and  C_4
REMARK    4  A    between atoms: C_4  and  C_6
REMARK    5  A    between atoms: C_6  and  C_7
REMARK    6  A    between atoms: C_7  and  C_8
REMARK    7  A    between atoms: C_8  and  N_9
REMARK    8  A    between atoms: C_10  and  C_12
REMARK    9  A    between atoms: C_18  and  C_19
REMARK   10  A    between atoms: C_23  and  C_24
REMARK   11  A    between atoms: C_31  and  C_32
REMARK                            x       y       z     vdW  Elec       q    Type
REMARK                         _______ _______ _______ _____ _____    ______ ____
ROOT
ATOM      1  C   UNL     1       1.370   8.297  19.985  0.00  0.00    +0.000 A 
ATOM      2  C   UNL     1       1.235   7.219  20.881  0.00  0.00    +0.000 A 
ATOM      3  N   UNL     1       1.909   6.136  20.501  0.00  0.00    +0.000 NA
ATOM      4  N   UNL     1       2.524   6.493  19.339  0.00  0.00    +0.000 N 
ATOM      5  C   UNL     1       3.323   5.546  18.672  0.00  0.00    +0.000 A 
ATOM      6  N   UNL     1       4.039   5.813  17.601  0.00  0.00    +0.000 NA
ATOM      7  C   UNL     1       4.694   4.672  17.173  0.00  0.00    +0.000 A 
ATOM      8  C   UNL     1       4.411   3.536  17.908  0.00  0.00    +0.000 A 
ATOM      9  S   UNL     1       3.378   3.930  19.223  0.00  0.00    +0.000 S 
ATOM     10  C   UNL     1       2.222   7.808  19.001  0.00  0.00    +0.000 A 
ATOM     11  C   UNL     1       2.702   8.509  17.774  0.00  0.00    +0.000 C 
ENDROOT
BRANCH   7  12
ATOM     12  C   UNL     1       5.592   4.714  16.025  0.00  0.00    +0.000 A 
ATOM     13  C   UNL     1       6.781   5.454  16.050  0.00  0.00    +0.000 A 
ATOM     14  C   UNL     1       7.608   5.511  14.926  0.00  0.00    +0.000 A 
ATOM     15  C   UNL     1       7.253   4.832  13.760  0.00  0.00    +0.000 A 
ATOM     16  C   UNL     1       6.067   4.091  13.703  0.00  0.00    +0.000 A 
ATOM     17  C   UNL     1       5.244   4.036  14.843  0.00  0.00    +0.000 A 
BRANCH  16  18
ATOM     18  C   UNL     1       5.661   3.363  12.445  0.00  0.00    +0.000 C 
ATOM     19  F   UNL     1       6.521   3.558  11.405  0.00  0.00    +0.000 F 
ATOM     20  F   UNL     1       5.591   2.014  12.619  0.00  0.00    +0.000 F 
ATOM     21  F   UNL     1       4.437   3.748  11.990  0.00  0.00    +0.000 F 
ENDBRANCH  16  18
ENDBRANCH   7  12
BRANCH   1  23
ATOM     22  N   UNL     1      -0.533   9.704  19.562  0.00  0.00    +0.000 N 
ATOM     23  C   UNL     1       0.769   9.626  20.011  0.00  0.00    +0.000 C 
ATOM     24  O   UNL     1       1.384  10.616  20.394  0.00  0.00    +0.000 OA
ATOM     25  H   UNL     1      -1.017   8.877  19.249  0.00  0.00    +0.000 HD
BRANCH  22  26
ATOM     26  C   UNL     1      -1.215  10.976  19.470  0.00  0.00    +0.000 C 
BRANCH  26  27
ATOM     27  C   UNL     1      -1.655  11.306  18.045  0.00  0.00    +0.000 C 
BRANCH  27  28
ATOM     28  C   UNL     1      -2.803  10.424  17.563  0.00  0.00    +0.000 C 
BRANCH  28  29
ATOM     29  C   UNL     1      -3.748  11.203  16.682  0.00  0.00    +0.000 C 
ATOM     30  O   UNL     1      -4.804  11.701  17.042  0.00  0.00    +0.000 OA
BRANCH  29  31
ATOM     31  O   UNL     1      -3.288  11.173  15.398  0.00  0.00    +0.000 OA
BRANCH  31  33
ATOM     32  C   UNL     1      -2.836   9.782  13.514  0.00  0.00    +0.000 C 
ATOM     33  C   UNL     1      -3.856  10.143  14.580  0.00  0.00    +0.000 C 
ENDBRANCH  31  33
ENDBRANCH  29  31
ENDBRANCH  28  29
ENDBRANCH  27  28
ENDBRANCH  26  27
ENDBRANCH  22  26
ENDBRANCH   1  23
TORSDOF 9
ENDMDL
MODEL 6
REMARK VINA RESULT:      -7.3      4.834      7.081
REMARK  Name = 
REMARK  11 active torsions:
REMARK  status: ('A' for Active; 'I' for Inactive)
REMARK    1  A    between atoms: C_1  and  C_2
REMARK    2  A    between atoms: C_2  and  O_3
REMARK    3  A    between atoms: O_3  and  C_4
REMARK    4  A    between atoms: C_4  and  C_6
REMARK    5  A    between atoms: C_6  and  C_7
REMARK    6  A    between atoms: C_7  and  C_8
REMARK    7  A    between atoms: C_8  and  N_9
REMARK    8  A    between atoms: C_10  and  C_12
REMARK    9  A    between atoms: C_18  and  C_19
REMARK   10  A    between atoms: C_23  and  C_24
REMARK   11  A    between atoms: C_31  and  C_32
REMARK                            x       y       z     vdW  Elec       q    Type
REMARK                         _______ _______ _______ _____ _____    ______ ____
ROOT
ATOM      1  C   UNL     1       1.972   7.962  19.171  0.00  0.00    +0.000 A 
ATOM      2  C   UNL     1       1.979   8.602  17.918  0.00  0.00    +0.000 A 
ATOM      3  N   UNL     1       1.289   9.741  17.909  0.00  0.00    +0.000 NA
ATOM      4  N   UNL     1       0.823   9.880  19.182  0.00  0.00    +0.000 N 
ATOM      5  C   UNL     1       0.036  11.003  19.500  0.00  0.00    +0.000 A 
ATOM      6  N   UNL     1      -0.380  11.287  20.716  0.00  0.00    +0.000 NA
ATOM      7  C   UNL     1      -1.146  12.439  20.697  0.00  0.00    +0.000 A 
ATOM      8  C   UNL     1      -1.342  12.979  19.439  0.00  0.00    +0.000 A 
ATOM      9  S   UNL     1      -0.465  12.077  18.270  0.00  0.00    +0.000 S 
ATOM     10  C   UNL     1       1.229   8.816  19.979  0.00  0.00    +0.000 A 
ATOM     11  C   UNL     1       0.869   8.635  21.416  0.00  0.00    +0.000 C 
ENDROOT
BRANCH   7  12
ATOM     12  C   UNL     1      -1.691  12.993  21.931  0.00  0.00    +0.000 A 
ATOM     13  C   UNL     1      -0.891  13.712  22.829  0.00  0.00    +0.000 A 
ATOM     14  C   UNL     1      -1.424  14.200  24.023  0.00  0.00    +0.000 A 
ATOM     15  C   UNL     1      -2.764  13.973  24.337  0.00  0.00    +0.000 A 
ATOM     16  C   UNL     1      -3.586  13.252  23.463  0.00  0.00    +0.000 A 
ATOM     17  C   UNL     1      -3.039  12.768  22.259  0.00  0.00    +0.000 A 
BRANCH  16  18
ATOM     18  C   UNL     1      -5.034  12.984  23.793  0.00  0.00    +0.000 C 
ATOM     19  F   UNL     1      -5.721  14.105  24.158  0.00  0.00    +0.000 F 
ATOM     20  F   UNL     1      -5.721  12.454  22.746  0.00  0.00    +0.000 F 
ATOM     21  F   UNL     1      -5.181  12.108  24.824  0.00  0.00    +0.000 F 
ENDBRANCH  16  18
ENDBRANCH   7  12
BRANCH   1  23
ATOM     22  N   UNL     1       3.673   6.290  18.872  0.00  0.00    +0.000 N 
ATOM     23  C   UNL     1       2.563   6.693  19.585  0.00  0.00    +0.000 C 
ATOM     24  O   UNL     1       2.098   6.020  20.498  0.00  0.00    +0.000 OA
ATOM     25  H   UNL     1       4.036   6.858  18.124  0.00  0.00    +0.000 HD
BRANCH  22  26
ATOM     26  C   UNL     1       4.307   5.016  19.137  0.00  0.00    +0.000 C 
BRANCH  26  27
ATOM     27  C   UNL     1       4.301   4.092  17.921  0.00  0.00    +0.000 C 
BRANCH  27  28
ATOM     28  C   UNL     1       3.465   2.835  18.141  0.00  0.00    +0.000 C 
BRANCH  28  29
ATOM     29  C   UNL     1       1.991   3.144  18.054  0.00  0.00    +0.000 C 
ATOM     30  O   UNL     1       1.496   4.056  17.409  0.00  0.00    +0.000 OA
BRANCH  29  31
ATOM     31  O   UNL     1       1.310   2.310  18.891  0.00  0.00    +0.000 OA
BRANCH  31  33
ATOM     32  C   UNL     1       1.487   2.591  21.253  0.00  0.00    +0.000 C 
ATOM     33  C   UNL     1       0.692   2.956  20.011  0.00  0.00    +0.000 C 
ENDBRANCH  31  33
ENDBRANCH  29  31
ENDBRANCH  28  29
ENDBRANCH  27  28
ENDBRANCH  26  27
ENDBRANCH  22  26
ENDBRANCH   1  23
TORSDOF 9
ENDMDL
MODEL 7
REMARK VINA RESULT:      -7.3      7.166     11.775
REMARK  Name = 
REMARK  11 active torsions:
REMARK  status: ('A' for Active; 'I' for Inactive)
REMARK    1  A    between atoms: C_1  and  C_2
REMARK    2  A    between atoms: C_2  and  O_3
REMARK    3  A    between atoms: O_3  and  C_4
REMARK    4  A    between atoms: C_4  and  C_6
REMARK    5  A    between atoms: C_6  and  C_7
REMARK    6  A    between atoms: C_7  and  C_8
REMARK    7  A    between atoms: C_8  and  N_9
REMARK    8  A    between atoms: C_10  and  C_12
REMARK    9  A    between atoms: C_18  and  C_19
REMARK   10  A    between atoms: C_23  and  C_24
REMARK   11  A    between atoms: C_31  and  C_32
REMARK                            x       y       z     vdW  Elec       q    Type
REMARK                         _______ _______ _______ _____ _____    ______ ____
ROOT
ATOM      1  C   UNL     1      -1.119  11.997  21.633  0.00  0.00    +0.000 A 
ATOM      2  C   UNL     1      -0.845  12.695  20.441  0.00  0.00    +0.000 A 
ATOM      3  N   UNL     1      -0.081  12.006  19.596  0.00  0.00    +0.000 NA
ATOM      4  N   UNL     1       0.150  10.816  20.219  0.00  0.00    +0.000 N 
ATOM      5  C   UNL     1       0.946   9.852  19.573  0.00  0.00    +0.000 A 
ATOM      6  N   UNL     1       1.150   8.638  20.037  0.00  0.00    +0.000 NA
ATOM      7  C   UNL     1       1.991   7.942  19.187  0.00  0.00    +0.000 A 
ATOM      8  C   UNL     1       2.456   8.674  18.111  0.00  0.00    +0.000 A 
ATOM      9  S   UNL     1       1.746  10.238  18.113  0.00  0.00    +0.000 S 
ATOM     10  C   UNL     1      -0.476  10.776  21.460  0.00  0.00    +0.000 A 
ATOM     11  C   UNL     1      -0.403   9.635  22.419  0.00  0.00    +0.000 C 
ENDROOT
BRANCH   7  12
ATOM     12  C   UNL     1       2.338   6.551  19.455  0.00  0.00    +0.000 A 
ATOM     13  C   UNL     1       2.014   5.934  20.671  0.00  0.00    +0.000 A 
ATOM     14  C   UNL     1       2.389   4.613  20.921  0.00  0.00    +0.000 A 
ATOM     15  C   UNL     1       3.097   3.892  19.960  0.00  0.00    +0.000 A 
ATOM     16  C   UNL     1       3.442   4.483  18.739  0.00  0.00    +0.000 A 
ATOM     17  C   UNL     1       3.054   5.815  18.495  0.00  0.00    +0.000 A 
BRANCH  16  18
ATOM     18  C   UNL     1       4.220   3.723  17.694  0.00  0.00    +0.000 C 
ATOM     19  F   UNL     1       3.863   2.409  17.603  0.00  0.00    +0.000 F 
ATOM     20  F   UNL     1       4.061   4.236  16.444  0.00  0.00    +0.000 F 
ATOM     21  F   UNL     1       5.560   3.725  17.935  0.00  0.00    +0.000 F 
ENDBRANCH  16  18
ENDBRANCH   7  12
BRANCH   1  23
ATOM     22  N   UNL     1      -3.236  12.223  22.749  0.00  0.00    +0.000 N 
ATOM     23  C   UNL     1      -1.870  12.407  22.814  0.00  0.00    +0.000 C 
ATOM     24  O   UNL     1      -1.328  12.898  23.799  0.00  0.00    +0.000 OA
ATOM     25  H   UNL     1      -3.660  11.821  21.928  0.00  0.00    +0.000 HD
BRANCH  22  26
ATOM     26  C   UNL     1      -4.099  12.657  23.825  0.00  0.00    +0.000 C 
BRANCH  26  27
ATOM     27  C   UNL     1      -5.257  13.525  23.338  0.00  0.00    +0.000 C 
BRANCH  27  28
ATOM     28  C   UNL     1      -6.589  12.780  23.330  0.00  0.00    +0.000 C 
BRANCH  28  29
ATOM     29  C   UNL     1      -7.114  12.629  21.923  0.00  0.00    +0.000 C 
ATOM     30  O   UNL     1      -7.915  13.377  21.383  0.00  0.00    +0.000 OA
BRANCH  29  31
ATOM     31  O   UNL     1      -6.632  11.470  21.389  0.00  0.00    +0.000 OA
BRANCH  31  33
ATOM     32  C   UNL     1      -6.882  10.352  19.298  0.00  0.00    +0.000 C 
ATOM     33  C   UNL     1      -7.573  10.738  20.594  0.00  0.00    +0.000 C 
ENDBRANCH  31  33
ENDBRANCH  29  31
ENDBRANCH  28  29
ENDBRANCH  27  28
ENDBRANCH  26  27
ENDBRANCH  22  26
ENDBRANCH   1  23
TORSDOF 9
ENDMDL
MODEL 8
REMARK VINA RESULT:      -7.1      7.057     12.204
REMARK  Name = 
REMARK  11 active torsions:
REMARK  status: ('A' for Active; 'I' for Inactive)
REMARK    1  A    between atoms: C_1  and  C_2
REMARK    2  A    between atoms: C_2  and  O_3
REMARK    3  A    between atoms: O_3  and  C_4
REMARK    4  A    between atoms: C_4  and  C_6
REMARK    5  A    between atoms: C_6  and  C_7
REMARK    6  A    between atoms: C_7  and  C_8
REMARK    7  A    between atoms: C_8  and  N_9
REMARK    8  A    between atoms: C_10  and  C_12
REMARK    9  A    between atoms: C_18  and  C_19
REMARK   10  A    between atoms: C_23  and  C_24
REMARK   11  A    between atoms: C_31  and  C_32
REMARK                            x       y       z     vdW  Elec       q    Type
REMARK                         _______ _______ _______ _____ _____    ______ ____
ROOT
ATOM      1  C   UNL     1      -0.346  11.540  21.344  0.00  0.00    +0.000 A 
ATOM      2  C   UNL     1       0.016  12.083  20.096  0.00  0.00    +0.000 A 
ATOM      3  N   UNL     1       0.665  11.218  19.319  0.00  0.00    +0.000 NA
ATOM      4  N   UNL     1       0.727  10.068  20.047  0.00  0.00    +0.000 N 
ATOM      5  C   UNL     1       1.370   8.946  19.492  0.00  0.00    +0.000 A 
ATOM      6  N   UNL     1       1.400   7.761  20.063  0.00  0.00    +0.000 NA
ATOM      7  C   UNL     1       2.125   6.878  19.283  0.00  0.00    +0.000 A 
ATOM      8  C   UNL     1       2.682   7.437  18.147  0.00  0.00    +0.000 A 
ATOM      9  S   UNL     1       2.204   9.081  18.008  0.00  0.00    +0.000 S 
ATOM     10  C   UNL     1       0.113  10.229  21.284  0.00  0.00    +0.000 A 
ATOM     11  C   UNL     1       0.028   9.179  22.341  0.00  0.00    +0.000 C 
ENDROOT
BRANCH   7  12
ATOM     12  C   UNL     1       2.270   5.480  19.675  0.00  0.00    +0.000 A 
ATOM     13  C   UNL     1       2.061   5.063  20.996  0.00  0.00    +0.000 A 
ATOM     14  C   UNL     1       2.242   3.727  21.357  0.00  0.00    +0.000 A 
ATOM     15  C   UNL     1       2.639   2.791  20.403  0.00  0.00    +0.000 A 
ATOM     16  C   UNL     1       2.863   3.179  19.077  0.00  0.00    +0.000 A 
ATOM     17  C   UNL     1       2.672   4.528  18.722  0.00  0.00    +0.000 A 
BRANCH  16  18
ATOM     18  C   UNL     1       3.307   2.182  18.035  0.00  0.00    +0.000 C 
ATOM     19  F   UNL     1       3.788   1.022  18.567  0.00  0.00    +0.000 F 
ATOM     20  F   UNL     1       2.298   1.815  17.198  0.00  0.00    +0.000 F 
ATOM     21  F   UNL     1       4.300   2.665  17.239  0.00  0.00    +0.000 F 
ENDBRANCH  16  18
ENDBRANCH   7  12
BRANCH   1  23
ATOM     22  N   UNL     1      -2.389  11.998  22.525  0.00  0.00    +0.000 N 
ATOM     23  C   UNL     1      -1.019  12.158  22.481  0.00  0.00    +0.000 C 
ATOM     24  O   UNL     1      -0.413  12.792  23.338  0.00  0.00    +0.000 OA
ATOM     25  H   UNL     1      -2.867  11.476  21.808  0.00  0.00    +0.000 HD
BRANCH  22  26
ATOM     26  C   UNL     1      -3.181  12.624  23.561  0.00  0.00    +0.000 C 
BRANCH  26  27
ATOM     27  C   UNL     1      -3.453  14.100  23.283  0.00  0.00    +0.000 C 
BRANCH  27  28
ATOM     28  C   UNL     1      -3.029  15.005  24.437  0.00  0.00    +0.000 C 
BRANCH  28  29
ATOM     29  C   UNL     1      -1.753  15.739  24.107  0.00  0.00    +0.000 C 
ATOM     30  O   UNL     1      -1.564  16.417  23.109  0.00  0.00    +0.000 OA
BRANCH  29  31
ATOM     31  O   UNL     1      -0.811  15.441  25.049  0.00  0.00    +0.000 OA
BRANCH  31  33
ATOM     32  C   UNL     1      -0.730  17.274  26.572  0.00  0.00    +0.000 C 
ATOM     33  C   UNL     1      -1.155  15.828  26.385  0.00  0.00    +0.000 C 
ENDBRANCH  31  33
ENDBRANCH  29  31
ENDBRANCH  28  29
ENDBRANCH  27  28
ENDBRANCH  26  27
ENDBRANCH  22  26
ENDBRANCH   1  23
TORSDOF 9
ENDMDL
MODEL 9
REMARK VINA RESULT:      -7.1      5.202      9.601
REMARK  Name = 
REMARK  11 active torsions:
REMARK  status: ('A' for Active; 'I' for Inactive)
REMARK    1  A    between atoms: C_1  and  C_2
REMARK    2  A    between atoms: C_2  and  O_3
REMARK    3  A    between atoms: O_3  and  C_4
REMARK    4  A    between atoms: C_4  and  C_6
REMARK    5  A    between atoms: C_6  and  C_7
REMARK    6  A    between atoms: C_7  and  C_8
REMARK    7  A    between atoms: C_8  and  N_9
REMARK    8  A    between atoms: C_10  and  C_12
REMARK    9  A    between atoms: C_18  and  C_19
REMARK   10  A    between atoms: C_23  and  C_24
REMARK   11  A    between atoms: C_31  and  C_32
REMARK                            x       y       z     vdW  Elec       q    Type
REMARK                         _______ _______ _______ _____ _____    ______ ____
ROOT
ATOM      1  C   UNL     1       1.464   8.529  19.800  0.00  0.00    +0.000 A 
ATOM      2  C   UNL     1       1.243   7.482  20.715  0.00  0.00    +0.000 A 
ATOM      3  N   UNL     1       1.844   6.346  20.364  0.00  0.00    +0.000 NA
ATOM      4  N   UNL     1       2.494   6.637  19.202  0.00  0.00    +0.000 N 
ATOM      5  C   UNL     1       3.232   5.623  18.563  0.00  0.00    +0.000 A 
ATOM      6  N   UNL     1       3.977   5.818  17.496  0.00  0.00    +0.000 NA
ATOM      7  C   UNL     1       4.554   4.625  17.097  0.00  0.00    +0.000 A 
ATOM      8  C   UNL     1       4.184   3.526  17.851  0.00  0.00    +0.000 A 
ATOM      9  S   UNL     1       3.167   4.018  19.145  0.00  0.00    +0.000 S 
ATOM     10  C   UNL     1       2.290   7.962  18.835  0.00  0.00    +0.000 A 
ATOM     11  C   UNL     1       2.831   8.603  17.602  0.00  0.00    +0.000 C 
ENDROOT
BRANCH   7  12
ATOM     12  C   UNL     1       5.466   4.581  15.960  0.00  0.00    +0.000 A 
ATOM     13  C   UNL     1       6.752   5.132  16.028  0.00  0.00    +0.000 A 
ATOM     14  C   UNL     1       7.594   5.113  14.914  0.00  0.00    +0.000 A 
ATOM     15  C   UNL     1       7.159   4.547  13.716  0.00  0.00    +0.000 A 
ATOM     16  C   UNL     1       5.875   3.996  13.615  0.00  0.00    +0.000 A 
ATOM     17  C   UNL     1       5.037   4.016  14.746  0.00  0.00    +0.000 A 
BRANCH  16  18
ATOM     18  C   UNL     1       5.383   3.393  12.323  0.00  0.00    +0.000 C 
ATOM     19  F   UNL     1       5.697   2.073  12.188  0.00  0.00    +0.000 F 
ATOM     20  F   UNL     1       4.030   3.467  12.192  0.00  0.00    +0.000 F 
ATOM     21  F   UNL     1       5.903   4.010  11.227  0.00  0.00    +0.000 F 
ENDBRANCH  16  18
ENDBRANCH   7  12
BRANCH   1  23
ATOM     22  N   UNL     1      -0.120  10.141  20.620  0.00  0.00    +0.000 N 
ATOM     23  C   UNL     1       0.958   9.898  19.794  0.00  0.00    +0.000 C 
ATOM     24  O   UNL     1       1.447  10.775  19.091  0.00  0.00    +0.000 OA
ATOM     25  H   UNL     1      -0.509   9.403  21.186  0.00  0.00    +0.000 HD
BRANCH  22  26
ATOM     26  C   UNL     1      -0.760  11.438  20.649  0.00  0.00    +0.000 C 
BRANCH  26  27
ATOM     27  C   UNL     1      -2.081  11.461  19.884  0.00  0.00    +0.000 C 
BRANCH  27  28
ATOM     28  C   UNL     1      -1.892  11.690  18.387  0.00  0.00    +0.000 C 
BRANCH  28  29
ATOM     29  C   UNL     1      -2.206  10.439  17.605  0.00  0.00    +0.000 C 
ATOM     30  O   UNL     1      -1.379   9.684  17.115  0.00  0.00    +0.000 OA
BRANCH  29  31
ATOM     31  O   UNL     1      -3.557  10.341  17.444  0.00  0.00    +0.000 OA
BRANCH  31  33
ATOM     32  C   UNL     1      -5.342  11.910  17.242  0.00  0.00    +0.000 C 
ATOM     33  C   UNL     1      -4.127  11.310  16.555  0.00  0.00    +0.000 C 
ENDBRANCH  31  33
ENDBRANCH  29  31
ENDBRANCH  28  29
ENDBRANCH  27  28
ENDBRANCH  26  27
ENDBRANCH  22  26
ENDBRANCH   1  23
TORSDOF 9
ENDMDL
