MODEL 1
REMARK VINA RESULT:      -6.6      0.000      0.000
REMARK  Name = 
REMARK  5 active torsions:
REMARK  status: ('A' for Active; 'I' for Inactive)
REMARK    1  A    between atoms: C_1  and  C_2
REMARK    2  A    between atoms: C_2  and  C_3
REMARK    3  A    between atoms: C_2  and  C_4
REMARK    4  A    between atoms: C_2  and  N_5
REMARK    5  A    between atoms: C_16  and  C_17
REMARK                            x       y       z     vdW  Elec       q    Type
REMARK                         _______ _______ _______ _____ _____    ______ ____
ROOT
ATOM      1  N   UNL     1      -3.370  13.488  21.696  0.00  0.00    +0.000 N 
ATOM      2  C   UNL     1      -4.468  14.409  22.066  0.00  0.00    +0.000 C 
ATOM      3  C   UNL     1      -5.835  13.803  21.775  0.00  0.00    +0.000 C 
ATOM      4  O   UNL     1      -6.008  13.543  20.383  0.00  0.00    +0.000 OA
ATOM      5  C   UNL     1      -4.912  12.911  19.840  0.00  0.00    +0.000 A 
ATOM      6  C   UNL     1      -5.150  12.322  18.591  0.00  0.00    +0.000 A 
ATOM      7  C   UNL     1      -4.131  11.619  17.953  0.00  0.00    +0.000 A 
ATOM      8  N   UNL     1      -4.378  11.025  16.710  0.00  0.00    +0.000 N 
ATOM      9  C   UNL     1      -3.435  10.335  16.007  0.00  0.00    +0.000 A 
ATOM     10  O   UNL     1      -3.658   9.848  14.905  0.00  0.00    +0.000 OA
ATOM     11  C   UNL     1      -2.123  10.163  16.658  0.00  0.00    +0.000 A 
ATOM     12  C   UNL     1      -1.818  10.707  17.851  0.00  0.00    +0.000 A 
ATOM     13  C   UNL     1      -2.858  11.524  18.525  0.00  0.00    +0.000 A 
ATOM     14  C   UNL     1      -2.639  12.219  19.722  0.00  0.00    +0.000 A 
ATOM     15  C   UNL     1      -3.642  12.864  20.457  0.00  0.00    +0.000 A 
ATOM     16  H   UNL     1      -5.279  11.125  16.263  0.00  0.00    +0.000 HD
ENDROOT
BRANCH   1  18
ATOM     17  C   UNL     1      -3.412  12.199  23.846  0.00  0.00    +0.000 C 
ATOM     18  C   UNL     1      -2.520  12.857  22.778  0.00  0.00    +0.000 C 
ATOM     19  C   UNL     1      -1.618  13.911  23.465  0.00  0.00    +0.000 C 
ATOM     20  C   UNL     1      -1.523  11.806  22.245  0.00  0.00    +0.000 C 
ENDBRANCH   1  18
BRANCH  12  21
ATOM     21  C   UNL     1      -0.484  10.387  18.458  0.00  0.00    +0.000 C 
ATOM     22  F   UNL     1       0.318  11.441  18.736  0.00  0.00    +0.000 F 
ATOM     23  F   UNL     1      -0.634   9.725  19.638  0.00  0.00    +0.000 F 
ATOM     24  F   UNL     1       0.236   9.565  17.649  0.00  0.00    +0.000 F 
ENDBRANCH  12  21
TORSDOF 2
ENDMDL
MODEL 2
REMARK VINA RESULT:      -6.5      2.948      3.935
REMARK  Name = 
REMARK  5 active torsions:
REMARK  status: ('A' for Active; 'I' for Inactive)
REMARK    1  A    between atoms: C_1  and  C_2
REMARK    2  A    between atoms: C_2  and  C_3
REMARK    3  A    between atoms: C_2  and  C_4
REMARK    4  A    between atoms: C_2  and  N_5
REMARK    5  A    between atoms: C_16  and  C_17
REMARK                            x       y       z     vdW  Elec       q    Type
REMARK                         _______ _______ _______ _____ _____    ______ ____
ROOT
ATOM      1  N   UNL     1      -2.159  13.036  22.009  0.00  0.00    +0.000 N 
ATOM      2  C   UNL     1      -0.792  13.098  22.573  0.00  0.00    +0.000 C 
ATOM      3  C   UNL     1       0.190  13.743  21.603  0.00  0.00    +0.000 C 
ATOM      4  O   UNL     1       0.308  12.990  20.397  0.00  0.00    +0.000 OA
ATOM      5  C   UNL     1      -0.922  12.628  19.898  0.00  0.00    +0.000 A 
ATOM      6  C   UNL     1      -0.897  12.203  18.563  0.00  0.00    +0.000 A 
ATOM      7  C   UNL     1      -2.084  11.845  17.928  0.00  0.00    +0.000 A 
ATOM      8  N   UNL     1      -2.052  11.430  16.591  0.00  0.00    +0.000 N 
ATOM      9  C   UNL     1      -3.161  11.044  15.898  0.00  0.00    +0.000 A 
ATOM     10  O   UNL     1      -3.113  10.654  14.738  0.00  0.00    +0.000 OA
ATOM     11  C   UNL     1      -4.452  11.156  16.605  0.00  0.00    +0.000 A 
ATOM     12  C   UNL     1      -4.554  11.547  17.889  0.00  0.00    +0.000 A 
ATOM     13  C   UNL     1      -3.301  11.867  18.618  0.00  0.00    +0.000 A 
ATOM     14  C   UNL     1      -3.261  12.195  19.980  0.00  0.00    +0.000 A 
ATOM     15  C   UNL     1      -2.119  12.652  20.650  0.00  0.00    +0.000 A 
ATOM     16  H   UNL     1      -1.174  11.364  16.095  0.00  0.00    +0.000 HD
ENDROOT
BRANCH   1  18
ATOM     17  C   UNL     1      -3.519  15.121  21.705  0.00  0.00    +0.000 C 
ATOM     18  C   UNL     1      -3.256  13.897  22.600  0.00  0.00    +0.000 C 
ATOM     19  C   UNL     1      -2.877  14.389  24.017  0.00  0.00    +0.000 C 
ATOM     20  C   UNL     1      -4.585  13.141  22.812  0.00  0.00    +0.000 C 
ENDBRANCH   1  18
BRANCH  12  21
ATOM     21  C   UNL     1      -5.926  11.713  18.474  0.00  0.00    +0.000 C 
ATOM     22  F   UNL     1      -6.213  10.954  19.557  0.00  0.00    +0.000 F 
ATOM     23  F   UNL     1      -6.132  12.999  18.869  0.00  0.00    +0.000 F 
ATOM     24  F   UNL     1      -6.886  11.439  17.552  0.00  0.00    +0.000 F 
ENDBRANCH  12  21
TORSDOF 2
ENDMDL
MODEL 3
REMARK VINA RESULT:      -6.5      3.671      4.476
REMARK  Name = 
REMARK  5 active torsions:
REMARK  status: ('A' for Active; 'I' for Inactive)
REMARK    1  A    between atoms: C_1  and  C_2
REMARK    2  A    between atoms: C_2  and  C_3
REMARK    3  A    between atoms: C_2  and  C_4
REMARK    4  A    between atoms: C_2  and  N_5
REMARK    5  A    between atoms: C_16  and  C_17
REMARK                            x       y       z     vdW  Elec       q    Type
REMARK                         _______ _______ _______ _____ _____    ______ ____
ROOT
ATOM      1  N   UNL     1      -0.795  13.463  21.761  0.00  0.00    +0.000 N 
ATOM      2  C   UNL     1      -0.748  14.908  21.450  0.00  0.00    +0.000 C 
ATOM      3  C   UNL     1      -1.023  15.178  19.976  0.00  0.00    +0.000 C 
ATOM      4  O   UNL     1      -0.036  14.575  19.140  0.00  0.00    +0.000 OA
ATOM      5  C   UNL     1       0.217  13.272  19.504  0.00  0.00    +0.000 A 
ATOM      6  C   UNL     1       0.897  12.527  18.532  0.00  0.00    +0.000 A 
ATOM      7  C   UNL     1       1.180  11.183  18.764  0.00  0.00    +0.000 A 
ATOM      8  N   UNL     1       1.851  10.442  17.785  0.00  0.00    +0.000 N 
ATOM      9  C   UNL     1       2.185   9.128  17.934  0.00  0.00    +0.000 A 
ATOM     10  O   UNL     1       2.801   8.502  17.080  0.00  0.00    +0.000 OA
ATOM     11  C   UNL     1       1.731   8.470  19.174  0.00  0.00    +0.000 A 
ATOM     12  C   UNL     1       1.082   9.123  20.156  0.00  0.00    +0.000 A 
ATOM     13  C   UNL     1       0.828  10.574  19.973  0.00  0.00    +0.000 A 
ATOM     14  C   UNL     1       0.246  11.387  20.955  0.00  0.00    +0.000 A 
ATOM     15  C   UNL     1      -0.147  12.716  20.751  0.00  0.00    +0.000 A 
ATOM     16  H   UNL     1       2.154  10.881  16.925  0.00  0.00    +0.000 HD
ENDROOT
BRANCH   1  18
ATOM     17  C   UNL     1      -3.204  12.765  21.778  0.00  0.00    +0.000 C 
ATOM     18  C   UNL     1      -1.919  12.912  22.613  0.00  0.00    +0.000 C 
ATOM     19  C   UNL     1      -2.213  13.839  23.817  0.00  0.00    +0.000 C 
ATOM     20  C   UNL     1      -1.591  11.551  23.263  0.00  0.00    +0.000 C 
ENDBRANCH   1  18
BRANCH  12  21
ATOM     21  C   UNL     1       0.586   8.330  21.329  0.00  0.00    +0.000 C 
ATOM     22  F   UNL     1      -0.751   8.336  21.536  0.00  0.00    +0.000 F 
ATOM     23  F   UNL     1       0.928   7.018  21.208  0.00  0.00    +0.000 F 
ATOM     24  F   UNL     1       1.151   8.764  22.487  0.00  0.00    +0.000 F 
ENDBRANCH  12  21
TORSDOF 2
ENDMDL
MODEL 4
REMARK VINA RESULT:      -6.5      3.876      5.277
REMARK  Name = 
REMARK  5 active torsions:
REMARK  status: ('A' for Active; 'I' for Inactive)
REMARK    1  A    between atoms: C_1  and  C_2
REMARK    2  A    between atoms: C_2  and  C_3
REMARK    3  A    between atoms: C_2  and  C_4
REMARK    4  A    between atoms: C_2  and  N_5
REMARK    5  A    between atoms: C_16  and  C_17
REMARK                            x       y       z     vdW  Elec       q    Type
REMARK                         _______ _______ _______ _____ _____    ______ ____
ROOT
ATOM      1  N   UNL     1      -1.001  12.532  20.710  0.00  0.00    +0.000 N 
ATOM      2  C   UNL     1      -1.908  12.931  21.809  0.00  0.00    +0.000 C 
ATOM      3  C   UNL     1      -1.319  12.601  23.174  0.00  0.00    +0.000 C 
ATOM      4  O   UNL     1      -1.121  11.197  23.334  0.00  0.00    +0.000 OA
ATOM      5  C   UNL     1      -0.510  10.638  22.235  0.00  0.00    +0.000 A 
ATOM      6  C   UNL     1       0.022   9.362  22.461  0.00  0.00    +0.000 A 
ATOM      7  C   UNL     1       0.700   8.704  21.438  0.00  0.00    +0.000 A 
ATOM      8  N   UNL     1       1.238   7.433  21.674  0.00  0.00    +0.000 N 
ATOM      9  C   UNL     1       1.900   6.710  20.726  0.00  0.00    +0.000 A 
ATOM     10  O   UNL     1       2.337   5.585  20.939  0.00  0.00    +0.000 OA
ATOM     11  C   UNL     1       2.104   7.365  19.421  0.00  0.00    +0.000 A 
ATOM     12  C   UNL     1       1.613   8.584  19.126  0.00  0.00    +0.000 A 
ATOM     13  C   UNL     1       0.824   9.284  20.171  0.00  0.00    +0.000 A 
ATOM     14  C   UNL     1       0.182  10.512  19.962  0.00  0.00    +0.000 A 
ATOM     15  C   UNL     1      -0.433  11.265  20.971  0.00  0.00    +0.000 A 
ATOM     16  H   UNL     1       1.115   6.982  22.571  0.00  0.00    +0.000 HD
ENDROOT
BRANCH   1  18
ATOM     17  C   UNL     1       1.171  13.694  20.240  0.00  0.00    +0.000 C 
ATOM     18  C   UNL     1      -0.320  13.594  19.872  0.00  0.00    +0.000 C 
ATOM     19  C   UNL     1      -0.978  14.979  20.085  0.00  0.00    +0.000 C 
ATOM     20  C   UNL     1      -0.443  13.354  18.353  0.00  0.00    +0.000 C 
ENDBRANCH   1  18
BRANCH  12  21
ATOM     21  C   UNL     1       1.964   9.190  17.799  0.00  0.00    +0.000 C 
ATOM     22  F   UNL     1       2.597  10.385  17.833  0.00  0.00    +0.000 F 
ATOM     23  F   UNL     1       2.784   8.365  17.091  0.00  0.00    +0.000 F 
ATOM     24  F   UNL     1       0.854   9.369  17.035  0.00  0.00    +0.000 F 
ENDBRANCH  12  21
TORSDOF 2
ENDMDL
MODEL 5
REMARK VINA RESULT:      -6.5      2.928      3.951
REMARK  Name = 
REMARK  5 active torsions:
REMARK  status: ('A' for Active; 'I' for Inactive)
REMARK    1  A    between atoms: C_1  and  C_2
REMARK    2  A    between atoms: C_2  and  C_3
REMARK    3  A    between atoms: C_2  and  C_4
REMARK    4  A    between atoms: C_2  and  N_5
REMARK    5  A    between atoms: C_16  and  C_17
REMARK                            x       y       z     vdW  Elec       q    Type
REMARK                         _______ _______ _______ _____ _____    ______ ____
ROOT
ATOM      1  N   UNL     1      -1.960  12.907  21.944  0.00  0.00    +0.000 N 
ATOM      2  C   UNL     1      -0.577  12.951  22.468  0.00  0.00    +0.000 C 
ATOM      3  C   UNL     1       0.376  13.629  21.491  0.00  0.00    +0.000 C 
ATOM      4  O   UNL     1       0.457  12.916  20.258  0.00  0.00    +0.000 OA
ATOM      5  C   UNL     1      -0.788  12.570  19.784  0.00  0.00    +0.000 A 
ATOM      6  C   UNL     1      -0.803  12.189  18.436  0.00  0.00    +0.000 A 
ATOM      7  C   UNL     1      -2.008  11.851  17.826  0.00  0.00    +0.000 A 
ATOM      8  N   UNL     1      -2.017  11.481  16.476  0.00  0.00    +0.000 N 
ATOM      9  C   UNL     1      -3.147  11.117  15.804  0.00  0.00    +0.000 A 
ATOM     10  O   UNL     1      -3.133  10.765  14.631  0.00  0.00    +0.000 OA
ATOM     11  C   UNL     1      -4.415  11.205  16.553  0.00  0.00    +0.000 A 
ATOM     12  C   UNL     1      -4.478  11.552  17.852  0.00  0.00    +0.000 A 
ATOM     13  C   UNL     1      -3.204  11.849  18.552  0.00  0.00    +0.000 A 
ATOM     14  C   UNL     1      -3.122  12.132  19.922  0.00  0.00    +0.000 A 
ATOM     15  C   UNL     1      -1.961  12.568  20.572  0.00  0.00    +0.000 A 
ATOM     16  H   UNL     1      -1.154  11.432  15.951  0.00  0.00    +0.000 HD
ENDROOT
BRANCH   1  18
ATOM     17  C   UNL     1      -2.530  14.340  23.922  0.00  0.00    +0.000 C 
ATOM     18  C   UNL     1      -3.038  13.746  22.596  0.00  0.00    +0.000 C 
ATOM     19  C   UNL     1      -4.305  12.904  22.882  0.00  0.00    +0.000 C 
ATOM     20  C   UNL     1      -3.551  14.895  21.701  0.00  0.00    +0.000 C 
ENDBRANCH   1  18
BRANCH  12  21
ATOM     21  C   UNL     1      -5.832  11.698  18.483  0.00  0.00    +0.000 C 
ATOM     22  F   UNL     1      -6.070  12.862  19.130  0.00  0.00    +0.000 F 
ATOM     23  F   UNL     1      -6.816  11.595  17.549  0.00  0.00    +0.000 F 
ATOM     24  F   UNL     1      -6.059  10.708  19.386  0.00  0.00    +0.000 F 
ENDBRANCH  12  21
TORSDOF 2
ENDMDL
MODEL 6
REMARK VINA RESULT:      -6.5      0.673      1.176
REMARK  Name = 
REMARK  5 active torsions:
REMARK  status: ('A' for Active; 'I' for Inactive)
REMARK    1  A    between atoms: C_1  and  C_2
REMARK    2  A    between atoms: C_2  and  C_3
REMARK    3  A    between atoms: C_2  and  C_4
REMARK    4  A    between atoms: C_2  and  N_5
REMARK    5  A    between atoms: C_16  and  C_17
REMARK                            x       y       z     vdW  Elec       q    Type
REMARK                         _______ _______ _______ _____ _____    ______ ____
ROOT
ATOM      1  N   UNL     1      -3.407  13.907  21.841  0.00  0.00    +0.000 N 
ATOM      2  C   UNL     1      -4.574  14.784  22.086  0.00  0.00    +0.000 C 
ATOM      3  C   UNL     1      -5.889  14.054  21.840  0.00  0.00    +0.000 C 
ATOM      4  O   UNL     1      -6.008  13.630  20.483  0.00  0.00    +0.000 OA
ATOM      5  C   UNL     1      -4.858  13.021  20.035  0.00  0.00    +0.000 A 
ATOM      6  C   UNL     1      -5.023  12.282  18.855  0.00  0.00    +0.000 A 
ATOM      7  C   UNL     1      -3.943  11.587  18.318  0.00  0.00    +0.000 A 
ATOM      8  N   UNL     1      -4.116  10.843  17.145  0.00  0.00    +0.000 N 
ATOM      9  C   UNL     1      -3.111  10.147  16.541  0.00  0.00    +0.000 A 
ATOM     10  O   UNL     1      -3.272   9.527  15.497  0.00  0.00    +0.000 OA
ATOM     11  C   UNL     1      -1.807  10.141  17.231  0.00  0.00    +0.000 A 
ATOM     12  C   UNL     1      -1.571  10.835  18.361  0.00  0.00    +0.000 A 
ATOM     13  C   UNL     1      -2.681  11.646  18.920  0.00  0.00    +0.000 A 
ATOM     14  C   UNL     1      -2.541  12.483  20.035  0.00  0.00    +0.000 A 
ATOM     15  C   UNL     1      -3.604  13.132  20.676  0.00  0.00    +0.000 A 
ATOM     16  H   UNL     1      -5.011  10.830  16.673  0.00  0.00    +0.000 HD
ENDROOT
BRANCH   1  18
ATOM     17  C   UNL     1      -1.080  13.874  22.774  0.00  0.00    +0.000 C 
ATOM     18  C   UNL     1      -2.545  13.461  23.002  0.00  0.00    +0.000 C 
ATOM     19  C   UNL     1      -2.605  11.925  23.185  0.00  0.00    +0.000 C 
ATOM     20  C   UNL     1      -3.011  14.015  24.366  0.00  0.00    +0.000 C 
ENDBRANCH   1  18
BRANCH  12  21
ATOM     21  C   UNL     1      -0.234  10.678  19.023  0.00  0.00    +0.000 C 
ATOM     22  F   UNL     1       0.468  11.816  19.236  0.00  0.00    +0.000 F 
ATOM     23  F   UNL     1      -0.365  10.099  20.249  0.00  0.00    +0.000 F 
ATOM     24  F   UNL     1       0.577   9.861  18.301  0.00  0.00    +0.000 F 
ENDBRANCH  12  21
TORSDOF 2
ENDMDL
MODEL 7
REMARK VINA RESULT:      -6.4     12.378     14.389
REMARK  Name = 
REMARK  5 active torsions:
REMARK  status: ('A' for Active; 'I' for Inactive)
REMARK    1  A    between atoms: C_1  and  C_2
REMARK    2  A    between atoms: C_2  and  C_3
REMARK    3  A    between atoms: C_2  and  C_4
REMARK    4  A    between atoms: C_2  and  N_5
REMARK    5  A    between atoms: C_16  and  C_17
REMARK                            x       y       z     vdW  Elec       q    Type
REMARK                         _______ _______ _______ _____ _____    ______ ____
ROOT
ATOM      1  N   UNL     1      11.682  14.348  18.861  0.00  0.00    +0.000 N 
ATOM      2  C   UNL     1      12.333  13.468  17.865  0.00  0.00    +0.000 C 
ATOM      3  C   UNL     1      11.379  12.399  17.348  0.00  0.00    +0.000 C 
ATOM      4  O   UNL     1      10.945  11.533  18.396  0.00  0.00    +0.000 OA
ATOM      5  C   UNL     1      10.554  12.237  19.512  0.00  0.00    +0.000 A 
ATOM      6  C   UNL     1       9.801  11.489  20.427  0.00  0.00    +0.000 A 
ATOM      7  C   UNL     1       9.313  12.097  21.581  0.00  0.00    +0.000 A 
ATOM      8  N   UNL     1       8.553  11.347  22.486  0.00  0.00    +0.000 N 
ATOM      9  C   UNL     1       8.052  11.855  23.648  0.00  0.00    +0.000 A 
ATOM     10  O   UNL     1       7.415  11.176  24.445  0.00  0.00    +0.000 OA
ATOM     11  C   UNL     1       8.279  13.292  23.891  0.00  0.00    +0.000 A 
ATOM     12  C   UNL     1       9.001  14.071  23.063  0.00  0.00    +0.000 A 
ATOM     13  C   UNL     1       9.597  13.438  21.860  0.00  0.00    +0.000 A 
ATOM     14  C   UNL     1      10.443  14.114  20.970  0.00  0.00    +0.000 A 
ATOM     15  C   UNL     1      10.888  13.589  19.750  0.00  0.00    +0.000 A 
ATOM     16  H   UNL     1       8.379  10.364  22.321  0.00  0.00    +0.000 HD
ENDROOT
BRANCH   1  18
ATOM     17  C   UNL     1       9.901  15.987  18.206  0.00  0.00    +0.000 C 
ATOM     18  C   UNL     1      11.396  15.794  18.515  0.00  0.00    +0.000 C 
ATOM     19  C   UNL     1      12.220  16.247  17.285  0.00  0.00    +0.000 C 
ATOM     20  C   UNL     1      11.807  16.787  19.623  0.00  0.00    +0.000 C 
ENDBRANCH   1  18
BRANCH  12  21
ATOM     21  C   UNL     1       9.086  15.539  23.364  0.00  0.00    +0.000 C 
ATOM     22  F   UNL     1       8.672  16.377  22.386  0.00  0.00    +0.000 F 
ATOM     23  F   UNL     1       8.336  15.855  24.455  0.00  0.00    +0.000 F 
ATOM     24  F   UNL     1      10.362  15.903  23.661  0.00  0.00    +0.000 F 
ENDBRANCH  12  21
TORSDOF 2
ENDMDL
MODEL 8
REMARK VINA RESULT:      -6.4      3.570      4.313
REMARK  Name = 
REMARK  5 active torsions:
REMARK  status: ('A' for Active; 'I' for Inactive)
REMARK    1  A    between atoms: C_1  and  C_2
REMARK    2  A    between atoms: C_2  and  C_3
REMARK    3  A    between atoms: C_2  and  C_4
REMARK    4  A    between atoms: C_2  and  N_5
REMARK    5  A    between atoms: C_16  and  C_17
REMARK                            x       y       z     vdW  Elec       q    Type
REMARK                         _______ _______ _______ _____ _____    ______ ____
ROOT
ATOM      1  N   UNL     1      -1.096  13.511  21.877  0.00  0.00    +0.000 N 
ATOM      2  C   UNL     1      -1.122  14.959  21.572  0.00  0.00    +0.000 C 
ATOM      3  C   UNL     1      -1.433  15.221  20.104  0.00  0.00    +0.000 C 
ATOM      4  O   UNL     1      -0.433  14.669  19.250  0.00  0.00    +0.000 OA
ATOM      5  C   UNL     1      -0.113  13.378  19.603  0.00  0.00    +0.000 A 
ATOM      6  C   UNL     1       0.586  12.669  18.617  0.00  0.00    +0.000 A 
ATOM      7  C   UNL     1       0.935  11.339  18.838  0.00  0.00    +0.000 A 
ATOM      8  N   UNL     1       1.624  10.634  17.845  0.00  0.00    +0.000 N 
ATOM      9  C   UNL     1       2.021   9.336  17.982  0.00  0.00    +0.000 A 
ATOM     10  O   UNL     1       2.652   8.743  17.116  0.00  0.00    +0.000 OA
ATOM     11  C   UNL     1       1.618   8.653  19.226  0.00  0.00    +0.000 A 
ATOM     12  C   UNL     1       0.955   9.271  20.222  0.00  0.00    +0.000 A 
ATOM     13  C   UNL     1       0.631  10.709  20.050  0.00  0.00    +0.000 A 
ATOM     14  C   UNL     1       0.027  11.490  21.045  0.00  0.00    +0.000 A 
ATOM     15  C   UNL     1      -0.430  12.800  20.853  0.00  0.00    +0.000 A 
ATOM     16  H   UNL     1       1.892  11.090  16.983  0.00  0.00    +0.000 HD
ENDROOT
BRANCH   1  18
ATOM     17  C   UNL     1      -1.731  11.537  23.287  0.00  0.00    +0.000 C 
ATOM     18  C   UNL     1      -2.180  12.905  22.744  0.00  0.00    +0.000 C 
ATOM     19  C   UNL     1      -3.492  12.716  21.945  0.00  0.00    +0.000 C 
ATOM     20  C   UNL     1      -2.593  13.801  23.931  0.00  0.00    +0.000 C 
ENDBRANCH   1  18
BRANCH  12  21
ATOM     21  C   UNL     1       0.516   8.451  21.399  0.00  0.00    +0.000 C 
ATOM     22  F   UNL     1       0.933   8.874  22.615  0.00  0.00    +0.000 F 
ATOM     23  F   UNL     1      -0.842   8.404  21.478  0.00  0.00    +0.000 F 
ATOM     24  F   UNL     1       0.934   7.163  21.281  0.00  0.00    +0.000 F 
ENDBRANCH  12  21
TORSDOF 2
ENDMDL
MODEL 9
REMARK VINA RESULT:      -6.4      1.435      1.832
REMARK  Name = 
REMARK  5 active torsions:
REMARK  status: ('A' for Active; 'I' for Inactive)
REMARK    1  A    between atoms: C_1  and  C_2
REMARK    2  A    between atoms: C_2  and  C_3
REMARK    3  A    between atoms: C_2  and  C_4
REMARK    4  A    between atoms: C_2  and  N_5
REMARK    5  A    between atoms: C_16  and  C_17
REMARK                            x       y       z     vdW  Elec       q    Type
REMARK                         _______ _______ _______ _____ _____    ______ ____
ROOT
ATOM      1  N   UNL     1      -5.080  13.285  22.421  0.00  0.00    +0.000 N 
ATOM      2  C   UNL     1      -6.458  13.580  22.875  0.00  0.00    +0.000 C 
ATOM      3  C   UNL     1      -7.419  12.449  22.531  0.00  0.00    +0.000 C 
ATOM      4  O   UNL     1      -7.516  12.253  21.121  0.00  0.00    +0.000 OA
ATOM      5  C   UNL     1      -6.277  12.228  20.522  0.00  0.00    +0.000 A 
ATOM      6  C   UNL     1      -6.278  11.699  19.224  0.00  0.00    +0.000 A 
ATOM      7  C   UNL     1      -5.080  11.584  18.524  0.00  0.00    +0.000 A 
ATOM      8  N   UNL     1      -5.087  11.046  17.231  0.00  0.00    +0.000 N 
ATOM      9  C   UNL     1      -3.965  10.914  16.467  0.00  0.00    +0.000 A 
ATOM     10  O   UNL     1      -3.993  10.470  15.325  0.00  0.00    +0.000 OA
ATOM     11  C   UNL     1      -2.689  11.299  17.098  0.00  0.00    +0.000 A 
ATOM     12  C   UNL     1      -2.610  11.823  18.336  0.00  0.00    +0.000 A 
ATOM     13  C   UNL     1      -3.876  12.026  19.083  0.00  0.00    +0.000 A 
ATOM     14  C   UNL     1      -3.942  12.646  20.338  0.00  0.00    +0.000 A 
ATOM     15  C   UNL     1      -5.096  12.708  21.131  0.00  0.00    +0.000 A 
ATOM     16  H   UNL     1      -5.956  10.766  16.796  0.00  0.00    +0.000 HD
ENDROOT
BRANCH   1  18
ATOM     17  C   UNL     1      -4.589  12.382  24.708  0.00  0.00    +0.000 C 
ATOM     18  C   UNL     1      -3.993  13.018  23.440  0.00  0.00    +0.000 C 
ATOM     19  C   UNL     1      -3.265  14.326  23.835  0.00  0.00    +0.000 C 
ATOM     20  C   UNL     1      -2.862  12.109  22.912  0.00  0.00    +0.000 C 
ENDBRANCH   1  18
BRANCH  12  21
ATOM     21  C   UNL     1      -1.250  12.090  18.909  0.00  0.00    +0.000 C 
ATOM     22  F   UNL     1      -0.195  11.684  18.165  0.00  0.00    +0.000 F 
ATOM     23  F   UNL     1      -1.060  13.422  19.110  0.00  0.00    +0.000 F 
ATOM     24  F   UNL     1      -1.107  11.498  20.124  0.00  0.00    +0.000 F 
ENDBRANCH  12  21
TORSDOF 2
ENDMDL
