MODEL 1
REMARK VINA RESULT:      -7.6      0.000      0.000
REMARK  Name = 
REMARK  14 active torsions:
REMARK  status: ('A' for Active; 'I' for Inactive)
REMARK    1  A    between atoms: C_1  and  C_2
REMARK    2  A    between atoms: C_2  and  C_3
REMARK    3  A    between atoms: C_3  and  N_4
REMARK    4  A    between atoms: N_4  and  C_5
REMARK    5  A    between atoms: C_5  and  C_6
REMARK    6  A    between atoms: N_8  and  C_9
REMARK    7  A    between atoms: N_8  and  C_16
REMARK    8  A    between atoms: C_9  and  C_10
REMARK    9  A    between atoms: C_16  and  C_17
REMARK   10  A    between atoms: C_20  and  C_21
REMARK   11  A    between atoms: C_23  and  C_25
REMARK   12  A    between atoms: C_25  and  O_26
REMARK   13  A    between atoms: O_26  and  C_27
REMARK   14  A    between atoms: C_27  and  C_28
REMARK                            x       y       z     vdW  Elec       q    Type
REMARK                         _______ _______ _______ _____ _____    ______ ____
ROOT
ATOM      1  C   UNL     1       4.167   6.873  17.829  0.00  0.00    +0.000 C 
ATOM      2  O   UNL     1       4.390   7.665  16.909  0.00  0.00    +0.000 OA
ATOM      3  N   UNL     1       3.071   7.039  18.712  0.00  0.00    +0.000 N 
ENDROOT
BRANCH   1   4
ATOM      4  C   UNL     1       5.098   5.647  18.095  0.00  0.00    +0.000 C 
BRANCH   4   5
ATOM      5  N   UNL     1       6.468   5.596  17.532  0.00  0.00    +0.000 N 
ATOM      6  C   UNL     1       6.926   4.519  16.765  0.00  0.00    +0.000 C 
ATOM      7  O   UNL     1       8.125   4.253  16.650  0.00  0.00    +0.000 OA
BRANCH   5   8
ATOM      8  C   UNL     1       7.490   6.404  18.198  0.00  0.00    +0.000 C 
BRANCH   8  10
ATOM      9  C   UNL     1       8.487   8.726  18.466  0.00  0.00    +0.000 C 
ATOM     10  C   UNL     1       7.775   7.758  17.537  0.00  0.00    +0.000 C 
ENDBRANCH   8  10
ENDBRANCH   5   8
BRANCH   6  11
ATOM     11  C   UNL     1       5.900   3.619  16.057  0.00  0.00    +0.000 C 
BRANCH  11  12
ATOM     12  O   UNL     1       5.061   4.217  15.090  0.00  0.00    +0.000 OA
BRANCH  12  13
ATOM     13  C   UNL     1       5.810   4.819  14.029  0.00  0.00    +0.000 C 
BRANCH  13  14
ATOM     14  C   UNL     1       5.962   3.816  12.915  0.00  0.00    +0.000 A 
ATOM     15  C   UNL     1       4.821   3.246  12.335  0.00  0.00    +0.000 A 
ATOM     16  C   UNL     1       4.942   2.274  11.342  0.00  0.00    +0.000 A 
ATOM     17  C   UNL     1       6.204   1.874  10.910  0.00  0.00    +0.000 A 
ATOM     18  C   UNL     1       7.347   2.458  11.456  0.00  0.00    +0.000 A 
ATOM     19  C   UNL     1       7.225   3.430  12.449  0.00  0.00    +0.000 A 
ENDBRANCH  13  14
ENDBRANCH  12  13
ENDBRANCH  11  12
ENDBRANCH   6  11
ENDBRANCH   4   5
ENDBRANCH   1   4
BRANCH   3  20
ATOM     20  C   UNL     1       2.911   6.223  19.916  0.00  0.00    +0.000 C 
BRANCH  20  21
ATOM     21  C   UNL     1       2.173   4.917  19.708  0.00  0.00    +0.000 A 
ATOM     22  C   UNL     1       1.907   4.372  18.439  0.00  0.00    +0.000 A 
ATOM     23  C   UNL     1       1.158   3.198  18.318  0.00  0.00    +0.000 A 
ATOM     24  C   UNL     1       0.695   2.542  19.453  0.00  0.00    +0.000 A 
ATOM     25  C   UNL     1       1.000   3.042  20.718  0.00  0.00    +0.000 A 
ATOM     26  C   UNL     1       1.736   4.219  20.842  0.00  0.00    +0.000 A 
ENDBRANCH  20  21
ENDBRANCH   3  20
BRANCH   3  27
ATOM     27  C   UNL     1       1.842   7.609  18.146  0.00  0.00    +0.000 C 
BRANCH  27  28
ATOM     28  C   UNL     1       1.545   9.008  18.592  0.00  0.00    +0.000 A 
ATOM     29  C   UNL     1       1.655  10.240  17.977  0.00  0.00    +0.000 A 
ATOM     30  C   UNL     1       1.092  11.192  18.864  0.00  0.00    +0.000 A 
ATOM     31  C   UNL     1       0.681  10.496  19.977  0.00  0.00    +0.000 A 
ATOM     32  C   UNL     1       0.019  10.911  21.235  0.00  0.00    +0.000 C 
ATOM     33  O   UNL     1       0.956   9.165  19.822  0.00  0.00    +0.000 OA
ENDBRANCH  27  28
ENDBRANCH   3  27
TORSDOF 12
ENDMDL
MODEL 2
REMARK VINA RESULT:      -7.6      2.068      6.950
REMARK  Name = 
REMARK  14 active torsions:
REMARK  status: ('A' for Active; 'I' for Inactive)
REMARK    1  A    between atoms: C_1  and  C_2
REMARK    2  A    between atoms: C_2  and  C_3
REMARK    3  A    between atoms: C_3  and  N_4
REMARK    4  A    between atoms: N_4  and  C_5
REMARK    5  A    between atoms: C_5  and  C_6
REMARK    6  A    between atoms: N_8  and  C_9
REMARK    7  A    between atoms: N_8  and  C_16
REMARK    8  A    between atoms: C_9  and  C_10
REMARK    9  A    between atoms: C_16  and  C_17
REMARK   10  A    between atoms: C_20  and  C_21
REMARK   11  A    between atoms: C_23  and  C_25
REMARK   12  A    between atoms: C_25  and  O_26
REMARK   13  A    between atoms: O_26  and  C_27
REMARK   14  A    between atoms: C_27  and  C_28
REMARK                            x       y       z     vdW  Elec       q    Type
REMARK                         _______ _______ _______ _____ _____    ______ ____
ROOT
ATOM      1  C   UNL     1       3.799   4.798  17.498  0.00  0.00    +0.000 C 
ATOM      2  O   UNL     1       3.451   3.878  16.753  0.00  0.00    +0.000 OA
ATOM      3  N   UNL     1       2.902   5.819  17.897  0.00  0.00    +0.000 N 
ENDROOT
BRANCH   1   4
ATOM      4  C   UNL     1       5.265   4.909  18.028  0.00  0.00    +0.000 C 
BRANCH   4   5
ATOM      5  N   UNL     1       6.410   4.979  17.090  0.00  0.00    +0.000 N 
ATOM      6  C   UNL     1       7.183   6.135  16.934  0.00  0.00    +0.000 C 
ATOM      7  O   UNL     1       7.833   6.361  15.909  0.00  0.00    +0.000 OA
BRANCH   5   8
ATOM      8  C   UNL     1       6.410   4.037  15.970  0.00  0.00    +0.000 C 
BRANCH   8  10
ATOM      9  C   UNL     1       6.395   3.946  13.430  0.00  0.00    +0.000 C 
ATOM     10  C   UNL     1       5.792   4.575  14.674  0.00  0.00    +0.000 C 
ENDBRANCH   8  10
ENDBRANCH   5   8
BRANCH   6  11
ATOM     11  C   UNL     1       7.207   7.174  18.066  0.00  0.00    +0.000 C 
BRANCH  11  12
ATOM     12  O   UNL     1       8.345   8.006  18.168  0.00  0.00    +0.000 OA
BRANCH  12  13
ATOM     13  C   UNL     1       8.027   9.381  17.929  0.00  0.00    +0.000 C 
BRANCH  13  14
ATOM     14  C   UNL     1       9.056  10.241  18.614  0.00  0.00    +0.000 A 
ATOM     15  C   UNL     1      10.061  10.857  17.857  0.00  0.00    +0.000 A 
ATOM     16  C   UNL     1      11.056  11.611  18.480  0.00  0.00    +0.000 A 
ATOM     17  C   UNL     1      11.047  11.766  19.864  0.00  0.00    +0.000 A 
ATOM     18  C   UNL     1      10.035  11.184  20.626  0.00  0.00    +0.000 A 
ATOM     19  C   UNL     1       9.040  10.432  20.002  0.00  0.00    +0.000 A 
ENDBRANCH  13  14
ENDBRANCH  12  13
ENDBRANCH  11  12
ENDBRANCH   6  11
ENDBRANCH   4   5
ENDBRANCH   1   4
BRANCH   3  20
ATOM     20  C   UNL     1       3.352   7.012  18.616  0.00  0.00    +0.000 C 
BRANCH  20  21
ATOM     21  C   UNL     1       2.266   8.025  18.912  0.00  0.00    +0.000 A 
ATOM     22  C   UNL     1       1.756   8.258  20.203  0.00  0.00    +0.000 A 
ATOM     23  C   UNL     1       0.703   9.158  20.394  0.00  0.00    +0.000 A 
ATOM     24  C   UNL     1       0.172   9.855  19.314  0.00  0.00    +0.000 A 
ATOM     25  C   UNL     1       0.708   9.674  18.040  0.00  0.00    +0.000 A 
ATOM     26  C   UNL     1       1.748   8.769  17.843  0.00  0.00    +0.000 A 
ENDBRANCH  20  21
ENDBRANCH   3  20
BRANCH   3  27
ATOM     27  C   UNL     1       1.500   5.432  18.095  0.00  0.00    +0.000 C 
BRANCH  27  28
ATOM     28  C   UNL     1       1.310   4.170  18.881  0.00  0.00    +0.000 A 
ATOM     29  C   UNL     1       0.862   2.907  18.547  0.00  0.00    +0.000 A 
ATOM     30  C   UNL     1       1.033   2.095  19.696  0.00  0.00    +0.000 A 
ATOM     31  C   UNL     1       1.562   2.906  20.674  0.00  0.00    +0.000 A 
ATOM     32  C   UNL     1       1.970   2.657  22.076  0.00  0.00    +0.000 C 
ATOM     33  O   UNL     1       1.731   4.173  20.187  0.00  0.00    +0.000 OA
ENDBRANCH  27  28
ENDBRANCH   3  27
TORSDOF 12
ENDMDL
MODEL 3
REMARK VINA RESULT:      -7.5      2.549      5.388
REMARK  Name = 
REMARK  14 active torsions:
REMARK  status: ('A' for Active; 'I' for Inactive)
REMARK    1  A    between atoms: C_1  and  C_2
REMARK    2  A    between atoms: C_2  and  C_3
REMARK    3  A    between atoms: C_3  and  N_4
REMARK    4  A    between atoms: N_4  and  C_5
REMARK    5  A    between atoms: C_5  and  C_6
REMARK    6  A    between atoms: N_8  and  C_9
REMARK    7  A    between atoms: N_8  and  C_16
REMARK    8  A    between atoms: C_9  and  C_10
REMARK    9  A    between atoms: C_16  and  C_17
REMARK   10  A    between atoms: C_20  and  C_21
REMARK   11  A    between atoms: C_23  and  C_25
REMARK   12  A    between atoms: C_25  and  O_26
REMARK   13  A    between atoms: O_26  and  C_27
REMARK   14  A    between atoms: C_27  and  C_28
REMARK                            x       y       z     vdW  Elec       q    Type
REMARK                         _______ _______ _______ _____ _____    ______ ____
ROOT
ATOM      1  C   UNL     1       3.961   6.841  17.926  0.00  0.00    +0.000 C 
ATOM      2  O   UNL     1       4.381   7.338  16.877  0.00  0.00    +0.000 OA
ATOM      3  N   UNL     1       2.824   7.356  18.597  0.00  0.00    +0.000 N 
ENDROOT
BRANCH   1   4
ATOM      4  C   UNL     1       4.675   5.624  18.597  0.00  0.00    +0.000 C 
BRANCH   4   5
ATOM      5  N   UNL     1       5.683   4.829  17.855  0.00  0.00    +0.000 N 
ATOM      6  C   UNL     1       7.030   5.199  17.787  0.00  0.00    +0.000 C 
ATOM      7  O   UNL     1       7.773   4.826  16.875  0.00  0.00    +0.000 OA
BRANCH   5   8
ATOM      8  C   UNL     1       5.188   3.965  16.782  0.00  0.00    +0.000 C 
BRANCH   8  10
ATOM      9  C   UNL     1       4.235   2.384  18.529  0.00  0.00    +0.000 C 
ATOM     10  C   UNL     1       4.026   3.046  17.178  0.00  0.00    +0.000 C 
ENDBRANCH   8  10
ENDBRANCH   5   8
BRANCH   6  11
ATOM     11  C   UNL     1       7.604   6.124  18.873  0.00  0.00    +0.000 C 
BRANCH  11  12
ATOM     12  O   UNL     1       8.458   7.171  18.458  0.00  0.00    +0.000 OA
BRANCH  12  13
ATOM     13  C   UNL     1       7.736   8.229  17.819  0.00  0.00    +0.000 C 
BRANCH  13  14
ATOM     14  C   UNL     1       8.391   9.540  18.168  0.00  0.00    +0.000 A 
ATOM     15  C   UNL     1       9.316   9.595  19.218  0.00  0.00    +0.000 A 
ATOM     16  C   UNL     1       9.891  10.809  19.594  0.00  0.00    +0.000 A 
ATOM     17  C   UNL     1       9.555  11.977  18.913  0.00  0.00    +0.000 A 
ATOM     18  C   UNL     1       8.659  11.931  17.846  0.00  0.00    +0.000 A 
ATOM     19  C   UNL     1       8.086  10.716  17.470  0.00  0.00    +0.000 A 
ENDBRANCH  13  14
ENDBRANCH  12  13
ENDBRANCH  11  12
ENDBRANCH   6  11
ENDBRANCH   4   5
ENDBRANCH   1   4
BRANCH   3  20
ATOM     20  C   UNL     1       2.436   6.902  19.932  0.00  0.00    +0.000 C 
BRANCH  20  21
ATOM     21  C   UNL     1       1.996   5.455  20.011  0.00  0.00    +0.000 A 
ATOM     22  C   UNL     1       1.282   4.806  18.987  0.00  0.00    +0.000 A 
ATOM     23  C   UNL     1       0.846   3.489  19.156  0.00  0.00    +0.000 A 
ATOM     24  C   UNL     1       1.139   2.798  20.327  0.00  0.00    +0.000 A 
ATOM     25  C   UNL     1       1.894   3.412  21.325  0.00  0.00    +0.000 A 
ATOM     26  C   UNL     1       2.320   4.729  21.166  0.00  0.00    +0.000 A 
ENDBRANCH  20  21
ENDBRANCH   3  20
BRANCH   3  27
ATOM     27  C   UNL     1       1.749   7.901  17.758  0.00  0.00    +0.000 C 
BRANCH  27  28
ATOM     28  C   UNL     1       1.336   9.298  18.110  0.00  0.00    +0.000 A 
ATOM     29  C   UNL     1       0.220   9.827  18.728  0.00  0.00    +0.000 A 
ATOM     30  C   UNL     1       0.465  11.213  18.899  0.00  0.00    +0.000 A 
ATOM     31  C   UNL     1       1.709  11.460  18.366  0.00  0.00    +0.000 A 
ATOM     32  C   UNL     1       2.526  12.690  18.246  0.00  0.00    +0.000 C 
ATOM     33  O   UNL     1       2.246  10.300  17.880  0.00  0.00    +0.000 OA
ENDBRANCH  27  28
ENDBRANCH   3  27
TORSDOF 12
ENDMDL
MODEL 4
REMARK VINA RESULT:      -7.5      1.685      5.695
REMARK  Name = 
REMARK  14 active torsions:
REMARK  status: ('A' for Active; 'I' for Inactive)
REMARK    1  A    between atoms: C_1  and  C_2
REMARK    2  A    between atoms: C_2  and  C_3
REMARK    3  A    between atoms: C_3  and  N_4
REMARK    4  A    between atoms: N_4  and  C_5
REMARK    5  A    between atoms: C_5  and  C_6
REMARK    6  A    between atoms: N_8  and  C_9
REMARK    7  A    between atoms: N_8  and  C_16
REMARK    8  A    between atoms: C_9  and  C_10
REMARK    9  A    between atoms: C_16  and  C_17
REMARK   10  A    between atoms: C_20  and  C_21
REMARK   11  A    between atoms: C_23  and  C_25
REMARK   12  A    between atoms: C_25  and  O_26
REMARK   13  A    between atoms: O_26  and  C_27
REMARK   14  A    between atoms: C_27  and  C_28
REMARK                            x       y       z     vdW  Elec       q    Type
REMARK                         _______ _______ _______ _____ _____    ______ ____
ROOT
ATOM      1  C   UNL     1       3.866   7.050  17.529  0.00  0.00    +0.000 C 
ATOM      2  O   UNL     1       3.928   7.911  16.647  0.00  0.00    +0.000 OA
ATOM      3  N   UNL     1       2.937   7.136  18.596  0.00  0.00    +0.000 N 
ENDROOT
BRANCH   1   4
ATOM      4  C   UNL     1       4.829   5.820  17.540  0.00  0.00    +0.000 C 
BRANCH   4   5
ATOM      5  N   UNL     1       5.997   5.761  16.629  0.00  0.00    +0.000 N 
ATOM      6  C   UNL     1       7.190   6.444  16.891  0.00  0.00    +0.000 C 
ATOM      7  O   UNL     1       7.983   6.753  15.998  0.00  0.00    +0.000 OA
BRANCH   5   8
ATOM      8  C   UNL     1       5.732   5.422  15.230  0.00  0.00    +0.000 C 
BRANCH   8  10
ATOM      9  C   UNL     1       6.219   3.726  13.402  0.00  0.00    +0.000 C 
ATOM     10  C   UNL     1       5.926   3.943  14.876  0.00  0.00    +0.000 C 
ENDBRANCH   8  10
ENDBRANCH   5   8
BRANCH   6  11
ATOM     11  C   UNL     1       7.515   6.847  18.339  0.00  0.00    +0.000 C 
BRANCH  11  12
ATOM     12  O   UNL     1       8.527   7.812  18.538  0.00  0.00    +0.000 OA
BRANCH  12  13
ATOM     13  C   UNL     1       8.139   9.104  18.058  0.00  0.00    +0.000 C 
BRANCH  13  14
ATOM     14  C   UNL     1       9.077  10.134  18.630  0.00  0.00    +0.000 A 
ATOM     15  C   UNL     1       9.149  10.312  20.018  0.00  0.00    +0.000 A 
ATOM     16  C   UNL     1       9.970  11.300  20.563  0.00  0.00    +0.000 A 
ATOM     17  C   UNL     1      10.736  12.108  19.727  0.00  0.00    +0.000 A 
ATOM     18  C   UNL     1      10.697  11.919  18.346  0.00  0.00    +0.000 A 
ATOM     19  C   UNL     1       9.877  10.931  17.802  0.00  0.00    +0.000 A 
ENDBRANCH  13  14
ENDBRANCH  12  13
ENDBRANCH  11  12
ENDBRANCH   6  11
ENDBRANCH   4   5
ENDBRANCH   1   4
BRANCH   3  20
ATOM     20  C   UNL     1       2.985   6.230  19.745  0.00  0.00    +0.000 C 
BRANCH  20  21
ATOM     21  C   UNL     1       2.145   4.978  19.605  0.00  0.00    +0.000 A 
ATOM     22  C   UNL     1       1.430   4.403  20.672  0.00  0.00    +0.000 A 
ATOM     23  C   UNL     1       0.733   3.205  20.490  0.00  0.00    +0.000 A 
ATOM     24  C   UNL     1       0.714   2.587  19.244  0.00  0.00    +0.000 A 
ATOM     25  C   UNL     1       1.372   3.178  18.166  0.00  0.00    +0.000 A 
ATOM     26  C   UNL     1       2.079   4.365  18.347  0.00  0.00    +0.000 A 
ENDBRANCH  20  21
ENDBRANCH   3  20
BRANCH   3  27
ATOM     27  C   UNL     1       1.628   7.729  18.291  0.00  0.00    +0.000 C 
BRANCH  27  28
ATOM     28  C   UNL     1       1.497   9.171  18.678  0.00  0.00    +0.000 A 
ATOM     29  C   UNL     1       1.804  10.354  18.036  0.00  0.00    +0.000 A 
ATOM     30  C   UNL     1       1.326  11.404  18.860  0.00  0.00    +0.000 A 
ATOM     31  C   UNL     1       0.764  10.809  19.966  0.00  0.00    +0.000 A 
ATOM     32  C   UNL     1       0.095  11.353  21.170  0.00  0.00    +0.000 C 
ATOM     33  O   UNL     1       0.867   9.448  19.866  0.00  0.00    +0.000 OA
ENDBRANCH  27  28
ENDBRANCH   3  27
TORSDOF 12
ENDMDL
MODEL 5
REMARK VINA RESULT:      -7.5      1.910      5.879
REMARK  Name = 
REMARK  14 active torsions:
REMARK  status: ('A' for Active; 'I' for Inactive)
REMARK    1  A    between atoms: C_1  and  C_2
REMARK    2  A    between atoms: C_2  and  C_3
REMARK    3  A    between atoms: C_3  and  N_4
REMARK    4  A    between atoms: N_4  and  C_5
REMARK    5  A    between atoms: C_5  and  C_6
REMARK    6  A    between atoms: N_8  and  C_9
REMARK    7  A    between atoms: N_8  and  C_16
REMARK    8  A    between atoms: C_9  and  C_10
REMARK    9  A    between atoms: C_16  and  C_17
REMARK   10  A    between atoms: C_20  and  C_21
REMARK   11  A    between atoms: C_23  and  C_25
REMARK   12  A    between atoms: C_25  and  O_26
REMARK   13  A    between atoms: O_26  and  C_27
REMARK   14  A    between atoms: C_27  and  C_28
REMARK                            x       y       z     vdW  Elec       q    Type
REMARK                         _______ _______ _______ _____ _____    ______ ____
ROOT
ATOM      1  C   UNL     1       4.052   7.030  17.708  0.00  0.00    +0.000 C 
ATOM      2  O   UNL     1       4.317   7.727  16.725  0.00  0.00    +0.000 OA
ATOM      3  N   UNL     1       2.908   7.269  18.510  0.00  0.00    +0.000 N 
ENDROOT
BRANCH   1   4
ATOM      4  C   UNL     1       4.980   5.853  18.149  0.00  0.00    +0.000 C 
BRANCH   4   5
ATOM      5  N   UNL     1       6.213   5.532  17.392  0.00  0.00    +0.000 N 
ATOM      6  C   UNL     1       7.171   6.500  17.072  0.00  0.00    +0.000 C 
ATOM      7  O   UNL     1       7.952   6.369  16.125  0.00  0.00    +0.000 OA
BRANCH   5   8
ATOM      8  C   UNL     1       6.182   4.339  16.545  0.00  0.00    +0.000 C 
BRANCH   8  10
ATOM      9  C   UNL     1       5.908   4.178  14.023  0.00  0.00    +0.000 C 
ATOM     10  C   UNL     1       5.218   4.418  15.355  0.00  0.00    +0.000 C 
ENDBRANCH   8  10
ENDBRANCH   5   8
BRANCH   6  11
ATOM     11  C   UNL     1       7.240   7.787  17.911  0.00  0.00    +0.000 C 
BRANCH  11  12
ATOM     12  O   UNL     1       8.419   8.561  17.827  0.00  0.00    +0.000 OA
BRANCH  12  13
ATOM     13  C   UNL     1       8.143   9.965  17.866  0.00  0.00    +0.000 C 
BRANCH  13  14
ATOM     14  C   UNL     1       9.293  10.665  18.542  0.00  0.00    +0.000 A 
ATOM     15  C   UNL     1      10.373  11.123  17.777  0.00  0.00    +0.000 A 
ATOM     16  C   UNL     1      11.473  11.722  18.392  0.00  0.00    +0.000 A 
ATOM     17  C   UNL     1      11.495  11.882  19.775  0.00  0.00    +0.000 A 
ATOM     18  C   UNL     1      10.412  11.459  20.544  0.00  0.00    +0.000 A 
ATOM     19  C   UNL     1       9.313  10.861  19.929  0.00  0.00    +0.000 A 
ENDBRANCH  13  14
ENDBRANCH  12  13
ENDBRANCH  11  12
ENDBRANCH   6  11
ENDBRANCH   4   5
ENDBRANCH   1   4
BRANCH   3  20
ATOM     20  C   UNL     1       2.691   6.577  19.781  0.00  0.00    +0.000 C 
BRANCH  20  21
ATOM     21  C   UNL     1       2.030   5.220  19.664  0.00  0.00    +0.000 A 
ATOM     22  C   UNL     1       1.574   4.483  20.773  0.00  0.00    +0.000 A 
ATOM     23  C   UNL     1       1.038   3.205  20.598  0.00  0.00    +0.000 A 
ATOM     24  C   UNL     1       0.921   2.661  19.323  0.00  0.00    +0.000 A 
ATOM     25  C   UNL     1       1.317   3.405  18.213  0.00  0.00    +0.000 A 
ATOM     26  C   UNL     1       1.864   4.675  18.384  0.00  0.00    +0.000 A 
ENDBRANCH  20  21
ENDBRANCH   3  20
BRANCH   3  27
ATOM     27  C   UNL     1       1.706   7.758  17.823  0.00  0.00    +0.000 C 
BRANCH  27  28
ATOM     28  C   UNL     1       1.327   9.167  18.163  0.00  0.00    +0.000 A 
ATOM     29  C   UNL     1       0.249   9.723  18.825  0.00  0.00    +0.000 A 
ATOM     30  C   UNL     1       0.518  11.109  18.953  0.00  0.00    +0.000 A 
ATOM     31  C   UNL     1       1.736  11.329  18.352  0.00  0.00    +0.000 A 
ATOM     32  C   UNL     1       2.559  12.546  18.163  0.00  0.00    +0.000 C 
ATOM     33  O   UNL     1       2.235  10.152  17.865  0.00  0.00    +0.000 OA
ENDBRANCH  27  28
ENDBRANCH   3  27
TORSDOF 12
ENDMDL
MODEL 6
REMARK VINA RESULT:      -7.3      1.969      5.050
REMARK  Name = 
REMARK  14 active torsions:
REMARK  status: ('A' for Active; 'I' for Inactive)
REMARK    1  A    between atoms: C_1  and  C_2
REMARK    2  A    between atoms: C_2  and  C_3
REMARK    3  A    between atoms: C_3  and  N_4
REMARK    4  A    between atoms: N_4  and  C_5
REMARK    5  A    between atoms: C_5  and  C_6
REMARK    6  A    between atoms: N_8  and  C_9
REMARK    7  A    between atoms: N_8  and  C_16
REMARK    8  A    between atoms: C_9  and  C_10
REMARK    9  A    between atoms: C_16  and  C_17
REMARK   10  A    between atoms: C_20  and  C_21
REMARK   11  A    between atoms: C_23  and  C_25
REMARK   12  A    between atoms: C_25  and  O_26
REMARK   13  A    between atoms: O_26  and  C_27
REMARK   14  A    between atoms: C_27  and  C_28
REMARK                            x       y       z     vdW  Elec       q    Type
REMARK                         _______ _______ _______ _____ _____    ______ ____
ROOT
ATOM      1  C   UNL     1       1.877   6.788  19.927  0.00  0.00    +0.000 C 
ATOM      2  O   UNL     1       1.648   6.143  20.954  0.00  0.00    +0.000 OA
ATOM      3  N   UNL     1       1.683   8.190  19.863  0.00  0.00    +0.000 N 
ENDROOT
BRANCH   1   4
ATOM      4  C   UNL     1       2.372   6.091  18.619  0.00  0.00    +0.000 C 
BRANCH   4   5
ATOM      5  N   UNL     1       2.583   4.625  18.571  0.00  0.00    +0.000 N 
ATOM      6  C   UNL     1       3.750   4.050  18.055  0.00  0.00    +0.000 C 
ATOM      7  O   UNL     1       3.781   2.894  17.623  0.00  0.00    +0.000 OA
BRANCH   5   8
ATOM      8  C   UNL     1       1.388   3.781  18.579  0.00  0.00    +0.000 C 
BRANCH   8  10
ATOM      9  C   UNL     1       2.120   2.709  20.764  0.00  0.00    +0.000 C 
ATOM     10  C   UNL     1       0.961   3.278  19.963  0.00  0.00    +0.000 C 
ENDBRANCH   8  10
ENDBRANCH   5   8
BRANCH   6  11
ATOM     11  C   UNL     1       5.034   4.893  18.000  0.00  0.00    +0.000 C 
BRANCH  11  12
ATOM     12  O   UNL     1       6.042   4.492  17.094  0.00  0.00    +0.000 OA
BRANCH  12  13
ATOM     13  C   UNL     1       6.399   5.542  16.189  0.00  0.00    +0.000 C 
BRANCH  13  14
ATOM     14  C   UNL     1       6.453   4.979  14.794  0.00  0.00    +0.000 A 
ATOM     15  C   UNL     1       5.423   4.143  14.342  0.00  0.00    +0.000 A 
ATOM     16  C   UNL     1       5.484   3.566  13.073  0.00  0.00    +0.000 A 
ATOM     17  C   UNL     1       6.569   3.831  12.240  0.00  0.00    +0.000 A 
ATOM     18  C   UNL     1       7.584   4.685  12.666  0.00  0.00    +0.000 A 
ATOM     19  C   UNL     1       7.522   5.263  13.934  0.00  0.00    +0.000 A 
ENDBRANCH  13  14
ENDBRANCH  12  13
ENDBRANCH  11  12
ENDBRANCH   6  11
ENDBRANCH   4   5
ENDBRANCH   1   4
BRANCH   3  20
ATOM     20  C   UNL     1       1.765   8.930  18.603  0.00  0.00    +0.000 C 
BRANCH  20  21
ATOM     21  C   UNL     1       0.944  10.202  18.557  0.00  0.00    +0.000 A 
ATOM     22  C   UNL     1       1.510  11.490  18.598  0.00  0.00    +0.000 A 
ATOM     23  C   UNL     1       0.689  12.620  18.623  0.00  0.00    +0.000 A 
ATOM     24  C   UNL     1      -0.694  12.484  18.575  0.00  0.00    +0.000 A 
ATOM     25  C   UNL     1      -1.264  11.216  18.477  0.00  0.00    +0.000 A 
ATOM     26  C   UNL     1      -0.449  10.085  18.466  0.00  0.00    +0.000 A 
ENDBRANCH  20  21
ENDBRANCH   3  20
BRANCH   3  27
ATOM     27  C   UNL     1       1.962   8.955  21.085  0.00  0.00    +0.000 C 
BRANCH  27  28
ATOM     28  C   UNL     1       0.749   9.549  21.734  0.00  0.00    +0.000 A 
ATOM     29  C   UNL     1      -0.291   9.010  22.467  0.00  0.00    +0.000 A 
ATOM     30  C   UNL     1      -1.074  10.098  22.928  0.00  0.00    +0.000 A 
ATOM     31  C   UNL     1      -0.481  11.241  22.444  0.00  0.00    +0.000 A 
ATOM     32  C   UNL     1      -0.808  12.679  22.580  0.00  0.00    +0.000 C 
ATOM     33  O   UNL     1       0.629  10.916  21.712  0.00  0.00    +0.000 OA
ENDBRANCH  27  28
ENDBRANCH   3  27
TORSDOF 12
ENDMDL
MODEL 7
REMARK VINA RESULT:      -7.3      1.576      8.809
REMARK  Name = 
REMARK  14 active torsions:
REMARK  status: ('A' for Active; 'I' for Inactive)
REMARK    1  A    between atoms: C_1  and  C_2
REMARK    2  A    between atoms: C_2  and  C_3
REMARK    3  A    between atoms: C_3  and  N_4
REMARK    4  A    between atoms: N_4  and  C_5
REMARK    5  A    between atoms: C_5  and  C_6
REMARK    6  A    between atoms: N_8  and  C_9
REMARK    7  A    between atoms: N_8  and  C_16
REMARK    8  A    between atoms: C_9  and  C_10
REMARK    9  A    between atoms: C_16  and  C_17
REMARK   10  A    between atoms: C_20  and  C_21
REMARK   11  A    between atoms: C_23  and  C_25
REMARK   12  A    between atoms: C_25  and  O_26
REMARK   13  A    between atoms: O_26  and  C_27
REMARK   14  A    between atoms: C_27  and  C_28
REMARK                            x       y       z     vdW  Elec       q    Type
REMARK                         _______ _______ _______ _____ _____    ______ ____
ROOT
ATOM      1  C   UNL     1       3.934   3.880  17.558  0.00  0.00    +0.000 C 
ATOM      2  O   UNL     1       3.887   2.722  17.981  0.00  0.00    +0.000 OA
ATOM      3  N   UNL     1       5.119   4.430  17.011  0.00  0.00    +0.000 N 
ENDROOT
BRANCH   1   4
ATOM      4  C   UNL     1       2.691   4.826  17.624  0.00  0.00    +0.000 C 
BRANCH   4   5
ATOM      5  N   UNL     1       2.312   5.496  18.890  0.00  0.00    +0.000 N 
ATOM      6  C   UNL     1       2.387   6.883  19.057  0.00  0.00    +0.000 C 
ATOM      7  O   UNL     1       2.489   7.410  20.169  0.00  0.00    +0.000 OA
BRANCH   5   8
ATOM      8  C   UNL     1       2.358   4.688  20.110  0.00  0.00    +0.000 C 
BRANCH   8  10
ATOM      9  C   UNL     1       0.713   2.841  19.527  0.00  0.00    +0.000 C 
ATOM     10  C   UNL     1       1.043   3.986  20.468  0.00  0.00    +0.000 C 
ENDBRANCH   8  10
ENDBRANCH   5   8
BRANCH   6  11
ATOM     11  C   UNL     1       2.366   7.786  17.813  0.00  0.00    +0.000 C 
BRANCH  11  12
ATOM     12  O   UNL     1       1.391   8.808  17.761  0.00  0.00    +0.000 OA
BRANCH  12  13
ATOM     13  C   UNL     1       1.919  10.074  18.168  0.00  0.00    +0.000 C 
BRANCH  13  14
ATOM     14  C   UNL     1       0.778  10.957  18.600  0.00  0.00    +0.000 A 
ATOM     15  C   UNL     1      -0.460  10.384  18.922  0.00  0.00    +0.000 A 
ATOM     16  C   UNL     1      -1.544  11.190  19.269  0.00  0.00    +0.000 A 
ATOM     17  C   UNL     1      -1.397  12.574  19.312  0.00  0.00    +0.000 A 
ATOM     18  C   UNL     1      -0.162  13.154  19.025  0.00  0.00    +0.000 A 
ATOM     19  C   UNL     1       0.922  12.348  18.679  0.00  0.00    +0.000 A 
ENDBRANCH  13  14
ENDBRANCH  12  13
ENDBRANCH  11  12
ENDBRANCH   6  11
ENDBRANCH   4   5
ENDBRANCH   1   4
BRANCH   3  20
ATOM     20  C   UNL     1       5.241   5.853  16.688  0.00  0.00    +0.000 C 
BRANCH  20  21
ATOM     21  C   UNL     1       6.365   6.575  17.401  0.00  0.00    +0.000 A 
ATOM     22  C   UNL     1       6.779   7.879  17.071  0.00  0.00    +0.000 A 
ATOM     23  C   UNL     1       7.870   8.458  17.723  0.00  0.00    +0.000 A 
ATOM     24  C   UNL     1       8.538   7.764  18.726  0.00  0.00    +0.000 A 
ATOM     25  C   UNL     1       8.101   6.494  19.100  0.00  0.00    +0.000 A 
ATOM     26  C   UNL     1       7.022   5.907  18.443  0.00  0.00    +0.000 A 
ENDBRANCH  20  21
ENDBRANCH   3  20
BRANCH   3  27
ATOM     27  C   UNL     1       5.990   3.518  16.258  0.00  0.00    +0.000 C 
BRANCH  27  28
ATOM     28  C   UNL     1       6.162   3.876  14.814  0.00  0.00    +0.000 A 
ATOM     29  C   UNL     1       7.124   4.588  14.124  0.00  0.00    +0.000 A 
ATOM     30  C   UNL     1       6.810   4.474  12.747  0.00  0.00    +0.000 A 
ATOM     31  C   UNL     1       5.668   3.711  12.668  0.00  0.00    +0.000 A 
ATOM     32  C   UNL     1       4.854   3.234  11.525  0.00  0.00    +0.000 C 
ATOM     33  O   UNL     1       5.264   3.345  13.922  0.00  0.00    +0.000 OA
ENDBRANCH  27  28
ENDBRANCH   3  27
TORSDOF 12
ENDMDL
MODEL 8
REMARK VINA RESULT:      -7.3      2.989      8.937
REMARK  Name = 
REMARK  14 active torsions:
REMARK  status: ('A' for Active; 'I' for Inactive)
REMARK    1  A    between atoms: C_1  and  C_2
REMARK    2  A    between atoms: C_2  and  C_3
REMARK    3  A    between atoms: C_3  and  N_4
REMARK    4  A    between atoms: N_4  and  C_5
REMARK    5  A    between atoms: C_5  and  C_6
REMARK    6  A    between atoms: N_8  and  C_9
REMARK    7  A    between atoms: N_8  and  C_16
REMARK    8  A    between atoms: C_9  and  C_10
REMARK    9  A    between atoms: C_16  and  C_17
REMARK   10  A    between atoms: C_20  and  C_21
REMARK   11  A    between atoms: C_23  and  C_25
REMARK   12  A    between atoms: C_25  and  O_26
REMARK   13  A    between atoms: O_26  and  C_27
REMARK   14  A    between atoms: C_27  and  C_28
REMARK                            x       y       z     vdW  Elec       q    Type
REMARK                         _______ _______ _______ _____ _____    ______ ____
ROOT
ATOM      1  C   UNL     1       1.963   8.166  18.929  0.00  0.00    +0.000 C 
ATOM      2  O   UNL     1       2.583   8.643  17.974  0.00  0.00    +0.000 OA
ATOM      3  N   UNL     1       2.338   6.938  19.527  0.00  0.00    +0.000 N 
ENDROOT
BRANCH   1   4
ATOM      4  C   UNL     1       0.704   8.876  19.522  0.00  0.00    +0.000 C 
BRANCH   4   5
ATOM      5  N   UNL     1       0.842   9.946  20.538  0.00  0.00    +0.000 N 
ATOM      6  C   UNL     1       1.047  11.286  20.194  0.00  0.00    +0.000 C 
ATOM      7  O   UNL     1       1.570  12.094  20.967  0.00  0.00    +0.000 OA
BRANCH   5   8
ATOM      8  C   UNL     1       1.279   9.541  21.875  0.00  0.00    +0.000 C 
BRANCH   8  10
ATOM      9  C   UNL     1      -0.784  10.368  23.107  0.00  0.00    +0.000 C 
ATOM     10  C   UNL     1       0.145   9.195  22.847  0.00  0.00    +0.000 C 
ENDBRANCH   8  10
ENDBRANCH   5   8
BRANCH   6  11
ATOM     11  C   UNL     1       0.629  11.769  18.796  0.00  0.00    +0.000 C 
BRANCH  11  12
ATOM     12  O   UNL     1      -0.648  12.360  18.661  0.00  0.00    +0.000 OA
BRANCH  12  13
ATOM     13  C   UNL     1      -1.640  11.672  19.430  0.00  0.00    +0.000 C 
BRANCH  13  14
ATOM     14  C   UNL     1      -2.941  11.696  18.671  0.00  0.00    +0.000 A 
ATOM     15  C   UNL     1      -2.983  11.232  17.350  0.00  0.00    +0.000 A 
ATOM     16  C   UNL     1      -4.165  11.299  16.612  0.00  0.00    +0.000 A 
ATOM     17  C   UNL     1      -5.320  11.818  17.194  0.00  0.00    +0.000 A 
ATOM     18  C   UNL     1      -5.299  12.253  18.518  0.00  0.00    +0.000 A 
ATOM     19  C   UNL     1      -4.117  12.185  19.255  0.00  0.00    +0.000 A 
ENDBRANCH  13  14
ENDBRANCH  12  13
ENDBRANCH  11  12
ENDBRANCH   6  11
ENDBRANCH   4   5
ENDBRANCH   1   4
BRANCH   3  20
ATOM     20  C   UNL     1       1.501   6.270  20.525  0.00  0.00    +0.000 C 
BRANCH  20  21
ATOM     21  C   UNL     1       1.573   4.758  20.510  0.00  0.00    +0.000 A 
ATOM     22  C   UNL     1       2.216   4.003  21.508  0.00  0.00    +0.000 A 
ATOM     23  C   UNL     1       2.306   2.613  21.394  0.00  0.00    +0.000 A 
ATOM     24  C   UNL     1       1.733   1.960  20.307  0.00  0.00    +0.000 A 
ATOM     25  C   UNL     1       1.045   2.692  19.342  0.00  0.00    +0.000 A 
ATOM     26  C   UNL     1       0.964   4.079  19.445  0.00  0.00    +0.000 A 
ENDBRANCH  20  21
ENDBRANCH   3  20
BRANCH   3  27
ATOM     27  C   UNL     1       3.774   6.634  19.577  0.00  0.00    +0.000 C 
BRANCH  27  28
ATOM     28  C   UNL     1       4.254   5.726  18.486  0.00  0.00    +0.000 A 
ATOM     29  C   UNL     1       3.606   5.009  17.498  0.00  0.00    +0.000 A 
ATOM     30  C   UNL     1       4.612   4.439  16.679  0.00  0.00    +0.000 A 
ATOM     31  C   UNL     1       5.819   4.825  17.215  0.00  0.00    +0.000 A 
ATOM     32  C   UNL     1       7.224   4.567  16.820  0.00  0.00    +0.000 C 
ATOM     33  O   UNL     1       5.611   5.607  18.318  0.00  0.00    +0.000 OA
ENDBRANCH  27  28
ENDBRANCH   3  27
TORSDOF 12
ENDMDL
MODEL 9
REMARK VINA RESULT:      -7.3      3.736      6.906
REMARK  Name = 
REMARK  14 active torsions:
REMARK  status: ('A' for Active; 'I' for Inactive)
REMARK    1  A    between atoms: C_1  and  C_2
REMARK    2  A    between atoms: C_2  and  C_3
REMARK    3  A    between atoms: C_3  and  N_4
REMARK    4  A    between atoms: N_4  and  C_5
REMARK    5  A    between atoms: C_5  and  C_6
REMARK    6  A    between atoms: N_8  and  C_9
REMARK    7  A    between atoms: N_8  and  C_16
REMARK    8  A    between atoms: C_9  and  C_10
REMARK    9  A    between atoms: C_16  and  C_17
REMARK   10  A    between atoms: C_20  and  C_21
REMARK   11  A    between atoms: C_23  and  C_25
REMARK   12  A    between atoms: C_25  and  O_26
REMARK   13  A    between atoms: O_26  and  C_27
REMARK   14  A    between atoms: C_27  and  C_28
REMARK                            x       y       z     vdW  Elec       q    Type
REMARK                         _______ _______ _______ _____ _____    ______ ____
ROOT
ATOM      1  C   UNL     1       1.128  11.006  18.766  0.00  0.00    +0.000 C 
ATOM      2  O   UNL     1       2.185  11.643  18.753  0.00  0.00    +0.000 OA
ATOM      3  N   UNL     1      -0.121  11.630  19.011  0.00  0.00    +0.000 N 
ENDROOT
BRANCH   1   4
ATOM      4  C   UNL     1       1.103   9.460  18.538  0.00  0.00    +0.000 C 
BRANCH   4   5
ATOM      5  N   UNL     1       1.514   8.526  19.613  0.00  0.00    +0.000 N 
ATOM      6  C   UNL     1       2.291   7.390  19.365  0.00  0.00    +0.000 C 
ATOM      7  O   UNL     1       2.289   6.411  20.117  0.00  0.00    +0.000 OA
BRANCH   5   8
ATOM      8  C   UNL     1       0.691   8.503  20.823  0.00  0.00    +0.000 C 
BRANCH   8  10
ATOM      9  C   UNL     1       0.249   9.515  23.112  0.00  0.00    +0.000 C 
ATOM     10  C   UNL     1       1.270   9.277  22.013  0.00  0.00    +0.000 C 
ENDBRANCH   8  10
ENDBRANCH   5   8
BRANCH   6  11
ATOM     11  C   UNL     1       3.161   7.345  18.098  0.00  0.00    +0.000 C 
BRANCH  11  12
ATOM     12  O   UNL     1       4.270   6.469  18.096  0.00  0.00    +0.000 OA
BRANCH  12  13
ATOM     13  C   UNL     1       4.099   5.389  17.172  0.00  0.00    +0.000 C 
BRANCH  13  14
ATOM     14  C   UNL     1       3.477   4.225  17.900  0.00  0.00    +0.000 A 
ATOM     15  C   UNL     1       2.163   3.842  17.602  0.00  0.00    +0.000 A 
ATOM     16  C   UNL     1       1.551   2.804  18.305  0.00  0.00    +0.000 A 
ATOM     17  C   UNL     1       2.253   2.131  19.302  0.00  0.00    +0.000 A 
ATOM     18  C   UNL     1       3.572   2.481  19.586  0.00  0.00    +0.000 A 
ATOM     19  C   UNL     1       4.183   3.519  18.882  0.00  0.00    +0.000 A 
ENDBRANCH  13  14
ENDBRANCH  12  13
ENDBRANCH  11  12
ENDBRANCH   6  11
ENDBRANCH   4   5
ENDBRANCH   1   4
BRANCH   3  20
ATOM     20  C   UNL     1      -1.348  10.860  19.220  0.00  0.00    +0.000 C 
BRANCH  20  21
ATOM     21  C   UNL     1      -2.269  10.789  18.021  0.00  0.00    +0.000 A 
ATOM     22  C   UNL     1      -1.975  10.046  16.862  0.00  0.00    +0.000 A 
ATOM     23  C   UNL     1      -2.837  10.083  15.763  0.00  0.00    +0.000 A 
ATOM     24  C   UNL     1      -4.011  10.828  15.817  0.00  0.00    +0.000 A 
ATOM     25  C   UNL     1      -4.340  11.521  16.980  0.00  0.00    +0.000 A 
ATOM     26  C   UNL     1      -3.476  11.499  18.073  0.00  0.00    +0.000 A 
ENDBRANCH  20  21
ENDBRANCH   3  20
BRANCH   3  27
ATOM     27  C   UNL     1      -0.291  12.998  18.503  0.00  0.00    +0.000 C 
BRANCH  27  28
ATOM     28  C   UNL     1      -0.312  14.055  19.565  0.00  0.00    +0.000 A 
ATOM     29  C   UNL     1      -1.328  14.775  20.162  0.00  0.00    +0.000 A 
ATOM     30  C   UNL     1      -0.734  15.538  21.199  0.00  0.00    +0.000 A 
ATOM     31  C   UNL     1       0.612  15.255  21.173  0.00  0.00    +0.000 A 
ATOM     32  C   UNL     1       1.754  15.718  21.995  0.00  0.00    +0.000 C 
ATOM     33  O   UNL     1       0.879  14.354  20.178  0.00  0.00    +0.000 OA
ENDBRANCH  27  28
ENDBRANCH   3  27
TORSDOF 12
ENDMDL
