MODEL 1
REMARK VINA RESULT:      -6.7      0.000      0.000
REMARK  Name = 
REMARK  8 active torsions:
REMARK  status: ('A' for Active; 'I' for Inactive)
REMARK    1  A    between atoms: C_1  and  N_2
REMARK    2  A    between atoms: N_2  and  C_3
REMARK    3  A    between atoms: C_3  and  C_4
REMARK    4  A    between atoms: C_4  and  C_5
REMARK    5  A    between atoms: C_5  and  N_6
REMARK    6  A    between atoms: N_6  and  C_7
REMARK    7  A    between atoms: C_7  and  C_8
REMARK    8  A    between atoms: C_11  and  C_12
REMARK                            x       y       z     vdW  Elec       q    Type
REMARK                         _______ _______ _______ _____ _____    ______ ____
ROOT
ATOM      1  C   UNL     1       6.398   4.326  14.046  0.00  0.00    +0.000 A 
ATOM      2  C   UNL     1       7.359   4.913  14.839  0.00  0.00    +0.000 A 
ATOM      3  C   UNL     1       6.754   5.134  16.101  0.00  0.00    +0.000 A 
ATOM      4  C   UNL     1       5.448   4.694  16.003  0.00  0.00    +0.000 A 
ATOM      5  O   UNL     1       5.232   4.194  14.747  0.00  0.00    +0.000 OA
ENDROOT
BRANCH   4   6
ATOM      6  C   UNL     1       4.303   4.707  16.910  0.00  0.00    +0.000 A 
ATOM      7  C   UNL     1       3.897   5.882  17.567  0.00  0.00    +0.000 A 
ATOM      8  C   UNL     1       2.849   5.865  18.491  0.00  0.00    +0.000 A 
ATOM      9  C   UNL     1       2.189   4.671  18.762  0.00  0.00    +0.000 A 
ATOM     10  F   UNL     1       1.204   4.668  19.671  0.00  0.00    +0.000 F 
ATOM     11  C   UNL     1       2.556   3.501  18.106  0.00  0.00    +0.000 A 
ATOM     12 CL   UNL     1       1.750   2.015  18.438  0.00  0.00    +0.000 Cl
ATOM     13  C   UNL     1       3.601   3.519  17.178  0.00  0.00    +0.000 A 
ENDBRANCH   4   6
BRANCH   1  14
ATOM     14  C   UNL     1       6.391   3.871  12.626  0.00  0.00    +0.000 C 
BRANCH  14  15
ATOM     15  N   UNL     1       5.917   2.488  12.527  0.00  0.00    +0.000 NA
ATOM     16  H   UNL     1       6.718   1.862  12.449  0.00  0.00    +0.000 HD
BRANCH  15  17
ATOM     17  C   UNL     1       5.039   2.310  11.371  0.00  0.00    +0.000 C 
BRANCH  17  18
ATOM     18  C   UNL     1       4.246   3.594  11.106  0.00  0.00    +0.000 C 
BRANCH  18  19
ATOM     19  C   UNL     1       3.074   3.316  10.159  0.00  0.00    +0.000 C 
BRANCH  19  21
ATOM     20  C   UNL     1       2.024   5.128   8.972  0.00  0.00    +0.000 C 
ATOM     21  N   UNL     1       3.143   4.196   8.992  0.00  0.00    +0.000 NA
ATOM     22  H   UNL     1       4.020   4.719   9.003  0.00  0.00    +0.000 HD
ENDBRANCH  19  21
ENDBRANCH  18  19
ENDBRANCH  17  18
ENDBRANCH  15  17
ENDBRANCH  14  15
ENDBRANCH   1  14
TORSDOF 7
ENDMDL
MODEL 2
REMARK VINA RESULT:      -6.7      5.319      6.396
REMARK  Name = 
REMARK  8 active torsions:
REMARK  status: ('A' for Active; 'I' for Inactive)
REMARK    1  A    between atoms: C_1  and  N_2
REMARK    2  A    between atoms: N_2  and  C_3
REMARK    3  A    between atoms: C_3  and  C_4
REMARK    4  A    between atoms: C_4  and  C_5
REMARK    5  A    between atoms: C_5  and  N_6
REMARK    6  A    between atoms: N_6  and  C_7
REMARK    7  A    between atoms: C_7  and  C_8
REMARK    8  A    between atoms: C_11  and  C_12
REMARK                            x       y       z     vdW  Elec       q    Type
REMARK                         _______ _______ _______ _____ _____    ______ ____
ROOT
ATOM      1  C   UNL     1       4.638   4.457  18.690  0.00  0.00    +0.000 A 
ATOM      2  C   UNL     1       5.019   4.841  17.423  0.00  0.00    +0.000 A 
ATOM      3  C   UNL     1       4.366   6.071  17.165  0.00  0.00    +0.000 A 
ATOM      4  C   UNL     1       3.598   6.359  18.277  0.00  0.00    +0.000 A 
ATOM      5  O   UNL     1       3.771   5.374  19.213  0.00  0.00    +0.000 OA
ENDROOT
BRANCH   4   6
ATOM      6  C   UNL     1       2.653   7.422  18.610  0.00  0.00    +0.000 A 
ATOM      7  C   UNL     1       2.279   8.396  17.667  0.00  0.00    +0.000 A 
ATOM      8  C   UNL     1       1.434   9.452  18.020  0.00  0.00    +0.000 A 
ATOM      9  C   UNL     1       0.948   9.540  19.320  0.00  0.00    +0.000 A 
ATOM     10  F   UNL     1       0.161  10.575  19.646  0.00  0.00    +0.000 F 
ATOM     11  C   UNL     1       1.284   8.575  20.262  0.00  0.00    +0.000 A 
ATOM     12 CL   UNL     1       0.692   8.679  21.877  0.00  0.00    +0.000 Cl
ATOM     13  C   UNL     1       2.125   7.516  19.909  0.00  0.00    +0.000 A 
ENDBRANCH   4   6
BRANCH   1  14
ATOM     14  C   UNL     1       4.954   3.266  19.529  0.00  0.00    +0.000 C 
BRANCH  14  15
ATOM     15  N   UNL     1       3.808   2.353  19.584  0.00  0.00    +0.000 NA
ATOM     16  H   UNL     1       3.986   1.631  20.281  0.00  0.00    +0.000 HD
BRANCH  15  17
ATOM     17  C   UNL     1       3.561   1.733  18.283  0.00  0.00    +0.000 C 
BRANCH  17  18
ATOM     18  C   UNL     1       2.260   2.271  17.679  0.00  0.00    +0.000 C 
BRANCH  18  19
ATOM     19  C   UNL     1       1.198   2.456  18.767  0.00  0.00    +0.000 C 
BRANCH  19  21
ATOM     20  C   UNL     1       0.990   4.056  20.554  0.00  0.00    +0.000 C 
ATOM     21  N   UNL     1       1.061   3.872  19.111  0.00  0.00    +0.000 NA
ATOM     22  H   UNL     1       1.855   4.396  18.740  0.00  0.00    +0.000 HD
ENDBRANCH  19  21
ENDBRANCH  18  19
ENDBRANCH  17  18
ENDBRANCH  15  17
ENDBRANCH  14  15
ENDBRANCH   1  14
TORSDOF 7
ENDMDL
MODEL 3
REMARK VINA RESULT:      -6.5      5.043      6.645
REMARK  Name = 
REMARK  8 active torsions:
REMARK  status: ('A' for Active; 'I' for Inactive)
REMARK    1  A    between atoms: C_1  and  N_2
REMARK    2  A    between atoms: N_2  and  C_3
REMARK    3  A    between atoms: C_3  and  C_4
REMARK    4  A    between atoms: C_4  and  C_5
REMARK    5  A    between atoms: C_5  and  N_6
REMARK    6  A    between atoms: N_6  and  C_7
REMARK    7  A    between atoms: C_7  and  C_8
REMARK    8  A    between atoms: C_11  and  C_12
REMARK                            x       y       z     vdW  Elec       q    Type
REMARK                         _______ _______ _______ _____ _____    ______ ____
ROOT
ATOM      1  C   UNL     1       4.153   4.883  17.401  0.00  0.00    +0.000 A 
ATOM      2  C   UNL     1       4.997   5.770  16.770  0.00  0.00    +0.000 A 
ATOM      3  C   UNL     1       4.519   7.067  17.079  0.00  0.00    +0.000 A 
ATOM      4  C   UNL     1       3.392   6.902  17.861  0.00  0.00    +0.000 A 
ATOM      5  O   UNL     1       3.171   5.566  18.063  0.00  0.00    +0.000 OA
ENDROOT
BRANCH   4   6
ATOM      6  C   UNL     1       2.415   7.823  18.438  0.00  0.00    +0.000 A 
ATOM      7  C   UNL     1       1.793   8.817  17.661  0.00  0.00    +0.000 A 
ATOM      8  C   UNL     1       0.918   9.741  18.241  0.00  0.00    +0.000 A 
ATOM      9  C   UNL     1       0.652   9.674  19.604  0.00  0.00    +0.000 A 
ATOM     10  F   UNL     1      -0.168  10.586  20.147  0.00  0.00    +0.000 F 
ATOM     11  C   UNL     1       1.235   8.685  20.387  0.00  0.00    +0.000 A 
ATOM     12 CL   UNL     1       0.915   8.598  22.078  0.00  0.00    +0.000 Cl
ATOM     13  C   UNL     1       2.105   7.758  19.807  0.00  0.00    +0.000 A 
ENDBRANCH   4   6
BRANCH   1  14
ATOM     14  C   UNL     1       4.097   3.394  17.454  0.00  0.00    +0.000 C 
BRANCH  14  15
ATOM     15  N   UNL     1       3.189   2.947  18.515  0.00  0.00    +0.000 NA
ATOM     16  H   UNL     1       3.711   2.396  19.195  0.00  0.00    +0.000 HD
BRANCH  15  17
ATOM     17  C   UNL     1       2.092   2.148  17.971  0.00  0.00    +0.000 C 
BRANCH  17  18
ATOM     18  C   UNL     1       0.798   2.432  18.741  0.00  0.00    +0.000 C 
BRANCH  18  19
ATOM     19  C   UNL     1       1.109   2.812  20.193  0.00  0.00    +0.000 C 
BRANCH  19  21
ATOM     20  C   UNL     1       2.243   4.592  21.351  0.00  0.00    +0.000 C 
ATOM     21  N   UNL     1       1.271   4.261  20.316  0.00  0.00    +0.000 NA
ATOM     22  H   UNL     1       1.578   4.652  19.425  0.00  0.00    +0.000 HD
ENDBRANCH  19  21
ENDBRANCH  18  19
ENDBRANCH  17  18
ENDBRANCH  15  17
ENDBRANCH  14  15
ENDBRANCH   1  14
TORSDOF 7
ENDMDL
MODEL 4
REMARK VINA RESULT:      -6.5      4.459      7.105
REMARK  Name = 
REMARK  8 active torsions:
REMARK  status: ('A' for Active; 'I' for Inactive)
REMARK    1  A    between atoms: C_1  and  N_2
REMARK    2  A    between atoms: N_2  and  C_3
REMARK    3  A    between atoms: C_3  and  C_4
REMARK    4  A    between atoms: C_4  and  C_5
REMARK    5  A    between atoms: C_5  and  N_6
REMARK    6  A    between atoms: N_6  and  C_7
REMARK    7  A    between atoms: C_7  and  C_8
REMARK    8  A    between atoms: C_11  and  C_12
REMARK                            x       y       z     vdW  Elec       q    Type
REMARK                         _______ _______ _______ _____ _____    ______ ____
ROOT
ATOM      1  C   UNL     1       5.377   4.358  18.255  0.00  0.00    +0.000 A 
ATOM      2  C   UNL     1       6.454   5.118  18.657  0.00  0.00    +0.000 A 
ATOM      3  C   UNL     1       7.187   5.425  17.484  0.00  0.00    +0.000 A 
ATOM      4  C   UNL     1       6.534   4.813  16.432  0.00  0.00    +0.000 A 
ATOM      5  O   UNL     1       5.422   4.166  16.902  0.00  0.00    +0.000 OA
ENDROOT
BRANCH   4   6
ATOM      6  C   UNL     1       6.811   4.686  15.003  0.00  0.00    +0.000 A 
ATOM      7  C   UNL     1       7.805   5.457  14.374  0.00  0.00    +0.000 A 
ATOM      8  C   UNL     1       8.008   5.382  12.993  0.00  0.00    +0.000 A 
ATOM      9  C   UNL     1       7.222   4.528  12.227  0.00  0.00    +0.000 A 
ATOM     10  F   UNL     1       7.413   4.490  10.901  0.00  0.00    +0.000 F 
ATOM     11  C   UNL     1       6.250   3.738  12.830  0.00  0.00    +0.000 A 
ATOM     12 CL   UNL     1       5.268   2.680  11.889  0.00  0.00    +0.000 Cl
ATOM     13  C   UNL     1       6.050   3.808  14.211  0.00  0.00    +0.000 A 
ENDBRANCH   4   6
BRANCH   1  14
ATOM     14  C   UNL     1       4.256   3.711  18.995  0.00  0.00    +0.000 C 
BRANCH  14  15
ATOM     15  N   UNL     1       4.024   2.351  18.498  0.00  0.00    +0.000 NA
ATOM     16  H   UNL     1       4.836   2.045  17.963  0.00  0.00    +0.000 HD
BRANCH  15  17
ATOM     17  C   UNL     1       2.829   2.292  17.657  0.00  0.00    +0.000 C 
BRANCH  17  18
ATOM     18  C   UNL     1       1.730   3.189  18.235  0.00  0.00    +0.000 C 
BRANCH  18  19
ATOM     19  C   UNL     1       0.916   2.431  19.289  0.00  0.00    +0.000 C 
BRANCH  19  21
ATOM     20  C   UNL     1       1.512   2.759  21.598  0.00  0.00    +0.000 C 
ATOM     21  N   UNL     1       0.725   3.261  20.479  0.00  0.00    +0.000 NA
ATOM     22  H   UNL     1       0.997   4.223  20.277  0.00  0.00    +0.000 HD
ENDBRANCH  19  21
ENDBRANCH  18  19
ENDBRANCH  17  18
ENDBRANCH  15  17
ENDBRANCH  14  15
ENDBRANCH   1  14
TORSDOF 7
ENDMDL
MODEL 5
REMARK VINA RESULT:      -6.5      5.137      6.622
REMARK  Name = 
REMARK  8 active torsions:
REMARK  status: ('A' for Active; 'I' for Inactive)
REMARK    1  A    between atoms: C_1  and  N_2
REMARK    2  A    between atoms: N_2  and  C_3
REMARK    3  A    between atoms: C_3  and  C_4
REMARK    4  A    between atoms: C_4  and  C_5
REMARK    5  A    between atoms: C_5  and  N_6
REMARK    6  A    between atoms: N_6  and  C_7
REMARK    7  A    between atoms: C_7  and  C_8
REMARK    8  A    between atoms: C_11  and  C_12
REMARK                            x       y       z     vdW  Elec       q    Type
REMARK                         _______ _______ _______ _____ _____    ______ ____
ROOT
ATOM      1  C   UNL     1       4.173   4.675  17.707  0.00  0.00    +0.000 A 
ATOM      2  C   UNL     1       4.903   5.469  16.849  0.00  0.00    +0.000 A 
ATOM      3  C   UNL     1       4.413   6.788  17.012  0.00  0.00    +0.000 A 
ATOM      4  C   UNL     1       3.392   6.725  17.940  0.00  0.00    +0.000 A 
ATOM      5  O   UNL     1       3.250   5.433  18.371  0.00  0.00    +0.000 OA
ENDROOT
BRANCH   4   6
ATOM      6  C   UNL     1       2.452   7.704  18.483  0.00  0.00    +0.000 A 
ATOM      7  C   UNL     1       1.915   8.729  17.684  0.00  0.00    +0.000 A 
ATOM      8  C   UNL     1       1.078   9.706  18.233  0.00  0.00    +0.000 A 
ATOM      9  C   UNL     1       0.765   9.661  19.588  0.00  0.00    +0.000 A 
ATOM     10  F   UNL     1      -0.017  10.621  20.102  0.00  0.00    +0.000 F 
ATOM     11  C   UNL     1       1.265   8.643  20.391  0.00  0.00    +0.000 A 
ATOM     12 CL   UNL     1       0.888   8.582  22.072  0.00  0.00    +0.000 Cl
ATOM     13  C   UNL     1       2.097   7.664  19.842  0.00  0.00    +0.000 A 
ENDBRANCH   4   6
BRANCH   1  14
ATOM     14  C   UNL     1       4.184   3.212  17.994  0.00  0.00    +0.000 C 
BRANCH  14  15
ATOM     15  N   UNL     1       5.054   2.915  19.136  0.00  0.00    +0.000 NA
ATOM     16  H   UNL     1       5.715   2.184  18.875  0.00  0.00    +0.000 HD
BRANCH  15  17
ATOM     17  C   UNL     1       4.276   2.484  20.297  0.00  0.00    +0.000 C 
BRANCH  17  18
ATOM     18  C   UNL     1       2.849   2.121  19.873  0.00  0.00    +0.000 C 
BRANCH  18  19
ATOM     19  C   UNL     1       1.826   2.819  20.774  0.00  0.00    +0.000 C 
BRANCH  19  21
ATOM     20  C   UNL     1       0.568   3.099  18.741  0.00  0.00    +0.000 C 
ATOM     21  N   UNL     1       0.989   3.725  19.988  0.00  0.00    +0.000 NA
ATOM     22  H   UNL     1       0.166   3.993  20.528  0.00  0.00    +0.000 HD
ENDBRANCH  19  21
ENDBRANCH  18  19
ENDBRANCH  17  18
ENDBRANCH  15  17
ENDBRANCH  14  15
ENDBRANCH   1  14
TORSDOF 7
ENDMDL
MODEL 6
REMARK VINA RESULT:      -6.5      4.527      7.113
REMARK  Name = 
REMARK  8 active torsions:
REMARK  status: ('A' for Active; 'I' for Inactive)
REMARK    1  A    between atoms: C_1  and  N_2
REMARK    2  A    between atoms: N_2  and  C_3
REMARK    3  A    between atoms: C_3  and  C_4
REMARK    4  A    between atoms: C_4  and  C_5
REMARK    5  A    between atoms: C_5  and  N_6
REMARK    6  A    between atoms: N_6  and  C_7
REMARK    7  A    between atoms: C_7  and  C_8
REMARK    8  A    between atoms: C_11  and  C_12
REMARK                            x       y       z     vdW  Elec       q    Type
REMARK                         _______ _______ _______ _____ _____    ______ ____
ROOT
ATOM      1  C   UNL     1       4.900   5.238  17.985  0.00  0.00    +0.000 A 
ATOM      2  C   UNL     1       4.521   6.500  17.581  0.00  0.00    +0.000 A 
ATOM      3  C   UNL     1       4.862   6.600  16.210  0.00  0.00    +0.000 A 
ATOM      4  C   UNL     1       5.457   5.404  15.856  0.00  0.00    +0.000 A 
ATOM      5  O   UNL     1       5.474   4.568  16.940  0.00  0.00    +0.000 OA
ENDROOT
BRANCH   4   6
ATOM      6  C   UNL     1       6.082   4.906  14.633  0.00  0.00    +0.000 A 
ATOM      7  C   UNL     1       7.336   5.375  14.204  0.00  0.00    +0.000 A 
ATOM      8  C   UNL     1       7.888   4.947  12.993  0.00  0.00    +0.000 A 
ATOM      9  C   UNL     1       7.193   4.039  12.202  0.00  0.00    +0.000 A 
ATOM     10  F   UNL     1       7.726   3.662  11.031  0.00  0.00    +0.000 F 
ATOM     11  C   UNL     1       5.962   3.543  12.617  0.00  0.00    +0.000 A 
ATOM     12 CL   UNL     1       5.090   2.422  11.642  0.00  0.00    +0.000 Cl
ATOM     13  C   UNL     1       5.412   3.966  13.830  0.00  0.00    +0.000 A 
ENDBRANCH   4   6
BRANCH   1  14
ATOM     14  C   UNL     1       4.837   4.528  19.294  0.00  0.00    +0.000 C 
BRANCH  14  15
ATOM     15  N   UNL     1       5.221   3.121  19.139  0.00  0.00    +0.000 NA
ATOM     16  H   UNL     1       5.417   2.931  18.157  0.00  0.00    +0.000 HD
BRANCH  15  17
ATOM     17  C   UNL     1       4.164   2.229  19.612  0.00  0.00    +0.000 C 
BRANCH  17  18
ATOM     18  C   UNL     1       3.028   2.163  18.586  0.00  0.00    +0.000 C 
BRANCH  18  19
ATOM     19  C   UNL     1       1.681   1.961  19.288  0.00  0.00    +0.000 C 
BRANCH  19  21
ATOM     20  C   UNL     1       1.028   4.046  20.301  0.00  0.00    +0.000 C 
ATOM     21  N   UNL     1       1.630   2.738  20.527  0.00  0.00    +0.000 NA
ATOM     22  H   UNL     1       1.090   2.233  21.231  0.00  0.00    +0.000 HD
ENDBRANCH  19  21
ENDBRANCH  18  19
ENDBRANCH  17  18
ENDBRANCH  15  17
ENDBRANCH  14  15
ENDBRANCH   1  14
TORSDOF 7
ENDMDL
MODEL 7
REMARK VINA RESULT:      -6.5      6.997      8.890
REMARK  Name = 
REMARK  8 active torsions:
REMARK  status: ('A' for Active; 'I' for Inactive)
REMARK    1  A    between atoms: C_1  and  N_2
REMARK    2  A    between atoms: N_2  and  C_3
REMARK    3  A    between atoms: C_3  and  C_4
REMARK    4  A    between atoms: C_4  and  C_5
REMARK    5  A    between atoms: C_5  and  N_6
REMARK    6  A    between atoms: N_6  and  C_7
REMARK    7  A    between atoms: C_7  and  C_8
REMARK    8  A    between atoms: C_11  and  C_12
REMARK                            x       y       z     vdW  Elec       q    Type
REMARK                         _______ _______ _______ _____ _____    ______ ____
ROOT
ATOM      1  C   UNL     1       7.917   7.000  18.519  0.00  0.00    +0.000 A 
ATOM      2  C   UNL     1       7.243   7.554  17.453  0.00  0.00    +0.000 A 
ATOM      3  C   UNL     1       7.676   8.899  17.362  0.00  0.00    +0.000 A 
ATOM      4  C   UNL     1       8.571   9.103  18.395  0.00  0.00    +0.000 A 
ATOM      5  O   UNL     1       8.723   7.939  19.098  0.00  0.00    +0.000 OA
ENDROOT
BRANCH   4   6
ATOM      6  C   UNL     1       9.304  10.268  18.885  0.00  0.00    +0.000 A 
ATOM      7  C   UNL     1       9.387  10.560  20.259  0.00  0.00    +0.000 A 
ATOM      8  C   UNL     1      10.026  11.719  20.710  0.00  0.00    +0.000 A 
ATOM      9  C   UNL     1      10.596  12.593  19.791  0.00  0.00    +0.000 A 
ATOM     10  F   UNL     1      11.181  13.712  20.242  0.00  0.00    +0.000 F 
ATOM     11  C   UNL     1      10.548  12.312  18.431  0.00  0.00    +0.000 A 
ATOM     12 CL   UNL     1      11.246  13.392  17.284  0.00  0.00    +0.000 Cl
ATOM     13  C   UNL     1       9.914  11.152  17.979  0.00  0.00    +0.000 A 
ENDBRANCH   4   6
BRANCH   1  14
ATOM     14  C   UNL     1       7.895   5.646  19.143  0.00  0.00    +0.000 C 
BRANCH  14  15
ATOM     15  N   UNL     1       6.899   4.790  18.490  0.00  0.00    +0.000 NA
ATOM     16  H   UNL     1       6.778   5.091  17.524  0.00  0.00    +0.000 HD
BRANCH  15  17
ATOM     17  C   UNL     1       5.615   4.844  19.188  0.00  0.00    +0.000 C 
BRANCH  17  18
ATOM     18  C   UNL     1       4.510   5.297  18.229  0.00  0.00    +0.000 C 
BRANCH  18  19
ATOM     19  C   UNL     1       3.825   4.085  17.588  0.00  0.00    +0.000 C 
BRANCH  19  21
ATOM     20  C   UNL     1       3.486   1.821  18.333  0.00  0.00    +0.000 C 
ATOM     21  N   UNL     1       4.473   2.846  18.019  0.00  0.00    +0.000 NA
ATOM     22  H   UNL     1       5.093   2.506  17.284  0.00  0.00    +0.000 HD
ENDBRANCH  19  21
ENDBRANCH  18  19
ENDBRANCH  17  18
ENDBRANCH  15  17
ENDBRANCH  14  15
ENDBRANCH   1  14
TORSDOF 7
ENDMDL
MODEL 8
REMARK VINA RESULT:      -6.4      5.370      7.012
REMARK  Name = 
REMARK  8 active torsions:
REMARK  status: ('A' for Active; 'I' for Inactive)
REMARK    1  A    between atoms: C_1  and  N_2
REMARK    2  A    between atoms: N_2  and  C_3
REMARK    3  A    between atoms: C_3  and  C_4
REMARK    4  A    between atoms: C_4  and  C_5
REMARK    5  A    between atoms: C_5  and  N_6
REMARK    6  A    between atoms: N_6  and  C_7
REMARK    7  A    between atoms: C_7  and  C_8
REMARK    8  A    between atoms: C_11  and  C_12
REMARK                            x       y       z     vdW  Elec       q    Type
REMARK                         _______ _______ _______ _____ _____    ______ ____
ROOT
ATOM      1  C   UNL     1       3.995   5.103  18.450  0.00  0.00    +0.000 A 
ATOM      2  C   UNL     1       4.246   5.841  17.314  0.00  0.00    +0.000 A 
ATOM      3  C   UNL     1       3.570   7.075  17.480  0.00  0.00    +0.000 A 
ATOM      4  C   UNL     1       2.919   7.014  18.698  0.00  0.00    +0.000 A 
ATOM      5  O   UNL     1       3.185   5.810  19.293  0.00  0.00    +0.000 OA
ENDROOT
BRANCH   4   6
ATOM      6  C   UNL     1       2.012   7.911  19.408  0.00  0.00    +0.000 A 
ATOM      7  C   UNL     1       1.594   7.645  20.725  0.00  0.00    +0.000 A 
ATOM      8  C   UNL     1       0.665   8.470  21.366  0.00  0.00    +0.000 A 
ATOM      9  C   UNL     1       0.151   9.576  20.698  0.00  0.00    +0.000 A 
ATOM     10  F   UNL     1      -0.759  10.340  21.320  0.00  0.00    +0.000 F 
ATOM     11  C   UNL     1       0.568   9.874  19.406  0.00  0.00    +0.000 A 
ATOM     12 CL   UNL     1      -0.068  11.238  18.568  0.00  0.00    +0.000 Cl
ATOM     13  C   UNL     1       1.500   9.052  18.766  0.00  0.00    +0.000 A 
ENDBRANCH   4   6
BRANCH   1  14
ATOM     14  C   UNL     1       4.394   3.733  18.880  0.00  0.00    +0.000 C 
BRANCH  14  15
ATOM     15  N   UNL     1       4.245   2.779  17.777  0.00  0.00    +0.000 NA
ATOM     16  H   UNL     1       4.438   3.251  16.895  0.00  0.00    +0.000 HD
BRANCH  15  17
ATOM     17  C   UNL     1       2.898   2.209  17.747  0.00  0.00    +0.000 C 
BRANCH  17  18
ATOM     18  C   UNL     1       2.315   2.156  19.163  0.00  0.00    +0.000 C 
BRANCH  18  19
ATOM     19  C   UNL     1       0.899   2.741  19.184  0.00  0.00    +0.000 C 
BRANCH  19  21
ATOM     20  C   UNL     1       1.682   3.040  21.440  0.00  0.00    +0.000 C 
ATOM     21  N   UNL     1       0.599   3.301  20.502  0.00  0.00    +0.000 NA
ATOM     22  H   UNL     1       0.452   4.308  20.424  0.00  0.00    +0.000 HD
ENDBRANCH  19  21
ENDBRANCH  18  19
ENDBRANCH  17  18
ENDBRANCH  15  17
ENDBRANCH  14  15
ENDBRANCH   1  14
TORSDOF 7
ENDMDL
MODEL 9
REMARK VINA RESULT:      -6.4      4.376      6.291
REMARK  Name = 
REMARK  8 active torsions:
REMARK  status: ('A' for Active; 'I' for Inactive)
REMARK    1  A    between atoms: C_1  and  N_2
REMARK    2  A    between atoms: N_2  and  C_3
REMARK    3  A    between atoms: C_3  and  C_4
REMARK    4  A    between atoms: C_4  and  C_5
REMARK    5  A    between atoms: C_5  and  N_6
REMARK    6  A    between atoms: N_6  and  C_7
REMARK    7  A    between atoms: C_7  and  C_8
REMARK    8  A    between atoms: C_11  and  C_12
REMARK                            x       y       z     vdW  Elec       q    Type
REMARK                         _______ _______ _______ _____ _____    ______ ____
ROOT
ATOM      1  C   UNL     1       4.385   4.686  18.757  0.00  0.00    +0.000 A 
ATOM      2  C   UNL     1       3.434   4.129  17.930  0.00  0.00    +0.000 A 
ATOM      3  C   UNL     1       2.421   5.105  17.770  0.00  0.00    +0.000 A 
ATOM      4  C   UNL     1       2.793   6.197  18.531  0.00  0.00    +0.000 A 
ATOM      5  O   UNL     1       3.998   5.943  19.129  0.00  0.00    +0.000 OA
ENDROOT
BRANCH   4   6
ATOM      6  C   UNL     1       2.162   7.478  18.844  0.00  0.00    +0.000 A 
ATOM      7  C   UNL     1       1.980   8.468  17.862  0.00  0.00    +0.000 A 
ATOM      8  C   UNL     1       1.445   9.717  18.191  0.00  0.00    +0.000 A 
ATOM      9  C   UNL     1       1.080   9.985  19.506  0.00  0.00    +0.000 A 
ATOM     10  F   UNL     1       0.595  11.198  19.807  0.00  0.00    +0.000 F 
ATOM     11  C   UNL     1       1.228   9.013  20.489  0.00  0.00    +0.000 A 
ATOM     12 CL   UNL     1       0.784   9.337  22.122  0.00  0.00    +0.000 Cl
ATOM     13  C   UNL     1       1.757   7.762  20.160  0.00  0.00    +0.000 A 
ENDBRANCH   4   6
BRANCH   1  14
ATOM     14  C   UNL     1       5.668   4.177  19.319  0.00  0.00    +0.000 C 
BRANCH  14  15
ATOM     15  N   UNL     1       6.560   5.288  19.664  0.00  0.00    +0.000 NA
ATOM     16  H   UNL     1       6.012   6.140  19.768  0.00  0.00    +0.000 HD
BRANCH  15  17
ATOM     17  C   UNL     1       7.584   5.482  18.638  0.00  0.00    +0.000 C 
BRANCH  17  18
ATOM     18  C   UNL     1       7.295   6.754  17.835  0.00  0.00    +0.000 C 
BRANCH  18  19
ATOM     19  C   UNL     1       6.646   6.406  16.492  0.00  0.00    +0.000 C 
BRANCH  19  21
ATOM     20  C   UNL     1       6.734   4.526  14.991  0.00  0.00    +0.000 C 
ATOM     21  N   UNL     1       7.515   5.517  15.721  0.00  0.00    +0.000 NA
ATOM     22  H   UNL     1       8.072   6.063  15.063  0.00  0.00    +0.000 HD
ENDBRANCH  19  21
ENDBRANCH  18  19
ENDBRANCH  17  18
ENDBRANCH  15  17
ENDBRANCH  14  15
ENDBRANCH   1  14
TORSDOF 7
ENDMDL
