MODEL 1
REMARK VINA RESULT:      -8.2      0.000      0.000
REMARK  Name = 
REMARK  11 active torsions:
REMARK  status: ('A' for Active; 'I' for Inactive)
REMARK    1  A    between atoms: C_1  and  O_2
REMARK    2  A    between atoms: O_2  and  C_3
REMARK    3  A    between atoms: C_3  and  C_5
REMARK    4  A    between atoms: C_5  and  N_6
REMARK    5  A    between atoms: C_5  and  C_22
REMARK    6  A    between atoms: C_7  and  C_9
REMARK    7  A    between atoms: C_10  and  C_11
REMARK    8  A    between atoms: C_12  and  C_13
REMARK    9  A    between atoms: C_22  and  C_23
REMARK   10  A    between atoms: C_22  and  C_24
REMARK   11  A    between atoms: C_22  and  C_25
REMARK                            x       y       z     vdW  Elec       q    Type
REMARK                         _______ _______ _______ _____ _____    ______ ____
ROOT
ATOM      1  N   UNL     1       5.766   5.953  18.247  0.00  0.00    +0.000 N 
ATOM      2  C   UNL     1       7.098   5.655  18.393  0.00  0.00    +0.000 C 
ATOM      3  O   UNL     1       7.540   4.515  18.453  0.00  0.00    +0.000 OA
ATOM      4  H   UNL     1       5.473   6.907  18.070  0.00  0.00    +0.000 HD
ENDROOT
BRANCH   2   5
ATOM      5  C   UNL     1       7.967   6.857  18.507  0.00  0.00    +0.000 C 
ATOM      6  C   UNL     1       7.640   7.985  17.854  0.00  0.00    +0.000 C 
BRANCH   6   7
ATOM      7  C   UNL     1       8.471   9.175  17.856  0.00  0.00    +0.000 C 
ATOM      8  C   UNL     1       9.005   9.699  18.972  0.00  0.00    +0.000 C 
BRANCH   8   9
ATOM      9  C   UNL     1       9.812  10.935  19.010  0.00  0.00    +0.000 A 
ATOM     10  C   UNL     1      10.277  11.484  20.228  0.00  0.00    +0.000 A 
ATOM     11  C   UNL     1      11.062  12.642  20.252  0.00  0.00    +0.000 A 
ATOM     12  C   UNL     1      11.380  13.226  19.048  0.00  0.00    +0.000 A 
ATOM     13  C   UNL     1      10.955  12.693  17.855  0.00  0.00    +0.000 A 
ATOM     14  C   UNL     1      10.182  11.549  17.801  0.00  0.00    +0.000 A 
ATOM     15  O   UNL     1      11.386  13.416  16.787  0.00  0.00    +0.000 OA
ATOM     16  C   UNL     1      12.089  14.490  17.448  0.00  0.00    +0.000 C 
ATOM     17  O   UNL     1      12.125  14.352  18.883  0.00  0.00    +0.000 OA
ENDBRANCH   8   9
ENDBRANCH   6   7
ENDBRANCH   2   5
BRANCH   1  18
ATOM     18  C   UNL     1       4.735   4.907  18.125  0.00  0.00    +0.000 C 
BRANCH  18  19
ATOM     19  C   UNL     1       3.310   5.448  18.475  0.00  0.00    +0.000 C 
ATOM     20  C   UNL     1       3.057   5.368  19.995  0.00  0.00    +0.000 C 
ATOM     21  C   UNL     1       3.199   6.933  18.067  0.00  0.00    +0.000 C 
ATOM     22  C   UNL     1       2.195   4.664  17.757  0.00  0.00    +0.000 C 
ENDBRANCH  18  19
BRANCH  18  23
ATOM     23  C   UNL     1       4.819   4.329  16.701  0.00  0.00    +0.000 C 
ATOM     24  O   UNL     1       4.758   3.133  16.436  0.00  0.00    +0.000 OA
BRANCH  23  26
ATOM     25  C   UNL     1       6.040   5.044  14.825  0.00  0.00    +0.000 C 
ATOM     26  O   UNL     1       5.024   5.322  15.789  0.00  0.00    +0.000 OA
ENDBRANCH  23  26
ENDBRANCH  18  23
ENDBRANCH   1  18
TORSDOF 7
ENDMDL
MODEL 2
REMARK VINA RESULT:      -7.9      0.981      1.486
REMARK  Name = 
REMARK  11 active torsions:
REMARK  status: ('A' for Active; 'I' for Inactive)
REMARK    1  A    between atoms: C_1  and  O_2
REMARK    2  A    between atoms: O_2  and  C_3
REMARK    3  A    between atoms: C_3  and  C_5
REMARK    4  A    between atoms: C_5  and  N_6
REMARK    5  A    between atoms: C_5  and  C_22
REMARK    6  A    between atoms: C_7  and  C_9
REMARK    7  A    between atoms: C_10  and  C_11
REMARK    8  A    between atoms: C_12  and  C_13
REMARK    9  A    between atoms: C_22  and  C_23
REMARK   10  A    between atoms: C_22  and  C_24
REMARK   11  A    between atoms: C_22  and  C_25
REMARK                            x       y       z     vdW  Elec       q    Type
REMARK                         _______ _______ _______ _____ _____    ______ ____
ROOT
ATOM      1  N   UNL     1       6.249   5.894  17.766  0.00  0.00    +0.000 N 
ATOM      2  C   UNL     1       7.510   5.578  18.204  0.00  0.00    +0.000 C 
ATOM      3  O   UNL     1       8.007   4.463  18.112  0.00  0.00    +0.000 OA
ATOM      4  H   UNL     1       5.942   6.860  17.746  0.00  0.00    +0.000 HD
ENDROOT
BRANCH   2   5
ATOM      5  C   UNL     1       8.221   6.720  18.841  0.00  0.00    +0.000 C 
ATOM      6  C   UNL     1       8.140   7.946  18.299  0.00  0.00    +0.000 C 
BRANCH   6   7
ATOM      7  C   UNL     1       8.860   9.095  18.818  0.00  0.00    +0.000 C 
ATOM      8  C   UNL     1       8.943  10.268  18.168  0.00  0.00    +0.000 C 
BRANCH   8   9
ATOM      9  C   UNL     1       9.710  11.435  18.647  0.00  0.00    +0.000 A 
ATOM     10  C   UNL     1      10.015  11.615  20.017  0.00  0.00    +0.000 A 
ATOM     11  C   UNL     1      10.764  12.712  20.459  0.00  0.00    +0.000 A 
ATOM     12  C   UNL     1      11.208  13.606  19.514  0.00  0.00    +0.000 A 
ATOM     13  C   UNL     1      10.939  13.435  18.177  0.00  0.00    +0.000 A 
ATOM     14  C   UNL     1      10.206  12.359  17.712  0.00  0.00    +0.000 A 
ATOM     15  O   UNL     1      11.477  14.424  17.413  0.00  0.00    +0.000 OA
ATOM     16  C   UNL     1      12.071  15.261  18.429  0.00  0.00    +0.000 C 
ATOM     17  O   UNL     1      11.940  14.726  19.761  0.00  0.00    +0.000 OA
ENDBRANCH   8   9
ENDBRANCH   6   7
ENDBRANCH   2   5
BRANCH   1  18
ATOM     18  C   UNL     1       5.373   4.905  17.113  0.00  0.00    +0.000 C 
BRANCH  18  19
ATOM     19  C   UNL     1       3.980   4.804  17.817  0.00  0.00    +0.000 C 
ATOM     20  C   UNL     1       3.082   3.775  17.098  0.00  0.00    +0.000 C 
ATOM     21  C   UNL     1       4.163   4.320  19.272  0.00  0.00    +0.000 C 
ATOM     22  C   UNL     1       3.241   6.156  17.846  0.00  0.00    +0.000 C 
ENDBRANCH  18  19
BRANCH  18  23
ATOM     23  C   UNL     1       5.262   5.285  15.626  0.00  0.00    +0.000 C 
ATOM     24  O   UNL     1       5.167   6.436  15.212  0.00  0.00    +0.000 OA
BRANCH  23  26
ATOM     25  C   UNL     1       6.332   4.040  13.945  0.00  0.00    +0.000 C 
ATOM     26  O   UNL     1       5.230   4.169  14.844  0.00  0.00    +0.000 OA
ENDBRANCH  23  26
ENDBRANCH  18  23
ENDBRANCH   1  18
TORSDOF 7
ENDMDL
MODEL 3
REMARK VINA RESULT:      -7.7      1.334      1.594
REMARK  Name = 
REMARK  11 active torsions:
REMARK  status: ('A' for Active; 'I' for Inactive)
REMARK    1  A    between atoms: C_1  and  O_2
REMARK    2  A    between atoms: O_2  and  C_3
REMARK    3  A    between atoms: C_3  and  C_5
REMARK    4  A    between atoms: C_5  and  N_6
REMARK    5  A    between atoms: C_5  and  C_22
REMARK    6  A    between atoms: C_7  and  C_9
REMARK    7  A    between atoms: C_10  and  C_11
REMARK    8  A    between atoms: C_12  and  C_13
REMARK    9  A    between atoms: C_22  and  C_23
REMARK   10  A    between atoms: C_22  and  C_24
REMARK   11  A    between atoms: C_22  and  C_25
REMARK                            x       y       z     vdW  Elec       q    Type
REMARK                         _______ _______ _______ _____ _____    ______ ____
ROOT
ATOM      1  N   UNL     1       6.415   6.246  17.531  0.00  0.00    +0.000 N 
ATOM      2  C   UNL     1       7.539   6.169  18.315  0.00  0.00    +0.000 C 
ATOM      3  O   UNL     1       8.004   5.120  18.742  0.00  0.00    +0.000 OA
ATOM      4  H   UNL     1       6.154   7.124  17.097  0.00  0.00    +0.000 HD
ENDROOT
BRANCH   2   5
ATOM      5  C   UNL     1       8.133   7.496  18.633  0.00  0.00    +0.000 C 
ATOM      6  C   UNL     1       7.884   8.550  17.838  0.00  0.00    +0.000 C 
BRANCH   6   7
ATOM      7  C   UNL     1       8.483   9.857  18.039  0.00  0.00    +0.000 C 
ATOM      8  C   UNL     1       9.550  10.065  18.828  0.00  0.00    +0.000 C 
BRANCH   8   9
ATOM      9  C   UNL     1      10.148  11.389  19.090  0.00  0.00    +0.000 A 
ATOM     10  C   UNL     1      11.474  11.527  19.565  0.00  0.00    +0.000 A 
ATOM     11  C   UNL     1      12.041  12.788  19.787  0.00  0.00    +0.000 A 
ATOM     12  C   UNL     1      11.270  13.893  19.514  0.00  0.00    +0.000 A 
ATOM     13  C   UNL     1       9.989  13.777  19.032  0.00  0.00    +0.000 A 
ATOM     14  C   UNL     1       9.405  12.546  18.799  0.00  0.00    +0.000 A 
ATOM     15  O   UNL     1       9.407  14.989  18.820  0.00  0.00    +0.000 OA
ATOM     16  C   UNL     1      10.453  15.877  19.272  0.00  0.00    +0.000 C 
ATOM     17  O   UNL     1      11.654  15.188  19.675  0.00  0.00    +0.000 OA
ENDBRANCH   8   9
ENDBRANCH   6   7
ENDBRANCH   2   5
BRANCH   1  18
ATOM     18  C   UNL     1       5.668   5.048  17.108  0.00  0.00    +0.000 C 
BRANCH  18  19
ATOM     19  C   UNL     1       4.307   4.911  17.865  0.00  0.00    +0.000 C 
ATOM     20  C   UNL     1       4.536   4.413  19.308  0.00  0.00    +0.000 C 
ATOM     21  C   UNL     1       3.617   6.289  17.957  0.00  0.00    +0.000 C 
ATOM     22  C   UNL     1       3.344   3.933  17.163  0.00  0.00    +0.000 C 
ENDBRANCH  18  19
BRANCH  18  23
ATOM     23  C   UNL     1       5.495   5.119  15.580  0.00  0.00    +0.000 C 
ATOM     24  O   UNL     1       5.231   6.144  14.961  0.00  0.00    +0.000 OA
BRANCH  23  26
ATOM     25  C   UNL     1       6.215   3.870  13.724  0.00  0.00    +0.000 C 
ATOM     26  O   UNL     1       5.622   3.880  15.023  0.00  0.00    +0.000 OA
ENDBRANCH  23  26
ENDBRANCH  18  23
ENDBRANCH   1  18
TORSDOF 7
ENDMDL
MODEL 4
REMARK VINA RESULT:      -7.7      0.963      1.203
REMARK  Name = 
REMARK  11 active torsions:
REMARK  status: ('A' for Active; 'I' for Inactive)
REMARK    1  A    between atoms: C_1  and  O_2
REMARK    2  A    between atoms: O_2  and  C_3
REMARK    3  A    between atoms: C_3  and  C_5
REMARK    4  A    between atoms: C_5  and  N_6
REMARK    5  A    between atoms: C_5  and  C_22
REMARK    6  A    between atoms: C_7  and  C_9
REMARK    7  A    between atoms: C_10  and  C_11
REMARK    8  A    between atoms: C_12  and  C_13
REMARK    9  A    between atoms: C_22  and  C_23
REMARK   10  A    between atoms: C_22  and  C_24
REMARK   11  A    between atoms: C_22  and  C_25
REMARK                            x       y       z     vdW  Elec       q    Type
REMARK                         _______ _______ _______ _____ _____    ______ ____
ROOT
ATOM      1  N   UNL     1       6.151   6.264  17.862  0.00  0.00    +0.000 N 
ATOM      2  C   UNL     1       7.495   6.110  18.094  0.00  0.00    +0.000 C 
ATOM      3  O   UNL     1       8.083   5.038  18.019  0.00  0.00    +0.000 OA
ATOM      4  H   UNL     1       5.746   7.191  17.807  0.00  0.00    +0.000 HD
ENDROOT
BRANCH   2   5
ATOM      5  C   UNL     1       8.180   7.373  18.482  0.00  0.00    +0.000 C 
ATOM      6  C   UNL     1       7.958   8.497  17.783  0.00  0.00    +0.000 C 
BRANCH   6   7
ATOM      7  C   UNL     1       8.641   9.750  18.053  0.00  0.00    +0.000 C 
ATOM      8  C   UNL     1       9.140  10.072  19.258  0.00  0.00    +0.000 C 
BRANCH   8   9
ATOM      9  C   UNL     1       9.794  11.358  19.573  0.00  0.00    +0.000 A 
ATOM     10  C   UNL     1       9.687  11.954  20.851  0.00  0.00    +0.000 A 
ATOM     11  C   UNL     1      10.332  13.161  21.149  0.00  0.00    +0.000 A 
ATOM     12  C   UNL     1      11.086  13.745  20.158  0.00  0.00    +0.000 A 
ATOM     13  C   UNL     1      11.218  13.168  18.918  0.00  0.00    +0.000 A 
ATOM     14  C   UNL     1      10.597  11.975  18.598  0.00  0.00    +0.000 A 
ATOM     15  O   UNL     1      12.013  13.900  18.092  0.00  0.00    +0.000 OA
ATOM     16  C   UNL     1      12.324  15.027  18.940  0.00  0.00    +0.000 C 
ATOM     17  O   UNL     1      11.773  14.914  20.267  0.00  0.00    +0.000 OA
ENDBRANCH   8   9
ENDBRANCH   6   7
ENDBRANCH   2   5
BRANCH   1  18
ATOM     18  C   UNL     1       5.285   5.137  17.474  0.00  0.00    +0.000 C 
BRANCH  18  19
ATOM     19  C   UNL     1       3.854   5.260  18.092  0.00  0.00    +0.000 C 
ATOM     20  C   UNL     1       3.888   4.959  19.605  0.00  0.00    +0.000 C 
ATOM     21  C   UNL     1       3.332   6.703  17.920  0.00  0.00    +0.000 C 
ATOM     22  C   UNL     1       2.848   4.299  17.429  0.00  0.00    +0.000 C 
ENDBRANCH  18  19
BRANCH  18  23
ATOM     23  C   UNL     1       5.267   5.067  15.936  0.00  0.00    +0.000 C 
ATOM     24  O   UNL     1       4.986   6.011  15.206  0.00  0.00    +0.000 OA
BRANCH  23  26
ATOM     25  C   UNL     1       6.213   3.740  14.245  0.00  0.00    +0.000 C 
ATOM     26  O   UNL     1       5.550   3.804  15.508  0.00  0.00    +0.000 OA
ENDBRANCH  23  26
ENDBRANCH  18  23
ENDBRANCH   1  18
TORSDOF 7
ENDMDL
MODEL 5
REMARK VINA RESULT:      -7.6      2.149      2.866
REMARK  Name = 
REMARK  11 active torsions:
REMARK  status: ('A' for Active; 'I' for Inactive)
REMARK    1  A    between atoms: C_1  and  O_2
REMARK    2  A    between atoms: O_2  and  C_3
REMARK    3  A    between atoms: C_3  and  C_5
REMARK    4  A    between atoms: C_5  and  N_6
REMARK    5  A    between atoms: C_5  and  C_22
REMARK    6  A    between atoms: C_7  and  C_9
REMARK    7  A    between atoms: C_10  and  C_11
REMARK    8  A    between atoms: C_12  and  C_13
REMARK    9  A    between atoms: C_22  and  C_23
REMARK   10  A    between atoms: C_22  and  C_24
REMARK   11  A    between atoms: C_22  and  C_25
REMARK                            x       y       z     vdW  Elec       q    Type
REMARK                         _______ _______ _______ _____ _____    ______ ____
ROOT
ATOM      1  N   UNL     1       6.584   7.195  16.972  0.00  0.00    +0.000 N 
ATOM      2  C   UNL     1       7.608   7.497  17.833  0.00  0.00    +0.000 C 
ATOM      3  O   UNL     1       8.087   6.703  18.633  0.00  0.00    +0.000 OA
ATOM      4  H   UNL     1       6.320   7.848  16.243  0.00  0.00    +0.000 HD
ENDROOT
BRANCH   2   5
ATOM      5  C   UNL     1       8.073   8.908  17.732  0.00  0.00    +0.000 C 
ATOM      6  C   UNL     1       8.848   9.429  18.697  0.00  0.00    +0.000 C 
BRANCH   6   7
ATOM      7  C   UNL     1       9.282  10.814  18.708  0.00  0.00    +0.000 C 
ATOM      8  C   UNL     1       8.793  11.746  17.873  0.00  0.00    +0.000 C 
BRANCH   8   9
ATOM      9  C   UNL     1       9.250  13.149  17.828  0.00  0.00    +0.000 A 
ATOM     10  C   UNL     1      10.557  13.493  17.410  0.00  0.00    +0.000 A 
ATOM     11  C   UNL     1      10.975  14.828  17.347  0.00  0.00    +0.000 A 
ATOM     12  C   UNL     1      10.065  15.800  17.692  0.00  0.00    +0.000 A 
ATOM     13  C   UNL     1       8.785  15.484  18.079  0.00  0.00    +0.000 A 
ATOM     14  C   UNL     1       8.345  14.175  18.146  0.00  0.00    +0.000 A 
ATOM     15  O   UNL     1       8.047  16.590  18.366  0.00  0.00    +0.000 OA
ATOM     16  C   UNL     1       9.025  17.632  18.163  0.00  0.00    +0.000 C 
ATOM     17  O   UNL     1      10.297  17.140  17.694  0.00  0.00    +0.000 OA
ENDBRANCH   8   9
ENDBRANCH   6   7
ENDBRANCH   2   5
BRANCH   1  18
ATOM     18  C   UNL     1       5.973   5.856  16.917  0.00  0.00    +0.000 C 
BRANCH  18  19
ATOM     19  C   UNL     1       4.637   5.789  17.728  0.00  0.00    +0.000 C 
ATOM     20  C   UNL     1       3.743   4.644  17.207  0.00  0.00    +0.000 C 
ATOM     21  C   UNL     1       4.941   5.497  19.213  0.00  0.00    +0.000 C 
ATOM     22  C   UNL     1       3.838   7.104  17.646  0.00  0.00    +0.000 C 
ENDBRANCH  18  19
BRANCH  18  23
ATOM     23  C   UNL     1       5.788   5.484  15.434  0.00  0.00    +0.000 C 
ATOM     24  O   UNL     1       5.296   6.229  14.592  0.00  0.00    +0.000 OA
BRANCH  23  26
ATOM     25  C   UNL     1       6.189   3.816  13.830  0.00  0.00    +0.000 C 
ATOM     26  O   UNL     1       6.194   4.203  15.204  0.00  0.00    +0.000 OA
ENDBRANCH  23  26
ENDBRANCH  18  23
ENDBRANCH   1  18
TORSDOF 7
ENDMDL
MODEL 6
REMARK VINA RESULT:      -7.6      1.568      2.610
REMARK  Name = 
REMARK  11 active torsions:
REMARK  status: ('A' for Active; 'I' for Inactive)
REMARK    1  A    between atoms: C_1  and  O_2
REMARK    2  A    between atoms: O_2  and  C_3
REMARK    3  A    between atoms: C_3  and  C_5
REMARK    4  A    between atoms: C_5  and  N_6
REMARK    5  A    between atoms: C_5  and  C_22
REMARK    6  A    between atoms: C_7  and  C_9
REMARK    7  A    between atoms: C_10  and  C_11
REMARK    8  A    between atoms: C_12  and  C_13
REMARK    9  A    between atoms: C_22  and  C_23
REMARK   10  A    between atoms: C_22  and  C_24
REMARK   11  A    between atoms: C_22  and  C_25
REMARK                            x       y       z     vdW  Elec       q    Type
REMARK                         _______ _______ _______ _____ _____    ______ ____
ROOT
ATOM      1  N   UNL     1       6.581   7.145  17.095  0.00  0.00    +0.000 N 
ATOM      2  C   UNL     1       7.627   7.432  17.937  0.00  0.00    +0.000 C 
ATOM      3  O   UNL     1       8.146   6.614  18.686  0.00  0.00    +0.000 OA
ATOM      4  H   UNL     1       6.281   7.823  16.404  0.00  0.00    +0.000 HD
ENDROOT
BRANCH   2   5
ATOM      5  C   UNL     1       8.059   8.855  17.883  0.00  0.00    +0.000 C 
ATOM      6  C   UNL     1       8.907   9.333  18.808  0.00  0.00    +0.000 C 
BRANCH   6   7
ATOM      7  C   UNL     1       9.319  10.724  18.867  0.00  0.00    +0.000 C 
ATOM      8  C   UNL     1       9.985  11.338  17.875  0.00  0.00    +0.000 C 
BRANCH   8   9
ATOM      9  C   UNL     1      10.460  12.734  17.928  0.00  0.00    +0.000 A 
ATOM     10  C   UNL     1      11.353  13.255  16.962  0.00  0.00    +0.000 A 
ATOM     11  C   UNL     1      11.778  14.588  17.007  0.00  0.00    +0.000 A 
ATOM     12  C   UNL     1      11.288  15.383  18.016  0.00  0.00    +0.000 A 
ATOM     13  C   UNL     1      10.403  14.899  18.949  0.00  0.00    +0.000 A 
ATOM     14  C   UNL     1       9.963  13.589  18.927  0.00  0.00    +0.000 A 
ATOM     15  O   UNL     1      10.035  15.849  19.851  0.00  0.00    +0.000 OA
ATOM     16  C   UNL     1      10.828  16.971  19.405  0.00  0.00    +0.000 C 
ATOM     17  O   UNL     1      11.594  16.693  18.216  0.00  0.00    +0.000 OA
ENDBRANCH   8   9
ENDBRANCH   6   7
ENDBRANCH   2   5
BRANCH   1  18
ATOM     18  C   UNL     1       5.996   5.796  17.000  0.00  0.00    +0.000 C 
BRANCH  18  19
ATOM     19  C   UNL     1       4.665   5.678  17.812  0.00  0.00    +0.000 C 
ATOM     20  C   UNL     1       3.859   6.992  17.726  0.00  0.00    +0.000 C 
ATOM     21  C   UNL     1       3.785   4.558  17.215  0.00  0.00    +0.000 C 
ATOM     22  C   UNL     1       4.914   5.358  19.298  0.00  0.00    +0.000 C 
ENDBRANCH  18  19
BRANCH  18  23
ATOM     23  C   UNL     1       5.815   5.467  15.507  0.00  0.00    +0.000 C 
ATOM     24  O   UNL     1       5.363   6.250  14.677  0.00  0.00    +0.000 OA
BRANCH  23  26
ATOM     25  C   UNL     1       6.406   3.887  13.873  0.00  0.00    +0.000 C 
ATOM     26  O   UNL     1       6.173   4.177  15.251  0.00  0.00    +0.000 OA
ENDBRANCH  23  26
ENDBRANCH  18  23
ENDBRANCH   1  18
TORSDOF 7
ENDMDL
MODEL 7
REMARK VINA RESULT:      -7.5      1.780      2.549
REMARK  Name = 
REMARK  11 active torsions:
REMARK  status: ('A' for Active; 'I' for Inactive)
REMARK    1  A    between atoms: C_1  and  O_2
REMARK    2  A    between atoms: O_2  and  C_3
REMARK    3  A    between atoms: C_3  and  C_5
REMARK    4  A    between atoms: C_5  and  N_6
REMARK    5  A    between atoms: C_5  and  C_22
REMARK    6  A    between atoms: C_7  and  C_9
REMARK    7  A    between atoms: C_10  and  C_11
REMARK    8  A    between atoms: C_12  and  C_13
REMARK    9  A    between atoms: C_22  and  C_23
REMARK   10  A    between atoms: C_22  and  C_24
REMARK   11  A    between atoms: C_22  and  C_25
REMARK                            x       y       z     vdW  Elec       q    Type
REMARK                         _______ _______ _______ _____ _____    ______ ____
ROOT
ATOM      1  N   UNL     1       6.954   6.643  16.938  0.00  0.00    +0.000 N 
ATOM      2  C   UNL     1       7.736   7.220  17.906  0.00  0.00    +0.000 C 
ATOM      3  O   UNL     1       8.136   6.632  18.903  0.00  0.00    +0.000 OA
ATOM      4  H   UNL     1       6.765   7.135  16.073  0.00  0.00    +0.000 HD
ENDROOT
BRANCH   2   5
ATOM      5  C   UNL     1       8.034   8.656  17.651  0.00  0.00    +0.000 C 
ATOM      6  C   UNL     1       8.704   9.375  18.567  0.00  0.00    +0.000 C 
BRANCH   6   7
ATOM      7  C   UNL     1       8.969  10.795  18.425  0.00  0.00    +0.000 C 
ATOM      8  C   UNL     1      10.092  11.283  17.873  0.00  0.00    +0.000 C 
BRANCH   8   9
ATOM      9  C   UNL     1      10.411  12.720  17.762  0.00  0.00    +0.000 A 
ATOM     10  C   UNL     1      11.409  13.196  16.880  0.00  0.00    +0.000 A 
ATOM     11  C   UNL     1      11.687  14.563  16.763  0.00  0.00    +0.000 A 
ATOM     12  C   UNL     1      10.946  15.435  17.526  0.00  0.00    +0.000 A 
ATOM     13  C   UNL     1       9.958  14.991  18.371  0.00  0.00    +0.000 A 
ATOM     14  C   UNL     1       9.659  13.648  18.503  0.00  0.00    +0.000 A 
ATOM     15  O   UNL     1       9.341  16.014  19.023  0.00  0.00    +0.000 OA
ATOM     16  C   UNL     1      10.089  17.145  18.527  0.00  0.00    +0.000 C 
ATOM     17  O   UNL     1      11.082  16.788  17.544  0.00  0.00    +0.000 OA
ENDBRANCH   8   9
ENDBRANCH   6   7
ENDBRANCH   2   5
BRANCH   1  18
ATOM     18  C   UNL     1       6.537   5.231  17.003  0.00  0.00    +0.000 C 
BRANCH  18  19
ATOM     19  C   UNL     1       5.065   5.079  17.507  0.00  0.00    +0.000 C 
ATOM     20  C   UNL     1       5.031   4.911  19.041  0.00  0.00    +0.000 C 
ATOM     21  C   UNL     1       4.260   6.351  17.164  0.00  0.00    +0.000 C 
ATOM     22  C   UNL     1       4.352   3.869  16.872  0.00  0.00    +0.000 C 
ENDBRANCH  18  19
BRANCH  18  23
ATOM     23  C   UNL     1       6.756   4.612  15.610  0.00  0.00    +0.000 C 
ATOM     24  O   UNL     1       6.416   3.476  15.298  0.00  0.00    +0.000 OA
BRANCH  23  26
ATOM     25  C   UNL     1       7.533   5.057  13.438  0.00  0.00    +0.000 C 
ATOM     26  O   UNL     1       7.425   5.479  14.798  0.00  0.00    +0.000 OA
ENDBRANCH  23  26
ENDBRANCH  18  23
ENDBRANCH   1  18
TORSDOF 7
ENDMDL
MODEL 8
REMARK VINA RESULT:      -7.5      1.358      1.717
REMARK  Name = 
REMARK  11 active torsions:
REMARK  status: ('A' for Active; 'I' for Inactive)
REMARK    1  A    between atoms: C_1  and  O_2
REMARK    2  A    between atoms: O_2  and  C_3
REMARK    3  A    between atoms: C_3  and  C_5
REMARK    4  A    between atoms: C_5  and  N_6
REMARK    5  A    between atoms: C_5  and  C_22
REMARK    6  A    between atoms: C_7  and  C_9
REMARK    7  A    between atoms: C_10  and  C_11
REMARK    8  A    between atoms: C_12  and  C_13
REMARK    9  A    between atoms: C_22  and  C_23
REMARK   10  A    between atoms: C_22  and  C_24
REMARK   11  A    between atoms: C_22  and  C_25
REMARK                            x       y       z     vdW  Elec       q    Type
REMARK                         _______ _______ _______ _____ _____    ______ ____
ROOT
ATOM      1  N   UNL     1       6.645   6.579  17.124  0.00  0.00    +0.000 N 
ATOM      2  C   UNL     1       7.606   7.031  17.993  0.00  0.00    +0.000 C 
ATOM      3  O   UNL     1       8.047   6.374  18.928  0.00  0.00    +0.000 OA
ATOM      4  H   UNL     1       6.417   7.112  16.293  0.00  0.00    +0.000 HD
ENDROOT
BRANCH   2   5
ATOM      5  C   UNL     1       8.050   8.424  17.716  0.00  0.00    +0.000 C 
ATOM      6  C   UNL     1       8.752   9.100  18.640  0.00  0.00    +0.000 C 
BRANCH   6   7
ATOM      7  C   UNL     1       9.158  10.484  18.475  0.00  0.00    +0.000 C 
ATOM      8  C   UNL     1      10.070  11.083  19.258  0.00  0.00    +0.000 C 
BRANCH   8   9
ATOM      9  C   UNL     1      10.465  12.501  19.146  0.00  0.00    +0.000 A 
ATOM     10  C   UNL     1      10.791  13.276  20.283  0.00  0.00    +0.000 A 
ATOM     11  C   UNL     1      11.188  14.613  20.165  0.00  0.00    +0.000 A 
ATOM     12  C   UNL     1      11.265  15.149  18.901  0.00  0.00    +0.000 A 
ATOM     13  C   UNL     1      10.973  14.403  17.784  0.00  0.00    +0.000 A 
ATOM     14  C   UNL     1      10.583  13.080  17.871  0.00  0.00    +0.000 A 
ATOM     15  O   UNL     1      11.122  15.118  16.636  0.00  0.00    +0.000 OA
ATOM     16  C   UNL     1      11.492  16.410  17.163  0.00  0.00    +0.000 C 
ATOM     17  O   UNL     1      11.626  16.425  18.599  0.00  0.00    +0.000 OA
ENDBRANCH   8   9
ENDBRANCH   6   7
ENDBRANCH   2   5
BRANCH   1  18
ATOM     18  C   UNL     1       6.064   5.229  17.227  0.00  0.00    +0.000 C 
BRANCH  18  19
ATOM     19  C   UNL     1       4.604   5.262  17.786  0.00  0.00    +0.000 C 
ATOM     20  C   UNL     1       4.608   5.126  19.323  0.00  0.00    +0.000 C 
ATOM     21  C   UNL     1       3.944   6.616  17.444  0.00  0.00    +0.000 C 
ATOM     22  C   UNL     1       3.729   4.136  17.202  0.00  0.00    +0.000 C 
ENDBRANCH  18  19
BRANCH  18  23
ATOM     23  C   UNL     1       6.155   4.571  15.839  0.00  0.00    +0.000 C 
ATOM     24  O   UNL     1       6.074   3.363  15.640  0.00  0.00    +0.000 OA
BRANCH  23  26
ATOM     25  C   UNL     1       7.185   5.048  13.782  0.00  0.00    +0.000 C 
ATOM     26  O   UNL     1       6.392   5.507  14.876  0.00  0.00    +0.000 OA
ENDBRANCH  23  26
ENDBRANCH  18  23
ENDBRANCH   1  18
TORSDOF 7
ENDMDL
MODEL 9
REMARK VINA RESULT:      -7.5      1.293      2.039
REMARK  Name = 
REMARK  11 active torsions:
REMARK  status: ('A' for Active; 'I' for Inactive)
REMARK    1  A    between atoms: C_1  and  O_2
REMARK    2  A    between atoms: O_2  and  C_3
REMARK    3  A    between atoms: C_3  and  C_5
REMARK    4  A    between atoms: C_5  and  N_6
REMARK    5  A    between atoms: C_5  and  C_22
REMARK    6  A    between atoms: C_7  and  C_9
REMARK    7  A    between atoms: C_10  and  C_11
REMARK    8  A    between atoms: C_12  and  C_13
REMARK    9  A    between atoms: C_22  and  C_23
REMARK   10  A    between atoms: C_22  and  C_24
REMARK   11  A    between atoms: C_22  and  C_25
REMARK                            x       y       z     vdW  Elec       q    Type
REMARK                         _______ _______ _______ _____ _____    ______ ____
ROOT
ATOM      1  N   UNL     1       5.495   6.006  17.997  0.00  0.00    +0.000 N 
ATOM      2  C   UNL     1       6.828   5.706  18.129  0.00  0.00    +0.000 C 
ATOM      3  O   UNL     1       7.249   4.650  18.583  0.00  0.00    +0.000 OA
ATOM      4  H   UNL     1       5.206   6.836  17.493  0.00  0.00    +0.000 HD
ENDROOT
BRANCH   2   5
ATOM      5  C   UNL     1       7.730   6.808  17.698  0.00  0.00    +0.000 C 
ATOM      6  C   UNL     1       7.601   8.031  18.238  0.00  0.00    +0.000 C 
BRANCH   6   7
ATOM      7  C   UNL     1       8.392   9.174  17.820  0.00  0.00    +0.000 C 
ATOM      8  C   UNL     1       8.782  10.147  18.659  0.00  0.00    +0.000 C 
BRANCH   8   9
ATOM      9  C   UNL     1       9.544  11.344  18.252  0.00  0.00    +0.000 A 
ATOM     10  C   UNL     1      10.874  11.256  17.779  0.00  0.00    +0.000 A 
ATOM     11  C   UNL     1      11.580  12.395  17.372  0.00  0.00    +0.000 A 
ATOM     12  C   UNL     1      10.932  13.606  17.434  0.00  0.00    +0.000 A 
ATOM     13  C   UNL     1       9.633  13.706  17.869  0.00  0.00    +0.000 A 
ATOM     14  C   UNL     1       8.911  12.599  18.274  0.00  0.00    +0.000 A 
ATOM     15  O   UNL     1       9.179  14.988  17.843  0.00  0.00    +0.000 OA
ATOM     16  C   UNL     1      10.358  15.686  17.387  0.00  0.00    +0.000 C 
ATOM     17  O   UNL     1      11.461  14.809  17.085  0.00  0.00    +0.000 OA
ENDBRANCH   8   9
ENDBRANCH   6   7
ENDBRANCH   2   5
BRANCH   1  18
ATOM     18  C   UNL     1       4.434   5.055  18.374  0.00  0.00    +0.000 C 
BRANCH  18  19
ATOM     19  C   UNL     1       3.043   5.757  18.514  0.00  0.00    +0.000 C 
ATOM     20  C   UNL     1       1.950   4.943  17.790  0.00  0.00    +0.000 C 
ATOM     21  C   UNL     1       2.647   5.840  20.003  0.00  0.00    +0.000 C 
ATOM     22  C   UNL     1       3.049   7.184  17.933  0.00  0.00    +0.000 C 
ENDBRANCH  18  19
BRANCH  18  23
ATOM     23  C   UNL     1       4.428   3.921  17.333  0.00  0.00    +0.000 C 
ATOM     24  O   UNL     1       4.642   4.081  16.136  0.00  0.00    +0.000 OA
BRANCH  23  26
ATOM     25  C   UNL     1       4.481   2.618  19.287  0.00  0.00    +0.000 C 
ATOM     26  O   UNL     1       4.099   2.733  17.917  0.00  0.00    +0.000 OA
ENDBRANCH  23  26
ENDBRANCH  18  23
ENDBRANCH   1  18
TORSDOF 7
ENDMDL
