MODEL 1
REMARK VINA RESULT:      -7.5      0.000      0.000
REMARK  Name = 
REMARK  10 active torsions:
REMARK  status: ('A' for Active; 'I' for Inactive)
REMARK    1  A    between atoms: C_1  and  O_2
REMARK    2  A    between atoms: O_2  and  C_3
REMARK    3  A    between atoms: C_6  and  C_7
REMARK    4  A    between atoms: C_9  and  C_10
REMARK    5  A    between atoms: C_11  and  O_12
REMARK    6  A    between atoms: N_22  and  C_23
REMARK    7  A    between atoms: C_30  and  O_31
REMARK    8  A    between atoms: O_31  and  C_32
REMARK    9  A    between atoms: C_33  and  O_34
REMARK   10  A    between atoms: O_34  and  C_35
REMARK                            x       y       z     vdW  Elec       q    Type
REMARK                         _______ _______ _______ _____ _____    ______ ____
ROOT
ATOM      1  C   UNL     1       0.052  12.018  19.953  0.00  0.00    +0.000 C 
ATOM      2  C   UNL     1      -1.246  12.785  19.645  0.00  0.00    +0.000 C 
ATOM      3  C   UNL     1      -2.060  11.710  18.992  0.00  0.00    +0.000 C 
ATOM      4  N   UNL     1      -1.406  10.611  18.753  0.00  0.00    +0.000 NA
ATOM      5  N   UNL     1      -0.108  10.791  19.150  0.00  0.00    +0.000 N 
ENDROOT
BRANCH   3   6
ATOM      6  C   UNL     1      -3.508  11.827  18.629  0.00  0.00    +0.000 A 
ATOM      7  C   UNL     1      -3.817  11.653  17.261  0.00  0.00    +0.000 A 
ATOM      8  C   UNL     1      -5.087  11.915  16.765  0.00  0.00    +0.000 A 
ATOM      9  C   UNL     1      -6.053  12.453  17.614  0.00  0.00    +0.000 A 
ATOM     10  C   UNL     1      -5.775  12.670  18.969  0.00  0.00    +0.000 A 
ATOM     11  C   UNL     1      -6.751  13.301  19.761  0.00  0.00    +0.000 A 
ATOM     12  C   UNL     1      -6.551  13.522  21.119  0.00  0.00    +0.000 A 
ATOM     13  C   UNL     1      -5.396  13.052  21.717  0.00  0.00    +0.000 A 
ATOM     14  C   UNL     1      -4.413  12.437  20.937  0.00  0.00    +0.000 A 
ATOM     15  C   UNL     1      -4.524  12.285  19.530  0.00  0.00    +0.000 A 
BRANCH   7  16
ATOM     16  O   UNL     1      -2.901  11.239  16.326  0.00  0.00    +0.000 OA
ATOM     17  H   UNL     1      -2.265  11.973  16.191  0.00  0.00    +0.000 HD
ENDBRANCH   7  16
ENDBRANCH   3   6
BRANCH   5  18
ATOM     18  C   UNL     1       0.743   9.681  19.218  0.00  0.00    +0.000 A 
ATOM     19  C   UNL     1       0.900   8.967  20.421  0.00  0.00    +0.000 A 
ATOM     20  C   UNL     1       1.716   7.831  20.516  0.00  0.00    +0.000 A 
ATOM     21  C   UNL     1       2.380   7.366  19.390  0.00  0.00    +0.000 A 
ATOM     22 CL   UNL     1       3.369   5.963  19.488  0.00  0.00    +0.000 Cl
ATOM     23  C   UNL     1       2.239   8.031  18.181  0.00  0.00    +0.000 A 
ATOM     24  C   UNL     1       1.437   9.178  18.105  0.00  0.00    +0.000 A 
ENDBRANCH   5  18
BRANCH   1  28
ATOM     25  C   UNL     1       3.391  14.534  18.778  0.00  0.00    +0.000 A 
ATOM     26  C   UNL     1       2.811  13.637  17.873  0.00  0.00    +0.000 A 
ATOM     27  C   UNL     1       1.757  12.821  18.260  0.00  0.00    +0.000 A 
ATOM     28  C   UNL     1       1.258  12.872  19.571  0.00  0.00    +0.000 A 
ATOM     29  C   UNL     1       1.887  13.722  20.516  0.00  0.00    +0.000 A 
ATOM     30  C   UNL     1       2.977  14.544  20.129  0.00  0.00    +0.000 A 
BRANCH  25  32
ATOM     31  C   UNL     1       5.598  14.734  17.932  0.00  0.00    +0.000 C 
ATOM     32  O   UNL     1       4.396  15.369  18.364  0.00  0.00    +0.000 OA
ENDBRANCH  25  32
BRANCH  29  33
ATOM     33  O   UNL     1       1.313  13.642  21.764  0.00  0.00    +0.000 OA
ATOM     34  C   UNL     1       0.490  14.691  22.251  0.00  0.00    +0.000 C 
ENDBRANCH  29  33
BRANCH  30  35
ATOM     35  O   UNL     1       3.539  15.294  21.127  0.00  0.00    +0.000 OA
ATOM     36  C   UNL     1       4.626  14.809  21.896  0.00  0.00    +0.000 C 
ENDBRANCH  30  35
ENDBRANCH   1  28
TORSDOF 7
ENDMDL
MODEL 2
REMARK VINA RESULT:      -6.9      0.955      1.279
REMARK  Name = 
REMARK  10 active torsions:
REMARK  status: ('A' for Active; 'I' for Inactive)
REMARK    1  A    between atoms: C_1  and  O_2
REMARK    2  A    between atoms: O_2  and  C_3
REMARK    3  A    between atoms: C_6  and  C_7
REMARK    4  A    between atoms: C_9  and  C_10
REMARK    5  A    between atoms: C_11  and  O_12
REMARK    6  A    between atoms: N_22  and  C_23
REMARK    7  A    between atoms: C_30  and  O_31
REMARK    8  A    between atoms: O_31  and  C_32
REMARK    9  A    between atoms: C_33  and  O_34
REMARK   10  A    between atoms: O_34  and  C_35
REMARK                            x       y       z     vdW  Elec       q    Type
REMARK                         _______ _______ _______ _____ _____    ______ ____
ROOT
ATOM      1  C   UNL     1      -0.651  12.173  20.252  0.00  0.00    +0.000 C 
ATOM      2  C   UNL     1      -1.975  12.904  19.972  0.00  0.00    +0.000 C 
ATOM      3  C   UNL     1      -2.701  11.872  19.164  0.00  0.00    +0.000 C 
ATOM      4  N   UNL     1      -1.977  10.842  18.834  0.00  0.00    +0.000 NA
ATOM      5  N   UNL     1      -0.709  11.041  19.309  0.00  0.00    +0.000 N 
ENDROOT
BRANCH   3   6
ATOM      6  C   UNL     1      -4.137  11.957  18.748  0.00  0.00    +0.000 A 
ATOM      7  C   UNL     1      -4.386  11.846  17.362  0.00  0.00    +0.000 A 
ATOM      8  C   UNL     1      -5.644  12.090  16.828  0.00  0.00    +0.000 A 
ATOM      9  C   UNL     1      -6.662  12.545  17.664  0.00  0.00    +0.000 A 
ATOM     10  C   UNL     1      -6.445  12.698  19.039  0.00  0.00    +0.000 A 
ATOM     11  C   UNL     1      -7.475  13.250  19.822  0.00  0.00    +0.000 A 
ATOM     12  C   UNL     1      -7.336  13.403  21.197  0.00  0.00    +0.000 A 
ATOM     13  C   UNL     1      -6.189  12.943  21.816  0.00  0.00    +0.000 A 
ATOM     14  C   UNL     1      -5.154  12.407  21.047  0.00  0.00    +0.000 A 
ATOM     15  C   UNL     1      -5.204  12.329  19.630  0.00  0.00    +0.000 A 
BRANCH   7  16
ATOM     16  O   UNL     1      -3.419  11.517  16.444  0.00  0.00    +0.000 OA
ATOM     17  H   UNL     1      -2.547  11.680  16.863  0.00  0.00    +0.000 HD
ENDBRANCH   7  16
ENDBRANCH   3   6
BRANCH   5  18
ATOM     18  C   UNL     1       0.198   9.974  19.292  0.00  0.00    +0.000 A 
ATOM     19  C   UNL     1       0.864   9.614  18.105  0.00  0.00    +0.000 A 
ATOM     20  C   UNL     1       1.803   8.574  18.060  0.00  0.00    +0.000 A 
ATOM     21  C   UNL     1       2.119   7.882  19.220  0.00  0.00    +0.000 A 
ATOM     22 CL   UNL     1       3.284   6.619  19.183  0.00  0.00    +0.000 Cl
ATOM     23  C   UNL     1       1.499   8.217  20.415  0.00  0.00    +0.000 A 
ATOM     24  C   UNL     1       0.545   9.245  20.441  0.00  0.00    +0.000 A 
ENDBRANCH   5  18
BRANCH   1  28
ATOM     25  C   UNL     1       2.588  14.977  19.532  0.00  0.00    +0.000 A 
ATOM     26  C   UNL     1       2.061  14.201  18.492  0.00  0.00    +0.000 A 
ATOM     27  C   UNL     1       1.040  13.292  18.732  0.00  0.00    +0.000 A 
ATOM     28  C   UNL     1       0.521  13.125  20.026  0.00  0.00    +0.000 A 
ATOM     29  C   UNL     1       1.098  13.851  21.099  0.00  0.00    +0.000 A 
ATOM     30  C   UNL     1       2.155  14.767  20.861  0.00  0.00    +0.000 A 
BRANCH  25  32
ATOM     31  C   UNL     1       4.895  15.410  19.195  0.00  0.00    +0.000 C 
ATOM     32  O   UNL     1       3.560  15.906  19.268  0.00  0.00    +0.000 OA
ENDBRANCH  25  32
BRANCH  29  33
ATOM     33  O   UNL     1       0.510  13.562  22.309  0.00  0.00    +0.000 OA
ATOM     34  C   UNL     1      -0.472  14.424  22.862  0.00  0.00    +0.000 C 
ENDBRANCH  29  33
BRANCH  30  35
ATOM     35  O   UNL     1       2.668  15.383  21.970  0.00  0.00    +0.000 OA
ATOM     36  C   UNL     1       2.311  16.711  22.312  0.00  0.00    +0.000 C 
ENDBRANCH  30  35
ENDBRANCH   1  28
TORSDOF 7
ENDMDL
MODEL 3
REMARK VINA RESULT:      -6.7      2.049      7.255
REMARK  Name = 
REMARK  10 active torsions:
REMARK  status: ('A' for Active; 'I' for Inactive)
REMARK    1  A    between atoms: C_1  and  O_2
REMARK    2  A    between atoms: O_2  and  C_3
REMARK    3  A    between atoms: C_6  and  C_7
REMARK    4  A    between atoms: C_9  and  C_10
REMARK    5  A    between atoms: C_11  and  O_12
REMARK    6  A    between atoms: N_22  and  C_23
REMARK    7  A    between atoms: C_30  and  O_31
REMARK    8  A    between atoms: O_31  and  C_32
REMARK    9  A    between atoms: C_33  and  O_34
REMARK   10  A    between atoms: O_34  and  C_35
REMARK                            x       y       z     vdW  Elec       q    Type
REMARK                         _______ _______ _______ _____ _____    ______ ____
ROOT
ATOM      1  C   UNL     1      -0.217  12.498  18.623  0.00  0.00    +0.000 C 
ATOM      2  C   UNL     1       0.181  13.981  18.522  0.00  0.00    +0.000 C 
ATOM      3  C   UNL     1       1.563  13.942  19.098  0.00  0.00    +0.000 C 
ATOM      4  N   UNL     1       1.896  12.796  19.619  0.00  0.00    +0.000 NA
ATOM      5  N   UNL     1       0.824  11.952  19.515  0.00  0.00    +0.000 N 
ENDROOT
BRANCH   3   6
ATOM      6  C   UNL     1       2.529  15.086  19.099  0.00  0.00    +0.000 A 
ATOM      7  C   UNL     1       3.745  14.869  18.412  0.00  0.00    +0.000 A 
ATOM      8  C   UNL     1       4.794  15.774  18.490  0.00  0.00    +0.000 A 
ATOM      9  C   UNL     1       4.685  16.874  19.339  0.00  0.00    +0.000 A 
ATOM     10  C   UNL     1       3.507  17.106  20.061  0.00  0.00    +0.000 A 
ATOM     11  C   UNL     1       3.482  18.176  20.974  0.00  0.00    +0.000 A 
ATOM     12  C   UNL     1       2.337  18.479  21.702  0.00  0.00    +0.000 A 
ATOM     13  C   UNL     1       1.180  17.757  21.476  0.00  0.00    +0.000 A 
ATOM     14  C   UNL     1       1.198  16.683  20.582  0.00  0.00    +0.000 A 
ATOM     15  C   UNL     1       2.370  16.267  19.896  0.00  0.00    +0.000 A 
BRANCH   7  16
ATOM     16  O   UNL     1       3.991  13.757  17.645  0.00  0.00    +0.000 OA
ATOM     17  H   UNL     1       4.845  13.377  17.941  0.00  0.00    +0.000 HD
ENDBRANCH   7  16
ENDBRANCH   3   6
BRANCH   5  18
ATOM     18  C   UNL     1       1.002  10.590  19.786  0.00  0.00    +0.000 A 
ATOM     19  C   UNL     1       1.510   9.721  18.803  0.00  0.00    +0.000 A 
ATOM     20  C   UNL     1       1.733   8.359  19.051  0.00  0.00    +0.000 A 
ATOM     21  C   UNL     1       1.473   7.838  20.310  0.00  0.00    +0.000 A 
ATOM     22 CL   UNL     1       1.761   6.174  20.633  0.00  0.00    +0.000 Cl
ATOM     23  C   UNL     1       0.986   8.664  21.312  0.00  0.00    +0.000 A 
ATOM     24  C   UNL     1       0.748  10.019  21.044  0.00  0.00    +0.000 A 
ENDBRANCH   5  18
BRANCH   1  28
ATOM     25  C   UNL     1      -4.275  12.321  20.160  0.00  0.00    +0.000 A 
ATOM     26  C   UNL     1      -3.218  12.767  20.963  0.00  0.00    +0.000 A 
ATOM     27  C   UNL     1      -1.920  12.803  20.473  0.00  0.00    +0.000 A 
ATOM     28  C   UNL     1      -1.639  12.382  19.164  0.00  0.00    +0.000 A 
ATOM     29  C   UNL     1      -2.689  11.858  18.368  0.00  0.00    +0.000 A 
ATOM     30  C   UNL     1      -4.014  11.801  18.872  0.00  0.00    +0.000 A 
BRANCH  25  32
ATOM     31  C   UNL     1      -5.737  12.967  21.912  0.00  0.00    +0.000 C 
ATOM     32  O   UNL     1      -5.557  12.341  20.643  0.00  0.00    +0.000 OA
ENDBRANCH  25  32
BRANCH  29  33
ATOM     33  O   UNL     1      -2.259  11.456  17.124  0.00  0.00    +0.000 OA
ATOM     34  C   UNL     1      -2.141  10.077  16.809  0.00  0.00    +0.000 C 
ENDBRANCH  29  33
BRANCH  30  35
ATOM     35  O   UNL     1      -4.943  11.239  18.039  0.00  0.00    +0.000 OA
ATOM     36  C   UNL     1      -5.705  12.025  17.140  0.00  0.00    +0.000 C 
ENDBRANCH  30  35
ENDBRANCH   1  28
TORSDOF 7
ENDMDL
MODEL 4
REMARK VINA RESULT:      -6.3      3.070      7.081
REMARK  Name = 
REMARK  10 active torsions:
REMARK  status: ('A' for Active; 'I' for Inactive)
REMARK    1  A    between atoms: C_1  and  O_2
REMARK    2  A    between atoms: O_2  and  C_3
REMARK    3  A    between atoms: C_6  and  C_7
REMARK    4  A    between atoms: C_9  and  C_10
REMARK    5  A    between atoms: C_11  and  O_12
REMARK    6  A    between atoms: N_22  and  C_23
REMARK    7  A    between atoms: C_30  and  O_31
REMARK    8  A    between atoms: O_31  and  C_32
REMARK    9  A    between atoms: C_33  and  O_34
REMARK   10  A    between atoms: O_34  and  C_35
REMARK                            x       y       z     vdW  Elec       q    Type
REMARK                         _______ _______ _______ _____ _____    ______ ____
ROOT
ATOM      1  C   UNL     1       0.764  11.446  20.077  0.00  0.00    +0.000 C 
ATOM      2  C   UNL     1       1.982  12.376  20.213  0.00  0.00    +0.000 C 
ATOM      3  C   UNL     1       1.444  13.635  19.604  0.00  0.00    +0.000 C 
ATOM      4  N   UNL     1       0.278  13.504  19.040  0.00  0.00    +0.000 NA
ATOM      5  N   UNL     1      -0.101  12.193  19.143  0.00  0.00    +0.000 N 
ENDROOT
BRANCH   3   6
ATOM      6  C   UNL     1       2.138  14.962  19.616  0.00  0.00    +0.000 A 
ATOM      7  C   UNL     1       3.010  15.213  18.533  0.00  0.00    +0.000 A 
ATOM      8  C   UNL     1       3.848  16.320  18.517  0.00  0.00    +0.000 A 
ATOM      9  C   UNL     1       3.901  17.150  19.635  0.00  0.00    +0.000 A 
ATOM     10  C   UNL     1       3.075  16.916  20.741  0.00  0.00    +0.000 A 
ATOM     11  C   UNL     1       3.235  17.726  21.880  0.00  0.00    +0.000 A 
ATOM     12  C   UNL     1       2.429  17.565  23.002  0.00  0.00    +0.000 A 
ATOM     13  C   UNL     1       1.408  16.635  22.973  0.00  0.00    +0.000 A 
ATOM     14  C   UNL     1       1.249  15.814  21.853  0.00  0.00    +0.000 A 
ATOM     15  C   UNL     1       2.113  15.867  20.728  0.00  0.00    +0.000 A 
BRANCH   7  16
ATOM     16  O   UNL     1       3.114  14.389  17.439  0.00  0.00    +0.000 OA
ATOM     17  H   UNL     1       2.273  14.457  16.938  0.00  0.00    +0.000 HD
ENDBRANCH   7  16
ENDBRANCH   3   6
BRANCH   5  18
ATOM     18  C   UNL     1      -1.419  11.840  18.826  0.00  0.00    +0.000 A 
ATOM     19  C   UNL     1      -2.500  12.356  19.564  0.00  0.00    +0.000 A 
ATOM     20  C   UNL     1      -3.833  12.050  19.253  0.00  0.00    +0.000 A 
ATOM     21  C   UNL     1      -4.115  11.232  18.169  0.00  0.00    +0.000 A 
ATOM     22 CL   UNL     1      -5.745  10.866  17.764  0.00  0.00    +0.000 Cl
ATOM     23  C   UNL     1      -3.078  10.716  17.405  0.00  0.00    +0.000 A 
ATOM     24  C   UNL     1      -1.750  11.012  17.740  0.00  0.00    +0.000 A 
ENDBRANCH   5  18
BRANCH   1  28
ATOM     25  C   UNL     1       2.186   7.616  18.603  0.00  0.00    +0.000 A 
ATOM     26  C   UNL     1       2.014   8.703  17.737  0.00  0.00    +0.000 A 
ATOM     27  C   UNL     1       1.541   9.919  18.210  0.00  0.00    +0.000 A 
ATOM     28  C   UNL     1       1.214  10.080  19.566  0.00  0.00    +0.000 A 
ATOM     29  C   UNL     1       1.312   8.964  20.436  0.00  0.00    +0.000 A 
ATOM     30  C   UNL     1       1.778   7.714  19.952  0.00  0.00    +0.000 A 
BRANCH  25  32
ATOM     31  C   UNL     1       4.035   6.503  17.618  0.00  0.00    +0.000 C 
ATOM     32  O   UNL     1       2.704   6.439  18.129  0.00  0.00    +0.000 OA
ENDBRANCH  25  32
BRANCH  29  33
ATOM     33  O   UNL     1       0.928   9.263  21.723  0.00  0.00    +0.000 OA
ATOM     34  C   UNL     1      -0.369   8.925  22.189  0.00  0.00    +0.000 C 
ENDBRANCH  29  33
BRANCH  30  35
ATOM     35  O   UNL     1       1.794   6.693  20.864  0.00  0.00    +0.000 OA
ATOM     36  C   UNL     1       1.451   5.368  20.498  0.00  0.00    +0.000 C 
ENDBRANCH  30  35
ENDBRANCH   1  28
TORSDOF 7
ENDMDL
MODEL 5
REMARK VINA RESULT:      -6.2      4.182      6.984
REMARK  Name = 
REMARK  10 active torsions:
REMARK  status: ('A' for Active; 'I' for Inactive)
REMARK    1  A    between atoms: C_1  and  O_2
REMARK    2  A    between atoms: O_2  and  C_3
REMARK    3  A    between atoms: C_6  and  C_7
REMARK    4  A    between atoms: C_9  and  C_10
REMARK    5  A    between atoms: C_11  and  O_12
REMARK    6  A    between atoms: N_22  and  C_23
REMARK    7  A    between atoms: C_30  and  O_31
REMARK    8  A    between atoms: O_31  and  C_32
REMARK    9  A    between atoms: C_33  and  O_34
REMARK   10  A    between atoms: O_34  and  C_35
REMARK                            x       y       z     vdW  Elec       q    Type
REMARK                         _______ _______ _______ _____ _____    ______ ____
ROOT
ATOM      1  C   UNL     1       1.886  14.192  19.507  0.00  0.00    +0.000 C 
ATOM      2  C   UNL     1       2.334  12.764  19.862  0.00  0.00    +0.000 C 
ATOM      3  C   UNL     1       1.026  12.147  20.254  0.00  0.00    +0.000 C 
ATOM      4  N   UNL     1       0.037  12.990  20.333  0.00  0.00    +0.000 NA
ATOM      5  N   UNL     1       0.520  14.242  20.063  0.00  0.00    +0.000 N 
ENDROOT
BRANCH   3   6
ATOM      6  C   UNL     1       0.810  10.693  20.536  0.00  0.00    +0.000 A 
ATOM      7  C   UNL     1       0.289  10.382  21.812  0.00  0.00    +0.000 A 
ATOM      8  C   UNL     1       0.214   9.072  22.266  0.00  0.00    +0.000 A 
ATOM      9  C   UNL     1       0.750   8.049  21.487  0.00  0.00    +0.000 A 
ATOM     10  C   UNL     1       1.303   8.321  20.229  0.00  0.00    +0.000 A 
ATOM     11  C   UNL     1       1.915   7.269  19.524  0.00  0.00    +0.000 A 
ATOM     12  C   UNL     1       2.459   7.464  18.260  0.00  0.00    +0.000 A 
ATOM     13  C   UNL     1       2.338   8.701  17.655  0.00  0.00    +0.000 A 
ATOM     14  C   UNL     1       1.745   9.758  18.352  0.00  0.00    +0.000 A 
ATOM     15  C   UNL     1       1.272   9.636  19.685  0.00  0.00    +0.000 A 
BRANCH   7  16
ATOM     16  O   UNL     1      -0.156  11.331  22.699  0.00  0.00    +0.000 OA
ATOM     17  H   UNL     1       0.485  12.073  22.683  0.00  0.00    +0.000 HD
ENDBRANCH   7  16
ENDBRANCH   3   6
BRANCH   5  18
ATOM     18  C   UNL     1      -0.386  15.289  19.851  0.00  0.00    +0.000 A 
ATOM     19  C   UNL     1      -0.216  16.182  18.777  0.00  0.00    +0.000 A 
ATOM     20  C   UNL     1      -1.121  17.220  18.515  0.00  0.00    +0.000 A 
ATOM     21  C   UNL     1      -2.243  17.372  19.318  0.00  0.00    +0.000 A 
ATOM     22 CL   UNL     1      -3.372  18.627  18.996  0.00  0.00    +0.000 Cl
ATOM     23  C   UNL     1      -2.457  16.502  20.378  0.00  0.00    +0.000 A 
ATOM     24  C   UNL     1      -1.532  15.482  20.640  0.00  0.00    +0.000 A 
ENDBRANCH   5  18
BRANCH   1  28
ATOM     25  C   UNL     1       4.717  16.950  21.307  0.00  0.00    +0.000 A 
ATOM     26  C   UNL     1       3.771  16.277  22.088  0.00  0.00    +0.000 A 
ATOM     27  C   UNL     1       2.855  15.412  21.505  0.00  0.00    +0.000 A 
ATOM     28  C   UNL     1       2.854  15.202  20.117  0.00  0.00    +0.000 A 
ATOM     29  C   UNL     1       3.758  15.936  19.308  0.00  0.00    +0.000 A 
ATOM     30  C   UNL     1       4.683  16.836  19.899  0.00  0.00    +0.000 A 
BRANCH  25  32
ATOM     31  C   UNL     1       6.660  17.097  22.661  0.00  0.00    +0.000 C 
ATOM     32  O   UNL     1       5.647  17.760  21.905  0.00  0.00    +0.000 OA
ENDBRANCH  25  32
BRANCH  29  33
ATOM     33  O   UNL     1       3.620  15.652  17.969  0.00  0.00    +0.000 OA
ATOM     34  C   UNL     1       3.043  16.600  17.084  0.00  0.00    +0.000 C 
ENDBRANCH  29  33
BRANCH  30  35
ATOM     35  O   UNL     1       5.482  17.525  19.026  0.00  0.00    +0.000 OA
ATOM     36  C   UNL     1       6.805  17.104  18.742  0.00  0.00    +0.000 C 
ENDBRANCH  30  35
ENDBRANCH   1  28
TORSDOF 7
ENDMDL
MODEL 6
REMARK VINA RESULT:      -6.2      2.226      3.528
REMARK  Name = 
REMARK  10 active torsions:
REMARK  status: ('A' for Active; 'I' for Inactive)
REMARK    1  A    between atoms: C_1  and  O_2
REMARK    2  A    between atoms: O_2  and  C_3
REMARK    3  A    between atoms: C_6  and  C_7
REMARK    4  A    between atoms: C_9  and  C_10
REMARK    5  A    between atoms: C_11  and  O_12
REMARK    6  A    between atoms: N_22  and  C_23
REMARK    7  A    between atoms: C_30  and  O_31
REMARK    8  A    between atoms: O_31  and  C_32
REMARK    9  A    between atoms: C_33  and  O_34
REMARK   10  A    between atoms: O_34  and  C_35
REMARK                            x       y       z     vdW  Elec       q    Type
REMARK                         _______ _______ _______ _____ _____    ______ ____
ROOT
ATOM      1  C   UNL     1      -0.373  13.841  21.003  0.00  0.00    +0.000 C 
ATOM      2  C   UNL     1      -1.671  14.460  21.550  0.00  0.00    +0.000 C 
ATOM      3  C   UNL     1      -2.606  13.293  21.446  0.00  0.00    +0.000 C 
ATOM      4  N   UNL     1      -2.114  12.266  20.816  0.00  0.00    +0.000 NA
ATOM      5  N   UNL     1      -0.856  12.590  20.386  0.00  0.00    +0.000 N 
ENDROOT
BRANCH   3   6
ATOM      6  C   UNL     1      -3.994  13.249  22.004  0.00  0.00    +0.000 A 
ATOM      7  C   UNL     1      -4.094  13.260  23.413  0.00  0.00    +0.000 A 
ATOM      8  C   UNL     1      -5.305  13.039  24.057  0.00  0.00    +0.000 A 
ATOM      9  C   UNL     1      -6.427  12.707  23.302  0.00  0.00    +0.000 A 
ATOM     10  C   UNL     1      -6.361  12.655  21.904  0.00  0.00    +0.000 A 
ATOM     11  C   UNL     1      -7.496  12.222  21.195  0.00  0.00    +0.000 A 
ATOM     12  C   UNL     1      -7.507  12.175  19.805  0.00  0.00    +0.000 A 
ATOM     13  C   UNL     1      -6.403  12.623  19.105  0.00  0.00    +0.000 A 
ATOM     14  C   UNL     1      -5.264  13.041  19.799  0.00  0.00    +0.000 A 
ATOM     15  C   UNL     1      -5.166  13.006  21.214  0.00  0.00    +0.000 A 
BRANCH   7  16
ATOM     16  O   UNL     1      -3.021  13.463  24.246  0.00  0.00    +0.000 OA
ATOM     17  H   UNL     1      -2.408  12.706  24.126  0.00  0.00    +0.000 HD
ENDBRANCH   7  16
ENDBRANCH   3   6
BRANCH   5  18
ATOM     18  C   UNL     1      -0.025  11.578  19.889  0.00  0.00    +0.000 A 
ATOM     19  C   UNL     1       0.124  10.363  20.584  0.00  0.00    +0.000 A 
ATOM     20  C   UNL     1       0.920   9.316  20.098  0.00  0.00    +0.000 A 
ATOM     21  C   UNL     1       1.572   9.455  18.881  0.00  0.00    +0.000 A 
ATOM     22 CL   UNL     1       2.535   8.172  18.265  0.00  0.00    +0.000 Cl
ATOM     23  C   UNL     1       1.438  10.631  18.157  0.00  0.00    +0.000 A 
ATOM     24  C   UNL     1       0.656  11.678  18.664  0.00  0.00    +0.000 A 
ENDBRANCH   5  18
BRANCH   1  28
ATOM     25  C   UNL     1       1.464  16.720  18.320  0.00  0.00    +0.000 A 
ATOM     26  C   UNL     1       0.073  16.570  18.374  0.00  0.00    +0.000 A 
ATOM     27  C   UNL     1      -0.508  15.634  19.218  0.00  0.00    +0.000 A 
ATOM     28  C   UNL     1       0.289  14.812  20.029  0.00  0.00    +0.000 A 
ATOM     29  C   UNL     1       1.701  14.903  19.928  0.00  0.00    +0.000 A 
ATOM     30  C   UNL     1       2.299  15.845  19.051  0.00  0.00    +0.000 A 
BRANCH  25  32
ATOM     31  C   UNL     1       1.115  18.376  16.658  0.00  0.00    +0.000 C 
ATOM     32  O   UNL     1       2.018  17.684  17.519  0.00  0.00    +0.000 OA
ENDBRANCH  25  32
BRANCH  29  33
ATOM     33  O   UNL     1       2.349  14.015  20.755  0.00  0.00    +0.000 OA
ATOM     34  C   UNL     1       3.175  14.481  21.812  0.00  0.00    +0.000 C 
ENDBRANCH  29  33
BRANCH  30  35
ATOM     35  O   UNL     1       3.667  15.822  18.997  0.00  0.00    +0.000 OA
ATOM     36  C   UNL     1       4.357  15.075  18.010  0.00  0.00    +0.000 C 
ENDBRANCH  30  35
ENDBRANCH   1  28
TORSDOF 7
ENDMDL
MODEL 7
REMARK VINA RESULT:      -6.2      1.508      2.484
REMARK  Name = 
REMARK  10 active torsions:
REMARK  status: ('A' for Active; 'I' for Inactive)
REMARK    1  A    between atoms: C_1  and  O_2
REMARK    2  A    between atoms: O_2  and  C_3
REMARK    3  A    between atoms: C_6  and  C_7
REMARK    4  A    between atoms: C_9  and  C_10
REMARK    5  A    between atoms: C_11  and  O_12
REMARK    6  A    between atoms: N_22  and  C_23
REMARK    7  A    between atoms: C_30  and  O_31
REMARK    8  A    between atoms: O_31  and  C_32
REMARK    9  A    between atoms: C_33  and  O_34
REMARK   10  A    between atoms: O_34  and  C_35
REMARK                            x       y       z     vdW  Elec       q    Type
REMARK                         _______ _______ _______ _____ _____    ______ ____
ROOT
ATOM      1  C   UNL     1       0.478  12.364  20.774  0.00  0.00    +0.000 C 
ATOM      2  C   UNL     1      -0.758  13.276  20.853  0.00  0.00    +0.000 C 
ATOM      3  C   UNL     1      -1.850  12.297  20.545  0.00  0.00    +0.000 C 
ATOM      4  N   UNL     1      -1.430  11.125  20.167  0.00  0.00    +0.000 NA
ATOM      5  N   UNL     1      -0.063  11.155  20.124  0.00  0.00    +0.000 N 
ENDROOT
BRANCH   3   6
ATOM      6  C   UNL     1      -3.316  12.581  20.652  0.00  0.00    +0.000 A 
ATOM      7  C   UNL     1      -3.776  12.988  21.924  0.00  0.00    +0.000 A 
ATOM      8  C   UNL     1      -5.131  13.105  22.204  0.00  0.00    +0.000 A 
ATOM      9  C   UNL     1      -6.061  12.722  21.240  0.00  0.00    +0.000 A 
ATOM     10  C   UNL     1      -5.644  12.283  19.977  0.00  0.00    +0.000 A 
ATOM     11  C   UNL     1      -6.618  11.818  19.074  0.00  0.00    +0.000 A 
ATOM     12  C   UNL     1      -6.276  11.394  17.795  0.00  0.00    +0.000 A 
ATOM     13  C   UNL     1      -4.962  11.493  17.379  0.00  0.00    +0.000 A 
ATOM     14  C   UNL     1      -3.983  11.939  18.272  0.00  0.00    +0.000 A 
ATOM     15  C   UNL     1      -4.266  12.280  19.621  0.00  0.00    +0.000 A 
BRANCH   7  16
ATOM     16  O   UNL     1      -2.939  13.275  22.974  0.00  0.00    +0.000 OA
ATOM     17  H   UNL     1      -3.244  14.118  23.374  0.00  0.00    +0.000 HD
ENDBRANCH   7  16
ENDBRANCH   3   6
BRANCH   5  18
ATOM     18  C   UNL     1       0.639   9.952  19.975  0.00  0.00    +0.000 A 
ATOM     19  C   UNL     1       1.201   9.594  18.735  0.00  0.00    +0.000 A 
ATOM     20  C   UNL     1       1.938   8.415  18.560  0.00  0.00    +0.000 A 
ATOM     21  C   UNL     1       2.154   7.572  19.640  0.00  0.00    +0.000 A 
ATOM     22 CL   UNL     1       3.073   6.133  19.443  0.00  0.00    +0.000 Cl
ATOM     23  C   UNL     1       1.632   7.896  20.884  0.00  0.00    +0.000 A 
ATOM     24  C   UNL     1       0.878   9.067  21.040  0.00  0.00    +0.000 A 
ENDBRANCH   5  18
BRANCH   1  28
ATOM     25  C   UNL     1       3.517  14.431  18.460  0.00  0.00    +0.000 A 
ATOM     26  C   UNL     1       2.715  13.443  17.876  0.00  0.00    +0.000 A 
ATOM     27  C   UNL     1       1.759  12.772  18.626  0.00  0.00    +0.000 A 
ATOM     28  C   UNL     1       1.584  13.063  19.988  0.00  0.00    +0.000 A 
ATOM     29  C   UNL     1       2.442  14.008  20.606  0.00  0.00    +0.000 A 
ATOM     30  C   UNL     1       3.434  14.683  19.848  0.00  0.00    +0.000 A 
BRANCH  25  32
ATOM     31  C   UNL     1       5.769  14.657  17.747  0.00  0.00    +0.000 C 
ATOM     32  O   UNL     1       4.420  15.121  17.693  0.00  0.00    +0.000 OA
ENDBRANCH  25  32
BRANCH  29  33
ATOM     33  O   UNL     1       2.176  14.166  21.947  0.00  0.00    +0.000 OA
ATOM     34  C   UNL     1       1.570  15.355  22.430  0.00  0.00    +0.000 C 
ENDBRANCH  29  33
BRANCH  30  35
ATOM     35  O   UNL     1       4.235  15.542  20.550  0.00  0.00    +0.000 OA
ATOM     36  C   UNL     1       4.096  16.947  20.433  0.00  0.00    +0.000 C 
ENDBRANCH  30  35
ENDBRANCH   1  28
TORSDOF 7
ENDMDL
MODEL 8
REMARK VINA RESULT:      -6.2      1.648      2.470
REMARK  Name = 
REMARK  10 active torsions:
REMARK  status: ('A' for Active; 'I' for Inactive)
REMARK    1  A    between atoms: C_1  and  O_2
REMARK    2  A    between atoms: O_2  and  C_3
REMARK    3  A    between atoms: C_6  and  C_7
REMARK    4  A    between atoms: C_9  and  C_10
REMARK    5  A    between atoms: C_11  and  O_12
REMARK    6  A    between atoms: N_22  and  C_23
REMARK    7  A    between atoms: C_30  and  O_31
REMARK    8  A    between atoms: O_31  and  C_32
REMARK    9  A    between atoms: C_33  and  O_34
REMARK   10  A    between atoms: O_34  and  C_35
REMARK                            x       y       z     vdW  Elec       q    Type
REMARK                         _______ _______ _______ _____ _____    ______ ____
ROOT
ATOM      1  C   UNL     1       0.178  12.612  20.863  0.00  0.00    +0.000 C 
ATOM      2  C   UNL     1      -1.106  13.454  20.955  0.00  0.00    +0.000 C 
ATOM      3  C   UNL     1      -2.150  12.403  20.731  0.00  0.00    +0.000 C 
ATOM      4  N   UNL     1      -1.676  11.241  20.384  0.00  0.00    +0.000 NA
ATOM      5  N   UNL     1      -0.315  11.347  20.284  0.00  0.00    +0.000 N 
ENDROOT
BRANCH   3   6
ATOM      6  C   UNL     1      -3.625  12.607  20.885  0.00  0.00    +0.000 A 
ATOM      7  C   UNL     1      -4.070  12.947  22.182  0.00  0.00    +0.000 A 
ATOM      8  C   UNL     1      -5.421  12.984  22.500  0.00  0.00    +0.000 A 
ATOM      9  C   UNL     1      -6.356  12.586  21.548  0.00  0.00    +0.000 A 
ATOM     10  C   UNL     1      -5.952  12.212  20.260  0.00  0.00    +0.000 A 
ATOM     11  C   UNL     1      -6.926  11.728  19.366  0.00  0.00    +0.000 A 
ATOM     12  C   UNL     1      -6.598  11.366  18.065  0.00  0.00    +0.000 A 
ATOM     13  C   UNL     1      -5.302  11.547  17.619  0.00  0.00    +0.000 A 
ATOM     14  C   UNL     1      -4.323  12.012  18.502  0.00  0.00    +0.000 A 
ATOM     15  C   UNL     1      -4.586  12.292  19.869  0.00  0.00    +0.000 A 
BRANCH   7  16
ATOM     16  O   UNL     1      -3.220  13.241  23.220  0.00  0.00    +0.000 OA
ATOM     17  H   UNL     1      -3.679  13.003  24.054  0.00  0.00    +0.000 HD
ENDBRANCH   7  16
ENDBRANCH   3   6
BRANCH   5  18
ATOM     18  C   UNL     1       0.450  10.181  20.156  0.00  0.00    +0.000 A 
ATOM     19  C   UNL     1       0.628   9.313  21.250  0.00  0.00    +0.000 A 
ATOM     20  C   UNL     1       1.359   8.121  21.148  0.00  0.00    +0.000 A 
ATOM     21  C   UNL     1       1.912   7.756  19.929  0.00  0.00    +0.000 A 
ATOM     22 CL   UNL     1       2.793   6.287  19.785  0.00  0.00    +0.000 Cl
ATOM     23  C   UNL     1       1.745   8.576  18.822  0.00  0.00    +0.000 A 
ATOM     24  C   UNL     1       1.031   9.775  18.943  0.00  0.00    +0.000 A 
ENDBRANCH   5  18
BRANCH   1  28
ATOM     25  C   UNL     1       3.002  14.764  18.362  0.00  0.00    +0.000 A 
ATOM     26  C   UNL     1       2.129  13.817  17.813  0.00  0.00    +0.000 A 
ATOM     27  C   UNL     1       1.242  13.118  18.620  0.00  0.00    +0.000 A 
ATOM     28  C   UNL     1       1.210  13.339  20.006  0.00  0.00    +0.000 A 
ATOM     29  C   UNL     1       2.142  14.240  20.582  0.00  0.00    +0.000 A 
ATOM     30  C   UNL     1       3.063  14.943  19.763  0.00  0.00    +0.000 A 
BRANCH  25  32
ATOM     31  C   UNL     1       3.310  16.712  17.044  0.00  0.00    +0.000 C 
ATOM     32  O   UNL     1       3.834  15.483  17.544  0.00  0.00    +0.000 OA
ENDBRANCH  25  32
BRANCH  29  33
ATOM     33  O   UNL     1       2.014  14.330  21.949  0.00  0.00    +0.000 OA
ATOM     34  C   UNL     1       1.523  15.516  22.554  0.00  0.00    +0.000 C 
ENDBRANCH  29  33
BRANCH  30  35
ATOM     35  O   UNL     1       3.946  15.755  20.422  0.00  0.00    +0.000 OA
ATOM     36  C   UNL     1       5.233  15.298  20.800  0.00  0.00    +0.000 C 
ENDBRANCH  30  35
ENDBRANCH   1  28
TORSDOF 7
ENDMDL
MODEL 9
REMARK VINA RESULT:      -6.2      1.978      7.744
REMARK  Name = 
REMARK  10 active torsions:
REMARK  status: ('A' for Active; 'I' for Inactive)
REMARK    1  A    between atoms: C_1  and  O_2
REMARK    2  A    between atoms: O_2  and  C_3
REMARK    3  A    between atoms: C_6  and  C_7
REMARK    4  A    between atoms: C_9  and  C_10
REMARK    5  A    between atoms: C_11  and  O_12
REMARK    6  A    between atoms: N_22  and  C_23
REMARK    7  A    between atoms: C_30  and  O_31
REMARK    8  A    between atoms: O_31  and  C_32
REMARK    9  A    between atoms: C_33  and  O_34
REMARK   10  A    between atoms: O_34  and  C_35
REMARK                            x       y       z     vdW  Elec       q    Type
REMARK                         _______ _______ _______ _____ _____    ______ ____
ROOT
ATOM      1  C   UNL     1      -0.055  12.858  19.615  0.00  0.00    +0.000 C 
ATOM      2  C   UNL     1       0.324  14.321  19.902  0.00  0.00    +0.000 C 
ATOM      3  C   UNL     1       1.539  14.134  20.759  0.00  0.00    +0.000 C 
ATOM      4  N   UNL     1       1.766  12.900  21.106  0.00  0.00    +0.000 NA
ATOM      5  N   UNL     1       0.763  12.121  20.597  0.00  0.00    +0.000 N 
ENDROOT
BRANCH   3   6
ATOM      6  C   UNL     1       2.455  15.230  21.205  0.00  0.00    +0.000 A 
ATOM      7  C   UNL     1       2.040  15.958  22.343  0.00  0.00    +0.000 A 
ATOM      8  C   UNL     1       2.701  17.110  22.749  0.00  0.00    +0.000 A 
ATOM      9  C   UNL     1       3.737  17.614  21.965  0.00  0.00    +0.000 A 
ATOM     10  C   UNL     1       4.156  16.938  20.813  0.00  0.00    +0.000 A 
ATOM     11  C   UNL     1       5.141  17.537  20.006  0.00  0.00    +0.000 A 
ATOM     12  C   UNL     1       5.623  16.907  18.864  0.00  0.00    +0.000 A 
ATOM     13  C   UNL     1       5.173  15.638  18.550  0.00  0.00    +0.000 A 
ATOM     14  C   UNL     1       4.184  15.040  19.336  0.00  0.00    +0.000 A 
ATOM     15  C   UNL     1       3.584  15.686  20.448  0.00  0.00    +0.000 A 
BRANCH   7  16
ATOM     16  O   UNL     1       0.959  15.606  23.112  0.00  0.00    +0.000 OA
ATOM     17  H   UNL     1       1.206  15.747  24.051  0.00  0.00    +0.000 HD
ENDBRANCH   7  16
ENDBRANCH   3   6
BRANCH   5  18
ATOM     18  C   UNL     1       0.902  10.728  20.628  0.00  0.00    +0.000 A 
ATOM     19  C   UNL     1       1.346  10.023  19.493  0.00  0.00    +0.000 A 
ATOM     20  C   UNL     1       1.529   8.633  19.500  0.00  0.00    +0.000 A 
ATOM     21  C   UNL     1       1.293   7.914  20.663  0.00  0.00    +0.000 A 
ATOM     22 CL   UNL     1       1.533   6.212  20.690  0.00  0.00    +0.000 Cl
ATOM     23  C   UNL     1       0.871   8.573  21.808  0.00  0.00    +0.000 A 
ATOM     24  C   UNL     1       0.671   9.960  21.781  0.00  0.00    +0.000 A 
ENDBRANCH   5  18
BRANCH   1  28
ATOM     25  C   UNL     1      -4.359  12.486  20.071  0.00  0.00    +0.000 A 
ATOM     26  C   UNL     1      -3.579  13.095  21.062  0.00  0.00    +0.000 A 
ATOM     27  C   UNL     1      -2.201  13.193  20.920  0.00  0.00    +0.000 A 
ATOM     28  C   UNL     1      -1.561  12.674  19.784  0.00  0.00    +0.000 A 
ATOM     29  C   UNL     1      -2.333  11.990  18.810  0.00  0.00    +0.000 A 
ATOM     30  C   UNL     1      -3.739  11.870  18.961  0.00  0.00    +0.000 A 
BRANCH  25  32
ATOM     31  C   UNL     1      -6.222  12.485  21.540  0.00  0.00    +0.000 C 
ATOM     32  O   UNL     1      -5.722  12.445  20.204  0.00  0.00    +0.000 OA
ENDBRANCH  25  32
BRANCH  29  33
ATOM     33  O   UNL     1      -1.568  11.509  17.772  0.00  0.00    +0.000 OA
ATOM     34  C   UNL     1      -1.497  10.116  17.510  0.00  0.00    +0.000 C 
ENDBRANCH  29  33
BRANCH  30  35
ATOM     35  O   UNL     1      -4.382  11.155  17.988  0.00  0.00    +0.000 OA
ATOM     36  C   UNL     1      -4.919  11.785  16.837  0.00  0.00    +0.000 C 
ENDBRANCH  30  35
ENDBRANCH   1  28
TORSDOF 7
ENDMDL
