MODEL 1
REMARK VINA RESULT:      -8.1      0.000      0.000
REMARK  Name = 
REMARK  5 active torsions:
REMARK  status: ('A' for Active; 'I' for Inactive)
REMARK    1  A    between atoms: C_7  and  C_8
REMARK    2  A    between atoms: C_8  and  N_9
REMARK    3  A    between atoms: C_11  and  O_12
REMARK    4  A    between atoms: O_12  and  C_13
REMARK    5  A    between atoms: C_13  and  C_14
REMARK                            x       y       z     vdW  Elec       q    Type
REMARK                         _______ _______ _______ _____ _____    ______ ____
ROOT
ATOM      1  N   UNL     1       4.516   4.216  16.491  0.00  0.00    +0.000 NA
ATOM      2  C   UNL     1       4.793   5.518  17.167  0.00  0.00    +0.000 C 
ATOM      3  C   UNL     1       4.520   5.383  18.688  0.00  0.00    +0.000 C 
ATOM      4  C   UNL     1       4.313   3.870  18.862  0.00  0.00    +0.000 C 
ATOM      5  O   UNL     1       3.560   3.408  19.975  0.00  0.00    +0.000 OA
ATOM      6  C   UNL     1       2.141   3.493  19.890  0.00  0.00    +0.000 C 
ATOM      7  C   UNL     1       1.541   3.068  18.559  0.00  0.00    +0.000 C 
ATOM      8  C   UNL     1       2.285   3.648  17.368  0.00  0.00    +0.000 C 
ATOM      9  C   UNL     1       3.796   3.411  17.502  0.00  0.00    +0.000 C 
ENDROOT
BRANCH   1  10
ATOM     10  C   UNL     1       5.792   3.630  16.027  0.00  0.00    +0.000 C 
BRANCH  10  17
ATOM     11  F   UNL     1       7.711   5.570  15.432  0.00  0.00    +0.000 F 
ATOM     12  C   UNL     1       7.198   4.899  14.390  0.00  0.00    +0.000 A 
ATOM     13  C   UNL     1       7.679   5.181  13.115  0.00  0.00    +0.000 A 
ATOM     14  C   UNL     1       7.151   4.505  12.018  0.00  0.00    +0.000 A 
ATOM     15  C   UNL     1       6.114   3.591  12.201  0.00  0.00    +0.000 A 
ATOM     16  C   UNL     1       5.629   3.321  13.485  0.00  0.00    +0.000 A 
ATOM     17  C   UNL     1       6.206   3.933  14.606  0.00  0.00    +0.000 A 
ENDBRANCH  10  17
ENDBRANCH   1  10
BRANCH   3  18
ATOM     18  O   UNL     1       3.371   6.171  18.969  0.00  0.00    +0.000 OA
BRANCH  18  19
ATOM     19  C   UNL     1       3.055   7.163  17.999  0.00  0.00    +0.000 C 
BRANCH  19  20
ATOM     20  C   UNL     1       2.147   8.180  18.655  0.00  0.00    +0.000 A 
ATOM     21  C   UNL     1       1.622   9.272  17.945  0.00  0.00    +0.000 A 
ATOM     22  C   UNL     1       0.794  10.172  18.596  0.00  0.00    +0.000 A 
ATOM     23  N   UNL     1       0.453  10.063  19.892  0.00  0.00    +0.000 NA
ATOM     24  C   UNL     1       0.958   9.001  20.563  0.00  0.00    +0.000 A 
ATOM     25  C   UNL     1       1.791   8.048  19.995  0.00  0.00    +0.000 A 
ENDBRANCH  19  20
ENDBRANCH  18  19
ENDBRANCH   3  18
TORSDOF 5
ENDMDL
MODEL 2
REMARK VINA RESULT:      -7.9      2.401      3.084
REMARK  Name = 
REMARK  5 active torsions:
REMARK  status: ('A' for Active; 'I' for Inactive)
REMARK    1  A    between atoms: C_7  and  C_8
REMARK    2  A    between atoms: C_8  and  N_9
REMARK    3  A    between atoms: C_11  and  O_12
REMARK    4  A    between atoms: O_12  and  C_13
REMARK    5  A    between atoms: C_13  and  C_14
REMARK                            x       y       z     vdW  Elec       q    Type
REMARK                         _______ _______ _______ _____ _____    ______ ____
ROOT
ATOM      1  N   UNL     1       3.551   4.832  17.479  0.00  0.00    +0.000 NA
ATOM      2  C   UNL     1       3.612   6.124  18.223  0.00  0.00    +0.000 C 
ATOM      3  C   UNL     1       3.319   5.873  19.726  0.00  0.00    +0.000 C 
ATOM      4  C   UNL     1       3.335   4.339  19.822  0.00  0.00    +0.000 C 
ATOM      5  O   UNL     1       2.629   3.715  20.886  0.00  0.00    +0.000 OA
ATOM      6  C   UNL     1       1.217   3.594  20.754  0.00  0.00    +0.000 C 
ATOM      7  C   UNL     1       0.724   3.153  19.386  0.00  0.00    +0.000 C 
ATOM      8  C   UNL     1       1.407   3.897  18.249  0.00  0.00    +0.000 C 
ATOM      9  C   UNL     1       2.931   3.879  18.426  0.00  0.00    +0.000 C 
ENDROOT
BRANCH   1  10
ATOM     10  C   UNL     1       4.913   4.465  17.034  0.00  0.00    +0.000 C 
BRANCH  10  17
ATOM     11  F   UNL     1       5.627   6.846  15.760  0.00  0.00    +0.000 F 
ATOM     12  C   UNL     1       6.327   6.523  16.858  0.00  0.00    +0.000 A 
ATOM     13  C   UNL     1       7.311   7.402  17.300  0.00  0.00    +0.000 A 
ATOM     14  C   UNL     1       8.059   7.081  18.431  0.00  0.00    +0.000 A 
ATOM     15  C   UNL     1       7.848   5.863  19.077  0.00  0.00    +0.000 A 
ATOM     16  C   UNL     1       6.864   4.981  18.619  0.00  0.00    +0.000 A 
ATOM     17  C   UNL     1       6.049   5.327  17.532  0.00  0.00    +0.000 A 
ENDBRANCH  10  17
ENDBRANCH   1  10
BRANCH   3  18
ATOM     18  O   UNL     1       2.058   6.468  20.003  0.00  0.00    +0.000 OA
BRANCH  18  19
ATOM     19  C   UNL     1       1.780   7.673  19.299  0.00  0.00    +0.000 C 
BRANCH  19  20
ATOM     20  C   UNL     1       1.279   8.689  20.301  0.00  0.00    +0.000 A 
ATOM     21  C   UNL     1       0.890   9.982  19.914  0.00  0.00    +0.000 A 
ATOM     22  C   UNL     1       0.436  10.872  20.874  0.00  0.00    +0.000 A 
ATOM     23  N   UNL     1       0.340  10.569  22.181  0.00  0.00    +0.000 NA
ATOM     24  C   UNL     1       0.710   9.317  22.540  0.00  0.00    +0.000 A 
ATOM     25  C   UNL     1       1.172   8.358  21.650  0.00  0.00    +0.000 A 
ENDBRANCH  19  20
ENDBRANCH  18  19
ENDBRANCH   3  18
TORSDOF 5
ENDMDL
MODEL 3
REMARK VINA RESULT:      -7.8      2.664      7.578
REMARK  Name = 
REMARK  5 active torsions:
REMARK  status: ('A' for Active; 'I' for Inactive)
REMARK    1  A    between atoms: C_7  and  C_8
REMARK    2  A    between atoms: C_8  and  N_9
REMARK    3  A    between atoms: C_11  and  O_12
REMARK    4  A    between atoms: O_12  and  C_13
REMARK    5  A    between atoms: C_13  and  C_14
REMARK                            x       y       z     vdW  Elec       q    Type
REMARK                         _______ _______ _______ _____ _____    ______ ____
ROOT
ATOM      1  N   UNL     1       2.494   6.766  19.765  0.00  0.00    +0.000 NA
ATOM      2  C   UNL     1       3.432   6.357  18.678  0.00  0.00    +0.000 C 
ATOM      3  C   UNL     1       2.934   5.037  18.031  0.00  0.00    +0.000 C 
ATOM      4  C   UNL     1       1.537   4.863  18.648  0.00  0.00    +0.000 C 
ATOM      5  O   UNL     1       0.976   3.559  18.708  0.00  0.00    +0.000 OA
ATOM      6  C   UNL     1       1.432   2.693  19.742  0.00  0.00    +0.000 C 
ATOM      7  C   UNL     1       1.575   3.333  21.113  0.00  0.00    +0.000 C 
ATOM      8  C   UNL     1       2.271   4.683  21.061  0.00  0.00    +0.000 C 
ATOM      9  C   UNL     1       1.636   5.582  19.990  0.00  0.00    +0.000 C 
ENDROOT
BRANCH   1  10
ATOM     10  C   UNL     1       1.768   7.985  19.345  0.00  0.00    +0.000 C 
BRANCH  10  17
ATOM     11  F   UNL     1       0.016  10.082  18.764  0.00  0.00    +0.000 F 
ATOM     12  C   UNL     1       0.208   9.806  20.063  0.00  0.00    +0.000 A 
ATOM     13  C   UNL     1      -0.498  10.542  21.009  0.00  0.00    +0.000 A 
ATOM     14  C   UNL     1      -0.305  10.282  22.364  0.00  0.00    +0.000 A 
ATOM     15  C   UNL     1       0.628   9.323  22.758  0.00  0.00    +0.000 A 
ATOM     16  C   UNL     1       1.342   8.596  21.800  0.00  0.00    +0.000 A 
ATOM     17  C   UNL     1       1.098   8.790  20.434  0.00  0.00    +0.000 A 
ENDBRANCH  10  17
ENDBRANCH   1  10
BRANCH   3  18
ATOM     18  O   UNL     1       3.867   4.027  18.391  0.00  0.00    +0.000 OA
BRANCH  18  19
ATOM     19  C   UNL     1       4.348   3.226  17.318  0.00  0.00    +0.000 C 
BRANCH  19  20
ATOM     20  C   UNL     1       5.432   4.007  16.607  0.00  0.00    +0.000 A 
ATOM     21  C   UNL     1       5.454   4.141  15.210  0.00  0.00    +0.000 A 
ATOM     22  C   UNL     1       6.470   4.870  14.611  0.00  0.00    +0.000 A 
ATOM     23  N   UNL     1       7.455   5.471  15.300  0.00  0.00    +0.000 NA
ATOM     24  C   UNL     1       7.418   5.342  16.647  0.00  0.00    +0.000 A 
ATOM     25  C   UNL     1       6.440   4.637  17.334  0.00  0.00    +0.000 A 
ENDBRANCH  19  20
ENDBRANCH  18  19
ENDBRANCH   3  18
TORSDOF 5
ENDMDL
MODEL 4
REMARK VINA RESULT:      -7.8      0.615      1.100
REMARK  Name = 
REMARK  5 active torsions:
REMARK  status: ('A' for Active; 'I' for Inactive)
REMARK    1  A    between atoms: C_7  and  C_8
REMARK    2  A    between atoms: C_8  and  N_9
REMARK    3  A    between atoms: C_11  and  O_12
REMARK    4  A    between atoms: O_12  and  C_13
REMARK    5  A    between atoms: C_13  and  C_14
REMARK                            x       y       z     vdW  Elec       q    Type
REMARK                         _______ _______ _______ _____ _____    ______ ____
ROOT
ATOM      1  N   UNL     1       4.442   4.131  16.494  0.00  0.00    +0.000 NA
ATOM      2  C   UNL     1       4.324   5.476  17.130  0.00  0.00    +0.000 C 
ATOM      3  C   UNL     1       4.005   5.312  18.640  0.00  0.00    +0.000 C 
ATOM      4  C   UNL     1       4.195   3.803  18.863  0.00  0.00    +0.000 C 
ATOM      5  O   UNL     1       3.525   3.186  19.954  0.00  0.00    +0.000 OA
ATOM      6  C   UNL     1       2.142   2.888  19.792  0.00  0.00    +0.000 C 
ATOM      7  C   UNL     1       1.757   2.286  18.451  0.00  0.00    +0.000 C 
ATOM      8  C   UNL     1       2.392   3.013  17.277  0.00  0.00    +0.000 C 
ATOM      9  C   UNL     1       3.900   3.189  17.498  0.00  0.00    +0.000 C 
ENDROOT
BRANCH   1  10
ATOM     10  C   UNL     1       5.853   3.894  16.121  0.00  0.00    +0.000 C 
BRANCH  10  17
ATOM     11  F   UNL     1       7.808   5.693  15.259  0.00  0.00    +0.000 F 
ATOM     12  C   UNL     1       7.221   4.949  14.309  0.00  0.00    +0.000 A 
ATOM     13  C   UNL     1       7.650   5.093  12.993  0.00  0.00    +0.000 A 
ATOM     14  C   UNL     1       7.045   4.340  11.989  0.00  0.00    +0.000 A 
ATOM     15  C   UNL     1       5.987   3.488  12.305  0.00  0.00    +0.000 A 
ATOM     16  C   UNL     1       5.556   3.358  13.628  0.00  0.00    +0.000 A 
ATOM     17  C   UNL     1       6.208   4.048  14.660  0.00  0.00    +0.000 A 
ENDBRANCH  10  17
ENDBRANCH   1  10
BRANCH   3  18
ATOM     18  O   UNL     1       2.674   5.773  18.829  0.00  0.00    +0.000 OA
BRANCH  18  19
ATOM     19  C   UNL     1       2.457   6.557  19.997  0.00  0.00    +0.000 C 
BRANCH  19  20
ATOM     20  C   UNL     1       1.926   7.904  19.558  0.00  0.00    +0.000 A 
ATOM     21  C   UNL     1       1.222   8.745  20.435  0.00  0.00    +0.000 A 
ATOM     22  C   UNL     1       0.759   9.969  19.980  0.00  0.00    +0.000 A 
ATOM     23  N   UNL     1       0.947  10.413  18.725  0.00  0.00    +0.000 NA
ATOM     24  C   UNL     1       1.635   9.597  17.891  0.00  0.00    +0.000 A 
ATOM     25  C   UNL     1       2.139   8.358  18.258  0.00  0.00    +0.000 A 
ENDBRANCH  19  20
ENDBRANCH  18  19
ENDBRANCH   3  18
TORSDOF 5
ENDMDL
MODEL 5
REMARK VINA RESULT:      -7.8      2.721      7.205
REMARK  Name = 
REMARK  5 active torsions:
REMARK  status: ('A' for Active; 'I' for Inactive)
REMARK    1  A    between atoms: C_7  and  C_8
REMARK    2  A    between atoms: C_8  and  N_9
REMARK    3  A    between atoms: C_11  and  O_12
REMARK    4  A    between atoms: O_12  and  C_13
REMARK    5  A    between atoms: C_13  and  C_14
REMARK                            x       y       z     vdW  Elec       q    Type
REMARK                         _______ _______ _______ _____ _____    ______ ____
ROOT
ATOM      1  N   UNL     1       3.622   6.110  17.759  0.00  0.00    +0.000 NA
ATOM      2  C   UNL     1       3.768   4.679  17.361  0.00  0.00    +0.000 C 
ATOM      3  C   UNL     1       5.082   4.105  17.955  0.00  0.00    +0.000 C 
ATOM      4  C   UNL     1       5.536   5.220  18.911  0.00  0.00    +0.000 C 
ATOM      5  O   UNL     1       6.913   5.305  19.253  0.00  0.00    +0.000 OA
ATOM      6  C   UNL     1       7.790   5.898  18.301  0.00  0.00    +0.000 C 
ATOM      7  C   UNL     1       7.272   7.162  17.634  0.00  0.00    +0.000 C 
ATOM      8  C   UNL     1       5.829   7.033  17.174  0.00  0.00    +0.000 C 
ATOM      9  C   UNL     1       4.945   6.488  18.304  0.00  0.00    +0.000 C 
ENDROOT
BRANCH   1  10
ATOM     10  C   UNL     1       2.500   6.234  18.716  0.00  0.00    +0.000 C 
BRANCH  10  17
ATOM     11  F   UNL     1       0.904   4.263  17.545  0.00  0.00    +0.000 F 
ATOM     12  C   UNL     1       1.323   4.026  18.798  0.00  0.00    +0.000 A 
ATOM     13  C   UNL     1       0.975   2.820  19.397  0.00  0.00    +0.000 A 
ATOM     14  C   UNL     1       1.388   2.558  20.702  0.00  0.00    +0.000 A 
ATOM     15  C   UNL     1       2.102   3.526  21.409  0.00  0.00    +0.000 A 
ATOM     16  C   UNL     1       2.438   4.740  20.802  0.00  0.00    +0.000 A 
ATOM     17  C   UNL     1       2.100   4.983  19.463  0.00  0.00    +0.000 A 
ENDBRANCH  10  17
ENDBRANCH   1  10
BRANCH   3  18
ATOM     18  O   UNL     1       5.959   3.872  16.862  0.00  0.00    +0.000 OA
BRANCH  18  19
ATOM     19  C   UNL     1       5.340   3.410  15.666  0.00  0.00    +0.000 C 
BRANCH  19  20
ATOM     20  C   UNL     1       6.144   3.933  14.497  0.00  0.00    +0.000 A 
ATOM     21  C   UNL     1       7.128   4.922  14.657  0.00  0.00    +0.000 A 
ATOM     22  C   UNL     1       7.837   5.363  13.551  0.00  0.00    +0.000 A 
ATOM     23  N   UNL     1       7.639   4.893  12.307  0.00  0.00    +0.000 NA
ATOM     24  C   UNL     1       6.693   3.933  12.167  0.00  0.00    +0.000 A 
ATOM     25  C   UNL     1       5.938   3.427  13.215  0.00  0.00    +0.000 A 
ENDBRANCH  19  20
ENDBRANCH  18  19
ENDBRANCH   3  18
TORSDOF 5
ENDMDL
MODEL 6
REMARK VINA RESULT:      -7.8      2.285      2.998
REMARK  Name = 
REMARK  5 active torsions:
REMARK  status: ('A' for Active; 'I' for Inactive)
REMARK    1  A    between atoms: C_7  and  C_8
REMARK    2  A    between atoms: C_8  and  N_9
REMARK    3  A    between atoms: C_11  and  O_12
REMARK    4  A    between atoms: O_12  and  C_13
REMARK    5  A    between atoms: C_13  and  C_14
REMARK                            x       y       z     vdW  Elec       q    Type
REMARK                         _______ _______ _______ _____ _____    ______ ____
ROOT
ATOM      1  N   UNL     1       3.602   4.535  17.498  0.00  0.00    +0.000 NA
ATOM      2  C   UNL     1       3.593   5.866  18.173  0.00  0.00    +0.000 C 
ATOM      3  C   UNL     1       3.241   5.685  19.674  0.00  0.00    +0.000 C 
ATOM      4  C   UNL     1       3.298   4.160  19.854  0.00  0.00    +0.000 C 
ATOM      5  O   UNL     1       2.564   3.571  20.918  0.00  0.00    +0.000 OA
ATOM      6  C   UNL     1       1.162   3.398  20.733  0.00  0.00    +0.000 C 
ATOM      7  C   UNL     1       0.744   2.872  19.371  0.00  0.00    +0.000 C 
ATOM      8  C   UNL     1       1.454   3.575  18.226  0.00  0.00    +0.000 C 
ATOM      9  C   UNL     1       2.969   3.614  18.468  0.00  0.00    +0.000 C 
ENDROOT
BRANCH   1  10
ATOM     10  C   UNL     1       4.993   4.188  17.132  0.00  0.00    +0.000 C 
BRANCH  10  17
ATOM     11  F   UNL     1       5.666   6.447  15.633  0.00  0.00    +0.000 F 
ATOM     12  C   UNL     1       6.333   6.273  16.785  0.00  0.00    +0.000 A 
ATOM     13  C   UNL     1       7.265   7.235  17.164  0.00  0.00    +0.000 A 
ATOM     14  C   UNL     1       7.978   7.069  18.348  0.00  0.00    +0.000 A 
ATOM     15  C   UNL     1       7.788   5.920  19.115  0.00  0.00    +0.000 A 
ATOM     16  C   UNL     1       6.858   4.953  18.721  0.00  0.00    +0.000 A 
ATOM     17  C   UNL     1       6.074   5.146  17.574  0.00  0.00    +0.000 A 
ENDBRANCH  10  17
ENDBRANCH   1  10
BRANCH   3  18
ATOM     18  O   UNL     1       1.953   6.254  19.864  0.00  0.00    +0.000 OA
BRANCH  18  19
ATOM     19  C   UNL     1       1.886   7.322  20.803  0.00  0.00    +0.000 C 
BRANCH  19  20
ATOM     20  C   UNL     1       1.265   8.512  20.106  0.00  0.00    +0.000 A 
ATOM     21  C   UNL     1       1.610   8.864  18.791  0.00  0.00    +0.000 A 
ATOM     22  C   UNL     1       1.008   9.964  18.201  0.00  0.00    +0.000 A 
ATOM     23  N   UNL     1       0.094  10.731  18.820  0.00  0.00    +0.000 NA
ATOM     24  C   UNL     1      -0.236  10.377  20.085  0.00  0.00    +0.000 A 
ATOM     25  C   UNL     1       0.310   9.291  20.755  0.00  0.00    +0.000 A 
ENDBRANCH  19  20
ENDBRANCH  18  19
ENDBRANCH   3  18
TORSDOF 5
ENDMDL
MODEL 7
REMARK VINA RESULT:      -7.7      1.007      1.455
REMARK  Name = 
REMARK  5 active torsions:
REMARK  status: ('A' for Active; 'I' for Inactive)
REMARK    1  A    between atoms: C_7  and  C_8
REMARK    2  A    between atoms: C_8  and  N_9
REMARK    3  A    between atoms: C_11  and  O_12
REMARK    4  A    between atoms: O_12  and  C_13
REMARK    5  A    between atoms: C_13  and  C_14
REMARK                            x       y       z     vdW  Elec       q    Type
REMARK                         _______ _______ _______ _____ _____    ______ ____
ROOT
ATOM      1  N   UNL     1       5.054   4.984  16.132  0.00  0.00    +0.000 NA
ATOM      2  C   UNL     1       4.927   6.221  16.958  0.00  0.00    +0.000 C 
ATOM      3  C   UNL     1       4.976   5.848  18.464  0.00  0.00    +0.000 C 
ATOM      4  C   UNL     1       5.386   4.367  18.433  0.00  0.00    +0.000 C 
ATOM      5  O   UNL     1       5.055   3.545  19.543  0.00  0.00    +0.000 OA
ATOM      6  C   UNL     1       3.715   3.070  19.633  0.00  0.00    +0.000 C 
ATOM      7  C   UNL     1       3.111   2.569  18.332  0.00  0.00    +0.000 C 
ATOM      8  C   UNL     1       3.377   3.504  17.163  0.00  0.00    +0.000 C 
ATOM      9  C   UNL     1       4.866   3.870  17.088  0.00  0.00    +0.000 C 
ENDROOT
BRANCH   1  10
ATOM     10  C   UNL     1       6.364   4.995  15.444  0.00  0.00    +0.000 C 
BRANCH  10  17
ATOM     11  F   UNL     1       8.347   5.756  13.631  0.00  0.00    +0.000 F 
ATOM     12  C   UNL     1       7.439   4.873  13.186  0.00  0.00    +0.000 A 
ATOM     13  C   UNL     1       7.572   4.378  11.893  0.00  0.00    +0.000 A 
ATOM     14  C   UNL     1       6.633   3.471  11.407  0.00  0.00    +0.000 A 
ATOM     15  C   UNL     1       5.545   3.108  12.201  0.00  0.00    +0.000 A 
ATOM     16  C   UNL     1       5.414   3.620  13.496  0.00  0.00    +0.000 A 
ATOM     17  C   UNL     1       6.394   4.469  14.027  0.00  0.00    +0.000 A 
ENDBRANCH  10  17
ENDBRANCH   1  10
BRANCH   3  18
ATOM     18  O   UNL     1       3.677   6.090  18.988  0.00  0.00    +0.000 OA
BRANCH  18  19
ATOM     19  C   UNL     1       2.824   6.884  18.172  0.00  0.00    +0.000 C 
BRANCH  19  20
ATOM     20  C   UNL     1       2.092   7.853  19.073  0.00  0.00    +0.000 A 
ATOM     21  C   UNL     1       1.870   7.579  20.433  0.00  0.00    +0.000 A 
ATOM     22  C   UNL     1       1.195   8.504  21.213  0.00  0.00    +0.000 A 
ATOM     23  N   UNL     1       0.731   9.674  20.741  0.00  0.00    +0.000 NA
ATOM     24  C   UNL     1       0.958   9.931  19.431  0.00  0.00    +0.000 A 
ATOM     25  C   UNL     1       1.627   9.069  18.575  0.00  0.00    +0.000 A 
ENDBRANCH  19  20
ENDBRANCH  18  19
ENDBRANCH   3  18
TORSDOF 5
ENDMDL
MODEL 8
REMARK VINA RESULT:      -7.7      2.190      3.030
REMARK  Name = 
REMARK  5 active torsions:
REMARK  status: ('A' for Active; 'I' for Inactive)
REMARK    1  A    between atoms: C_7  and  C_8
REMARK    2  A    between atoms: C_8  and  N_9
REMARK    3  A    between atoms: C_11  and  O_12
REMARK    4  A    between atoms: O_12  and  C_13
REMARK    5  A    between atoms: C_13  and  C_14
REMARK                            x       y       z     vdW  Elec       q    Type
REMARK                         _______ _______ _______ _____ _____    ______ ____
ROOT
ATOM      1  N   UNL     1       3.646   4.306  17.304  0.00  0.00    +0.000 NA
ATOM      2  C   UNL     1       3.576   5.605  18.037  0.00  0.00    +0.000 C 
ATOM      3  C   UNL     1       3.230   5.343  19.527  0.00  0.00    +0.000 C 
ATOM      4  C   UNL     1       3.354   3.816  19.640  0.00  0.00    +0.000 C 
ATOM      5  O   UNL     1       2.644   3.150  20.676  0.00  0.00    +0.000 OA
ATOM      6  C   UNL     1       1.252   2.923  20.478  0.00  0.00    +0.000 C 
ATOM      7  C   UNL     1       0.860   2.438  19.093  0.00  0.00    +0.000 C 
ATOM      8  C   UNL     1       1.541   3.222  17.982  0.00  0.00    +0.000 C 
ATOM      9  C   UNL     1       3.052   3.317  18.231  0.00  0.00    +0.000 C 
ENDROOT
BRANCH   1  10
ATOM     10  C   UNL     1       5.051   4.037  16.929  0.00  0.00    +0.000 C 
BRANCH  10  17
ATOM     11  F   UNL     1       5.683   6.366  15.522  0.00  0.00    +0.000 F 
ATOM     12  C   UNL     1       6.329   6.175  16.683  0.00  0.00    +0.000 A 
ATOM     13  C   UNL     1       7.219   7.154  17.116  0.00  0.00    +0.000 A 
ATOM     14  C   UNL     1       7.910   6.970  18.311  0.00  0.00    +0.000 A 
ATOM     15  C   UNL     1       7.741   5.790  19.035  0.00  0.00    +0.000 A 
ATOM     16  C   UNL     1       6.853   4.807  18.586  0.00  0.00    +0.000 A 
ATOM     17  C   UNL     1       6.090   5.014  17.429  0.00  0.00    +0.000 A 
ENDBRANCH  10  17
ENDBRANCH   1  10
BRANCH   3  18
ATOM     18  O   UNL     1       1.917   5.846  19.737  0.00  0.00    +0.000 OA
BRANCH  18  19
ATOM     19  C   UNL     1       1.724   6.571  20.946  0.00  0.00    +0.000 C 
BRANCH  19  20
ATOM     20  C   UNL     1       1.445   8.012  20.582  0.00  0.00    +0.000 A 
ATOM     21  C   UNL     1       1.094   8.968  21.549  0.00  0.00    +0.000 A 
ATOM     22  C   UNL     1       0.852  10.275  21.159  0.00  0.00    +0.000 A 
ATOM     23  N   UNL     1       0.936  10.697  19.886  0.00  0.00    +0.000 NA
ATOM     24  C   UNL     1       1.284   9.769  18.963  0.00  0.00    +0.000 A 
ATOM     25  C   UNL     1       1.549   8.440  19.259  0.00  0.00    +0.000 A 
ENDBRANCH  19  20
ENDBRANCH  18  19
ENDBRANCH   3  18
TORSDOF 5
ENDMDL
MODEL 9
REMARK VINA RESULT:      -7.6      2.654      7.445
REMARK  Name = 
REMARK  5 active torsions:
REMARK  status: ('A' for Active; 'I' for Inactive)
REMARK    1  A    between atoms: C_7  and  C_8
REMARK    2  A    between atoms: C_8  and  N_9
REMARK    3  A    between atoms: C_11  and  O_12
REMARK    4  A    between atoms: O_12  and  C_13
REMARK    5  A    between atoms: C_13  and  C_14
REMARK                            x       y       z     vdW  Elec       q    Type
REMARK                         _______ _______ _______ _____ _____    ______ ____
ROOT
ATOM      1  N   UNL     1       3.727   6.248  17.968  0.00  0.00    +0.000 NA
ATOM      2  C   UNL     1       3.663   4.858  17.428  0.00  0.00    +0.000 C 
ATOM      3  C   UNL     1       4.904   4.058  17.903  0.00  0.00    +0.000 C 
ATOM      4  C   UNL     1       5.539   5.000  18.939  0.00  0.00    +0.000 C 
ATOM      5  O   UNL     1       6.925   4.866  19.223  0.00  0.00    +0.000 OA
ATOM      6  C   UNL     1       7.843   5.431  18.292  0.00  0.00    +0.000 C 
ATOM      7  C   UNL     1       7.481   6.813  17.774  0.00  0.00    +0.000 C 
ATOM      8  C   UNL     1       6.019   6.924  17.371  0.00  0.00    +0.000 C 
ATOM      9  C   UNL     1       5.107   6.390  18.484  0.00  0.00    +0.000 C 
ENDROOT
BRANCH   1  10
ATOM     10  C   UNL     1       2.666   6.423  18.983  0.00  0.00    +0.000 C 
BRANCH  10  17
ATOM     11  F   UNL     1       1.424   7.328  21.316  0.00  0.00    +0.000 F 
ATOM     12  C   UNL     1       1.442   8.180  20.280  0.00  0.00    +0.000 A 
ATOM     13  C   UNL     1       0.889   9.446  20.451  0.00  0.00    +0.000 A 
ATOM     14  C   UNL     1       0.885  10.342  19.385  0.00  0.00    +0.000 A 
ATOM     15  C   UNL     1       1.389   9.946  18.146  0.00  0.00    +0.000 A 
ATOM     16  C   UNL     1       1.932   8.668  17.980  0.00  0.00    +0.000 A 
ATOM     17  C   UNL     1       2.017   7.785  19.065  0.00  0.00    +0.000 A 
ENDBRANCH  10  17
ENDBRANCH   1  10
BRANCH   3  18
ATOM     18  O   UNL     1       5.705   3.822  16.753  0.00  0.00    +0.000 OA
BRANCH  18  19
ATOM     19  C   UNL     1       4.989   3.625  15.538  0.00  0.00    +0.000 C 
BRANCH  19  20
ATOM     20  C   UNL     1       5.907   4.000  14.395  0.00  0.00    +0.000 A 
ATOM     21  C   UNL     1       5.741   3.468  13.106  0.00  0.00    +0.000 A 
ATOM     22  C   UNL     1       6.610   3.848  12.096  0.00  0.00    +0.000 A 
ATOM     23  N   UNL     1       7.622   4.714  12.275  0.00  0.00    +0.000 NA
ATOM     24  C   UNL     1       7.767   5.226  13.520  0.00  0.00    +0.000 A 
ATOM     25  C   UNL     1       6.945   4.909  14.591  0.00  0.00    +0.000 A 
ENDBRANCH  19  20
ENDBRANCH  18  19
ENDBRANCH   3  18
TORSDOF 5
ENDMDL
