MODEL 1
REMARK VINA RESULT:      -7.9      0.000      0.000
REMARK  Name = 
REMARK  13 active torsions:
REMARK  status: ('A' for Active; 'I' for Inactive)
REMARK    1  A    between atoms: C_1  and  C_2
REMARK    2  A    between atoms: C_2  and  O_3
REMARK    3  A    between atoms: O_3  and  C_4
REMARK    4  A    between atoms: C_9  and  C_10
REMARK    5  A    between atoms: C_10  and  C_12
REMARK    6  A    between atoms: C_13  and  O_14
REMARK    7  A    between atoms: N_17  and  C_18
REMARK    8  A    between atoms: C_18  and  C_19
REMARK    9  A    between atoms: C_19  and  C_20
REMARK   10  A    between atoms: C_20  and  O_21
REMARK   11  A    between atoms: O_21  and  C_22
REMARK   12  A    between atoms: C_23  and  C_24
REMARK   13  A    between atoms: C_27  and  C_28
REMARK                            x       y       z     vdW  Elec       q    Type
REMARK                         _______ _______ _______ _____ _____    ______ ____
ROOT
ATOM      1  C   UNL     1       4.838   4.368  17.532  0.00  0.00    +0.000 C 
ATOM      2  C   UNL     1       5.661   4.082  16.508  0.00  0.00    +0.000 C 
ATOM      3  C   UNL     1       6.513   5.251  16.277  0.00  0.00    +0.000 C 
ATOM      4  O   UNL     1       7.473   5.279  15.529  0.00  0.00    +0.000 OA
ATOM      5  N   UNL     1       6.017   6.275  17.074  0.00  0.00    +0.000 N 
ATOM      6  C   UNL     1       5.065   5.758  18.080  0.00  0.00    +0.000 C 
ENDROOT
BRANCH   6   7
ATOM      7  C   UNL     1       3.867   6.689  18.288  0.00  0.00    +0.000 A 
ATOM      8  C   UNL     1       3.436   7.645  17.356  0.00  0.00    +0.000 A 
ATOM      9  C   UNL     1       2.381   8.528  17.642  0.00  0.00    +0.000 A 
ATOM     10  C   UNL     1       1.767   8.529  18.900  0.00  0.00    +0.000 A 
ATOM     11  C   UNL     1       2.150   7.555  19.807  0.00  0.00    +0.000 A 
ATOM     12  F   UNL     1       1.594   7.514  21.025  0.00  0.00    +0.000 F 
ATOM     13  C   UNL     1       3.133   6.619  19.490  0.00  0.00    +0.000 A 
BRANCH  10  14
ATOM     14  C   UNL     1       0.764   9.563  19.308  0.00  0.00    +0.000 C 
ATOM     15  F   UNL     1      -0.174   9.083  20.174  0.00  0.00    +0.000 F 
ATOM     16  F   UNL     1       1.318  10.640  19.932  0.00  0.00    +0.000 F 
ATOM     17  F   UNL     1       0.063  10.055  18.249  0.00  0.00    +0.000 F 
ENDBRANCH  10  14
ENDBRANCH   6   7
BRANCH   1  18
ATOM     18  C   UNL     1       3.873   3.298  17.883  0.00  0.00    +0.000 C 
ATOM     19  O   UNL     1       3.670   2.392  17.064  0.00  0.00    +0.000 OA
BRANCH  18  25
ATOM     20  C   UNL     1       3.532   2.682  20.331  0.00  0.00    +0.000 A 
ATOM     21  C   UNL     1       2.617   2.521  21.380  0.00  0.00    +0.000 A 
ATOM     22  C   UNL     1       1.266   2.861  21.218  0.00  0.00    +0.000 A 
ATOM     23  C   UNL     1       0.818   3.399  20.019  0.00  0.00    +0.000 A 
ATOM     24  C   UNL     1       1.722   3.587  18.981  0.00  0.00    +0.000 A 
ATOM     25  C   UNL     1       3.080   3.230  19.124  0.00  0.00    +0.000 A 
BRANCH  20  26
ATOM     26  O   UNL     1       4.844   2.305  20.403  0.00  0.00    +0.000 OA
BRANCH  26  28
ATOM     27  C   UNL     1       5.781   0.651  21.836  0.00  0.00    +0.000 C 
ATOM     28  C   UNL     1       5.120   0.907  20.494  0.00  0.00    +0.000 C 
ENDBRANCH  26  28
ENDBRANCH  20  26
ENDBRANCH  18  25
ENDBRANCH   1  18
BRANCH   2  29
ATOM     29  O   UNL     1       5.760   2.943  15.755  0.00  0.00    +0.000 OA
ATOM     30  H   UNL     1       6.495   2.411  16.130  0.00  0.00    +0.000 HD
ENDBRANCH   2  29
BRANCH   5  31
ATOM     31  C   UNL     1       6.835   7.476  17.204  0.00  0.00    +0.000 C 
BRANCH  31  32
ATOM     32  C   UNL     1       7.836   7.355  18.358  0.00  0.00    +0.000 C 
BRANCH  32  33
ATOM     33  C   UNL     1       8.727   8.583  18.472  0.00  0.00    +0.000 C 
BRANCH  33  34
ATOM     34  O   UNL     1       8.023   9.717  17.973  0.00  0.00    +0.000 OA
ATOM     35  C   UNL     1       8.780  10.910  18.108  0.00  0.00    +0.000 C 
ENDBRANCH  33  34
ENDBRANCH  32  33
ENDBRANCH  31  32
ENDBRANCH   5  31
TORSDOF 11
ENDMDL
MODEL 2
REMARK VINA RESULT:      -7.3      0.842      1.086
REMARK  Name = 
REMARK  13 active torsions:
REMARK  status: ('A' for Active; 'I' for Inactive)
REMARK    1  A    between atoms: C_1  and  C_2
REMARK    2  A    between atoms: C_2  and  O_3
REMARK    3  A    between atoms: O_3  and  C_4
REMARK    4  A    between atoms: C_9  and  C_10
REMARK    5  A    between atoms: C_10  and  C_12
REMARK    6  A    between atoms: C_13  and  O_14
REMARK    7  A    between atoms: N_17  and  C_18
REMARK    8  A    between atoms: C_18  and  C_19
REMARK    9  A    between atoms: C_19  and  C_20
REMARK   10  A    between atoms: C_20  and  O_21
REMARK   11  A    between atoms: O_21  and  C_22
REMARK   12  A    between atoms: C_23  and  C_24
REMARK   13  A    between atoms: C_27  and  C_28
REMARK                            x       y       z     vdW  Elec       q    Type
REMARK                         _______ _______ _______ _____ _____    ______ ____
ROOT
ATOM      1  C   UNL     1       4.108   4.866  17.466  0.00  0.00    +0.000 C 
ATOM      2  C   UNL     1       4.875   4.567  16.404  0.00  0.00    +0.000 C 
ATOM      3  C   UNL     1       5.804   5.680  16.192  0.00  0.00    +0.000 C 
ATOM      4  O   UNL     1       6.740   5.671  15.413  0.00  0.00    +0.000 OA
ATOM      5  N   UNL     1       5.411   6.701  17.049  0.00  0.00    +0.000 N 
ATOM      6  C   UNL     1       4.455   6.211  18.064  0.00  0.00    +0.000 C 
ENDROOT
BRANCH   6   7
ATOM      7  C   UNL     1       3.337   7.217  18.352  0.00  0.00    +0.000 A 
ATOM      8  C   UNL     1       2.959   8.250  17.483  0.00  0.00    +0.000 A 
ATOM      9  C   UNL     1       1.981   9.194  17.843  0.00  0.00    +0.000 A 
ATOM     10  C   UNL     1       1.398   9.173  19.116  0.00  0.00    +0.000 A 
ATOM     11  C   UNL     1       1.725   8.126  19.960  0.00  0.00    +0.000 A 
ATOM     12  F   UNL     1       1.196   8.061  21.189  0.00  0.00    +0.000 F 
ATOM     13  C   UNL     1       2.627   7.136  19.568  0.00  0.00    +0.000 A 
BRANCH  10  14
ATOM     14  C   UNL     1       0.486  10.256  19.603  0.00  0.00    +0.000 C 
ATOM     15  F   UNL     1       0.971  10.906  20.700  0.00  0.00    +0.000 F 
ATOM     16  F   UNL     1       0.254  11.227  18.678  0.00  0.00    +0.000 F 
ATOM     17  F   UNL     1      -0.736   9.781  19.973  0.00  0.00    +0.000 F 
ENDBRANCH  10  14
ENDBRANCH   6   7
BRANCH   1  18
ATOM     18  C   UNL     1       3.077   3.855  17.805  0.00  0.00    +0.000 C 
ATOM     19  O   UNL     1       2.564   3.202  16.887  0.00  0.00    +0.000 OA
BRANCH  18  25
ATOM     20  C   UNL     1       3.285   2.942  20.174  0.00  0.00    +0.000 A 
ATOM     21  C   UNL     1       2.615   2.581  21.350  0.00  0.00    +0.000 A 
ATOM     22  C   UNL     1       1.239   2.809  21.497  0.00  0.00    +0.000 A 
ATOM     23  C   UNL     1       0.521   3.432  20.487  0.00  0.00    +0.000 A 
ATOM     24  C   UNL     1       1.180   3.818  19.326  0.00  0.00    +0.000 A 
ATOM     25  C   UNL     1       2.560   3.576  19.157  0.00  0.00    +0.000 A 
BRANCH  20  26
ATOM     26  O   UNL     1       4.607   2.684  19.942  0.00  0.00    +0.000 OA
BRANCH  26  28
ATOM     27  C   UNL     1       4.334   0.692  18.667  0.00  0.00    +0.000 C 
ATOM     28  C   UNL     1       5.005   1.314  19.878  0.00  0.00    +0.000 C 
ENDBRANCH  26  28
ENDBRANCH  20  26
ENDBRANCH  18  25
ENDBRANCH   1  18
BRANCH   2  29
ATOM     29  O   UNL     1       4.865   3.458  15.600  0.00  0.00    +0.000 OA
ATOM     30  H   UNL     1       4.168   3.599  14.923  0.00  0.00    +0.000 HD
ENDBRANCH   2  29
BRANCH   5  31
ATOM     31  C   UNL     1       6.320   7.832  17.200  0.00  0.00    +0.000 C 
BRANCH  31  32
ATOM     32  C   UNL     1       7.681   7.392  17.751  0.00  0.00    +0.000 C 
BRANCH  32  33
ATOM     33  C   UNL     1       8.372   8.506  18.523  0.00  0.00    +0.000 C 
BRANCH  33  34
ATOM     34  O   UNL     1       8.292   9.713  17.770  0.00  0.00    +0.000 OA
ATOM     35  C   UNL     1       9.108  10.735  18.321  0.00  0.00    +0.000 C 
ENDBRANCH  33  34
ENDBRANCH  32  33
ENDBRANCH  31  32
ENDBRANCH   5  31
TORSDOF 11
ENDMDL
MODEL 3
REMARK VINA RESULT:      -7.3      2.038      5.800
REMARK  Name = 
REMARK  13 active torsions:
REMARK  status: ('A' for Active; 'I' for Inactive)
REMARK    1  A    between atoms: C_1  and  C_2
REMARK    2  A    between atoms: C_2  and  O_3
REMARK    3  A    between atoms: O_3  and  C_4
REMARK    4  A    between atoms: C_9  and  C_10
REMARK    5  A    between atoms: C_10  and  C_12
REMARK    6  A    between atoms: C_13  and  O_14
REMARK    7  A    between atoms: N_17  and  C_18
REMARK    8  A    between atoms: C_18  and  C_19
REMARK    9  A    between atoms: C_19  and  C_20
REMARK   10  A    between atoms: C_20  and  O_21
REMARK   11  A    between atoms: O_21  and  C_22
REMARK   12  A    between atoms: C_23  and  C_24
REMARK   13  A    between atoms: C_27  and  C_28
REMARK                            x       y       z     vdW  Elec       q    Type
REMARK                         _______ _______ _______ _____ _____    ______ ____
ROOT
ATOM      1  C   UNL     1       4.093   5.233  18.478  0.00  0.00    +0.000 C 
ATOM      2  C   UNL     1       4.811   4.268  19.077  0.00  0.00    +0.000 C 
ATOM      3  C   UNL     1       3.978   3.672  20.125  0.00  0.00    +0.000 C 
ATOM      4  O   UNL     1       4.260   2.671  20.758  0.00  0.00    +0.000 OA
ATOM      5  N   UNL     1       2.837   4.458  20.228  0.00  0.00    +0.000 N 
ATOM      6  C   UNL     1       2.710   5.371  19.072  0.00  0.00    +0.000 C 
ENDROOT
BRANCH   6   7
ATOM      7  C   UNL     1       2.199   6.758  19.473  0.00  0.00    +0.000 A 
ATOM      8  C   UNL     1       1.815   7.115  20.774  0.00  0.00    +0.000 A 
ATOM      9  C   UNL     1       1.274   8.380  21.061  0.00  0.00    +0.000 A 
ATOM     10  C   UNL     1       1.036   9.307  20.039  0.00  0.00    +0.000 A 
ATOM     11  C   UNL     1       1.460   8.984  18.762  0.00  0.00    +0.000 A 
ATOM     12  F   UNL     1       1.253   9.836  17.749  0.00  0.00    +0.000 F 
ATOM     13  C   UNL     1       2.082   7.765  18.493  0.00  0.00    +0.000 A 
BRANCH  10  14
ATOM     14  C   UNL     1       0.303  10.592  20.270  0.00  0.00    +0.000 C 
ATOM     15  F   UNL     1       1.036  11.691  19.934  0.00  0.00    +0.000 F 
ATOM     16  F   UNL     1      -0.853  10.693  19.558  0.00  0.00    +0.000 F 
ATOM     17  F   UNL     1      -0.039  10.769  21.578  0.00  0.00    +0.000 F 
ENDBRANCH  10  14
ENDBRANCH   6   7
BRANCH   1  18
ATOM     18  C   UNL     1       4.800   5.972  17.404  0.00  0.00    +0.000 C 
ATOM     19  O   UNL     1       4.698   7.205  17.369  0.00  0.00    +0.000 OA
BRANCH  18  25
ATOM     20  C   UNL     1       6.984   5.501  16.179  0.00  0.00    +0.000 A 
ATOM     21  C   UNL     1       7.588   5.017  15.012  0.00  0.00    +0.000 A 
ATOM     22  C   UNL     1       6.822   4.444  13.985  0.00  0.00    +0.000 A 
ATOM     23  C   UNL     1       5.448   4.314  14.127  0.00  0.00    +0.000 A 
ATOM     24  C   UNL     1       4.841   4.766  15.293  0.00  0.00    +0.000 A 
ATOM     25  C   UNL     1       5.597   5.363  16.323  0.00  0.00    +0.000 A 
BRANCH  20  26
ATOM     26  O   UNL     1       7.664   6.131  17.183  0.00  0.00    +0.000 OA
BRANCH  26  28
ATOM     27  C   UNL     1       8.299   8.052  18.437  0.00  0.00    +0.000 C 
ATOM     28  C   UNL     1       7.787   7.551  17.099  0.00  0.00    +0.000 C 
ENDBRANCH  26  28
ENDBRANCH  20  26
ENDBRANCH  18  25
ENDBRANCH   1  18
BRANCH   2  29
ATOM     29  O   UNL     1       6.091   3.847  18.831  0.00  0.00    +0.000 OA
ATOM     30  H   UNL     1       6.623   4.646  18.624  0.00  0.00    +0.000 HD
ENDBRANCH   2  29
BRANCH   5  31
ATOM     31  C   UNL     1       1.740   3.939  21.037  0.00  0.00    +0.000 C 
BRANCH  31  32
ATOM     32  C   UNL     1       0.588   3.428  20.165  0.00  0.00    +0.000 C 
BRANCH  32  33
ATOM     33  C   UNL     1       0.965   2.168  19.401  0.00  0.00    +0.000 C 
BRANCH  33  34
ATOM     34  O   UNL     1       1.178   2.499  18.032  0.00  0.00    +0.000 OA
ATOM     35  C   UNL     1       2.427   2.019  17.561  0.00  0.00    +0.000 C 
ENDBRANCH  33  34
ENDBRANCH  32  33
ENDBRANCH  31  32
ENDBRANCH   5  31
TORSDOF 11
ENDMDL
MODEL 4
REMARK VINA RESULT:      -7.1      1.211      1.479
REMARK  Name = 
REMARK  13 active torsions:
REMARK  status: ('A' for Active; 'I' for Inactive)
REMARK    1  A    between atoms: C_1  and  C_2
REMARK    2  A    between atoms: C_2  and  O_3
REMARK    3  A    between atoms: O_3  and  C_4
REMARK    4  A    between atoms: C_9  and  C_10
REMARK    5  A    between atoms: C_10  and  C_12
REMARK    6  A    between atoms: C_13  and  O_14
REMARK    7  A    between atoms: N_17  and  C_18
REMARK    8  A    between atoms: C_18  and  C_19
REMARK    9  A    between atoms: C_19  and  C_20
REMARK   10  A    between atoms: C_20  and  O_21
REMARK   11  A    between atoms: O_21  and  C_22
REMARK   12  A    between atoms: C_23  and  C_24
REMARK   13  A    between atoms: C_27  and  C_28
REMARK                            x       y       z     vdW  Elec       q    Type
REMARK                         _______ _______ _______ _____ _____    ______ ____
ROOT
ATOM      1  C   UNL     1       4.127   4.840  17.432  0.00  0.00    +0.000 C 
ATOM      2  C   UNL     1       4.878   4.578  16.349  0.00  0.00    +0.000 C 
ATOM      3  C   UNL     1       5.753   5.731  16.119  0.00  0.00    +0.000 C 
ATOM      4  O   UNL     1       6.668   5.765  15.316  0.00  0.00    +0.000 OA
ATOM      5  N   UNL     1       5.339   6.731  16.990  0.00  0.00    +0.000 N 
ATOM      6  C   UNL     1       4.431   6.196  18.027  0.00  0.00    +0.000 C 
ENDROOT
BRANCH   6   7
ATOM      7  C   UNL     1       3.279   7.152  18.349  0.00  0.00    +0.000 A 
ATOM      8  C   UNL     1       2.776   8.113  17.459  0.00  0.00    +0.000 A 
ATOM      9  C   UNL     1       1.772   9.019  17.845  0.00  0.00    +0.000 A 
ATOM     10  C   UNL     1       1.287   9.035  19.159  0.00  0.00    +0.000 A 
ATOM     11  C   UNL     1       1.739   8.057  20.027  0.00  0.00    +0.000 A 
ATOM     12  F   UNL     1       1.307   8.031  21.295  0.00  0.00    +0.000 F 
ATOM     13  C   UNL     1       2.667   7.099  19.618  0.00  0.00    +0.000 A 
BRANCH  10  14
ATOM     14  C   UNL     1       0.351  10.091  19.659  0.00  0.00    +0.000 C 
ATOM     15  F   UNL     1      -0.809   9.579  20.162  0.00  0.00    +0.000 F 
ATOM     16  F   UNL     1       0.876  10.853  20.658  0.00  0.00    +0.000 F 
ATOM     17  F   UNL     1      -0.029  10.958  18.679  0.00  0.00    +0.000 F 
ENDBRANCH  10  14
ENDBRANCH   6   7
BRANCH   1  18
ATOM     18  C   UNL     1       3.150   3.785  17.793  0.00  0.00    +0.000 C 
ATOM     19  O   UNL     1       2.708   3.055  16.895  0.00  0.00    +0.000 OA
BRANCH  18  25
ATOM     20  C   UNL     1       3.298   2.901  20.177  0.00  0.00    +0.000 A 
ATOM     21  C   UNL     1       2.602   2.579  21.350  0.00  0.00    +0.000 A 
ATOM     22  C   UNL     1       1.232   2.851  21.475  0.00  0.00    +0.000 A 
ATOM     23  C   UNL     1       0.546   3.480  20.445  0.00  0.00    +0.000 A 
ATOM     24  C   UNL     1       1.232   3.828  19.288  0.00  0.00    +0.000 A 
ATOM     25  C   UNL     1       2.606   3.541  19.141  0.00  0.00    +0.000 A 
BRANCH  20  26
ATOM     26  O   UNL     1       4.614   2.600  19.967  0.00  0.00    +0.000 OA
BRANCH  26  28
ATOM     27  C   UNL     1       5.547   0.868  21.308  0.00  0.00    +0.000 C 
ATOM     28  C   UNL     1       4.975   1.218  19.947  0.00  0.00    +0.000 C 
ENDBRANCH  26  28
ENDBRANCH  20  26
ENDBRANCH  18  25
ENDBRANCH   1  18
BRANCH   2  29
ATOM     29  O   UNL     1       4.895   3.473  15.540  0.00  0.00    +0.000 OA
ATOM     30  H   UNL     1       5.497   3.673  14.791  0.00  0.00    +0.000 HD
ENDBRANCH   2  29
BRANCH   5  31
ATOM     31  C   UNL     1       6.202   7.899  17.123  0.00  0.00    +0.000 C 
BRANCH  31  32
ATOM     32  C   UNL     1       7.679   7.501  17.216  0.00  0.00    +0.000 C 
BRANCH  32  33
ATOM     33  C   UNL     1       8.095   7.174  18.642  0.00  0.00    +0.000 C 
BRANCH  33  34
ATOM     34  O   UNL     1       8.139   5.758  18.800  0.00  0.00    +0.000 OA
ATOM     35  C   UNL     1       7.203   5.305  19.766  0.00  0.00    +0.000 C 
ENDBRANCH  33  34
ENDBRANCH  32  33
ENDBRANCH  31  32
ENDBRANCH   5  31
TORSDOF 11
ENDMDL
MODEL 5
REMARK VINA RESULT:      -6.9      0.958      1.574
REMARK  Name = 
REMARK  13 active torsions:
REMARK  status: ('A' for Active; 'I' for Inactive)
REMARK    1  A    between atoms: C_1  and  C_2
REMARK    2  A    between atoms: C_2  and  O_3
REMARK    3  A    between atoms: O_3  and  C_4
REMARK    4  A    between atoms: C_9  and  C_10
REMARK    5  A    between atoms: C_10  and  C_12
REMARK    6  A    between atoms: C_13  and  O_14
REMARK    7  A    between atoms: N_17  and  C_18
REMARK    8  A    between atoms: C_18  and  C_19
REMARK    9  A    between atoms: C_19  and  C_20
REMARK   10  A    between atoms: C_20  and  O_21
REMARK   11  A    between atoms: O_21  and  C_22
REMARK   12  A    between atoms: C_23  and  C_24
REMARK   13  A    between atoms: C_27  and  C_28
REMARK                            x       y       z     vdW  Elec       q    Type
REMARK                         _______ _______ _______ _____ _____    ______ ____
ROOT
ATOM      1  C   UNL     1       4.070   4.792  17.400  0.00  0.00    +0.000 C 
ATOM      2  C   UNL     1       4.723   4.557  16.249  0.00  0.00    +0.000 C 
ATOM      3  C   UNL     1       5.680   5.648  16.044  0.00  0.00    +0.000 C 
ATOM      4  O   UNL     1       6.539   5.671  15.182  0.00  0.00    +0.000 OA
ATOM      5  N   UNL     1       5.413   6.606  17.015  0.00  0.00    +0.000 N 
ATOM      6  C   UNL     1       4.532   6.065  18.072  0.00  0.00    +0.000 C 
ENDROOT
BRANCH   6   7
ATOM      7  C   UNL     1       3.491   7.084  18.546  0.00  0.00    +0.000 A 
ATOM      8  C   UNL     1       2.775   6.983  19.748  0.00  0.00    +0.000 A 
ATOM      9  C   UNL     1       1.771   7.907  20.087  0.00  0.00    +0.000 A 
ATOM     10  C   UNL     1       1.404   8.925  19.199  0.00  0.00    +0.000 A 
ATOM     11  C   UNL     1       2.141   9.065  18.035  0.00  0.00    +0.000 A 
ATOM     12  F   UNL     1       1.828  10.023  17.152  0.00  0.00    +0.000 F 
ATOM     13  C   UNL     1       3.198   8.204  17.741  0.00  0.00    +0.000 A 
BRANCH  10  14
ATOM     14  C   UNL     1       0.228   9.820  19.439  0.00  0.00    +0.000 C 
ATOM     15  F   UNL     1      -0.647   9.842  18.393  0.00  0.00    +0.000 F 
ATOM     16  F   UNL     1      -0.511   9.464  20.526  0.00  0.00    +0.000 F 
ATOM     17  F   UNL     1       0.593  11.118  19.635  0.00  0.00    +0.000 F 
ENDBRANCH  10  14
ENDBRANCH   6   7
BRANCH   1  18
ATOM     18  C   UNL     1       3.030   3.795  17.750  0.00  0.00    +0.000 C 
ATOM     19  O   UNL     1       2.511   3.136  16.839  0.00  0.00    +0.000 OA
BRANCH  18  25
ATOM     20  C   UNL     1       3.245   2.957  20.146  0.00  0.00    +0.000 A 
ATOM     21  C   UNL     1       2.577   2.607  21.327  0.00  0.00    +0.000 A 
ATOM     22  C   UNL     1       1.192   2.792  21.455  0.00  0.00    +0.000 A 
ATOM     23  C   UNL     1       0.463   3.361  20.420  0.00  0.00    +0.000 A 
ATOM     24  C   UNL     1       1.120   3.736  19.255  0.00  0.00    +0.000 A 
ATOM     25  C   UNL     1       2.509   3.536  19.105  0.00  0.00    +0.000 A 
BRANCH  20  26
ATOM     26  O   UNL     1       4.577   2.738  19.934  0.00  0.00    +0.000 OA
BRANCH  26  28
ATOM     27  C   UNL     1       4.291   0.704  18.730  0.00  0.00    +0.000 C 
ATOM     28  C   UNL     1       5.017   1.381  19.878  0.00  0.00    +0.000 C 
ENDBRANCH  26  28
ENDBRANCH  20  26
ENDBRANCH  18  25
ENDBRANCH   1  18
BRANCH   2  29
ATOM     29  O   UNL     1       4.590   3.523  15.361  0.00  0.00    +0.000 OA
ATOM     30  H   UNL     1       5.106   3.762  14.561  0.00  0.00    +0.000 HD
ENDBRANCH   2  29
BRANCH   5  31
ATOM     31  C   UNL     1       6.382   7.684  17.173  0.00  0.00    +0.000 C 
BRANCH  31  32
ATOM     32  C   UNL     1       7.673   7.190  17.836  0.00  0.00    +0.000 C 
BRANCH  32  33
ATOM     33  C   UNL     1       8.419   8.313  18.541  0.00  0.00    +0.000 C 
BRANCH  33  34
ATOM     34  O   UNL     1       8.150   9.542  17.871  0.00  0.00    +0.000 OA
ATOM     35  C   UNL     1       9.035  10.572  18.283  0.00  0.00    +0.000 C 
ENDBRANCH  33  34
ENDBRANCH  32  33
ENDBRANCH  31  32
ENDBRANCH   5  31
TORSDOF 11
ENDMDL
MODEL 6
REMARK VINA RESULT:      -6.8      6.406     10.839
REMARK  Name = 
REMARK  13 active torsions:
REMARK  status: ('A' for Active; 'I' for Inactive)
REMARK    1  A    between atoms: C_1  and  C_2
REMARK    2  A    between atoms: C_2  and  O_3
REMARK    3  A    between atoms: O_3  and  C_4
REMARK    4  A    between atoms: C_9  and  C_10
REMARK    5  A    between atoms: C_10  and  C_12
REMARK    6  A    between atoms: C_13  and  O_14
REMARK    7  A    between atoms: N_17  and  C_18
REMARK    8  A    between atoms: C_18  and  C_19
REMARK    9  A    between atoms: C_19  and  C_20
REMARK   10  A    between atoms: C_20  and  O_21
REMARK   11  A    between atoms: O_21  and  C_22
REMARK   12  A    between atoms: C_23  and  C_24
REMARK   13  A    between atoms: C_27  and  C_28
REMARK                            x       y       z     vdW  Elec       q    Type
REMARK                         _______ _______ _______ _____ _____    ______ ____
ROOT
ATOM      1  C   UNL     1      -0.406  13.619  20.194  0.00  0.00    +0.000 C 
ATOM      2  C   UNL     1       0.465  13.212  21.132  0.00  0.00    +0.000 C 
ATOM      3  C   UNL     1       0.581  11.754  21.036  0.00  0.00    +0.000 C 
ATOM      4  O   UNL     1       1.398  11.077  21.632  0.00  0.00    +0.000 OA
ATOM      5  N   UNL     1      -0.396  11.330  20.143  0.00  0.00    +0.000 N 
ATOM      6  C   UNL     1      -0.956  12.467  19.383  0.00  0.00    +0.000 C 
ENDROOT
BRANCH   6   7
ATOM      7  C   UNL     1      -2.469  12.348  19.175  0.00  0.00    +0.000 A 
ATOM      8  C   UNL     1      -3.429  12.719  20.127  0.00  0.00    +0.000 A 
ATOM      9  C   UNL     1      -4.802  12.506  19.909  0.00  0.00    +0.000 A 
ATOM     10  C   UNL     1      -5.252  11.849  18.758  0.00  0.00    +0.000 A 
ATOM     11  C   UNL     1      -4.316  11.528  17.789  0.00  0.00    +0.000 A 
ATOM     12  F   UNL     1      -4.695  10.897  16.670  0.00  0.00    +0.000 F 
ATOM     13  C   UNL     1      -2.964  11.823  17.964  0.00  0.00    +0.000 A 
BRANCH  10  14
ATOM     14  C   UNL     1      -6.680  11.445  18.566  0.00  0.00    +0.000 C 
ATOM     15  F   UNL     1      -7.484  11.820  19.602  0.00  0.00    +0.000 F 
ATOM     16  F   UNL     1      -7.251  11.980  17.451  0.00  0.00    +0.000 F 
ATOM     17  F   UNL     1      -6.830  10.095  18.460  0.00  0.00    +0.000 F 
ENDBRANCH  10  14
ENDBRANCH   6   7
BRANCH   1  18
ATOM     18  C   UNL     1      -0.672  15.077  20.170  0.00  0.00    +0.000 C 
ATOM     19  O   UNL     1      -1.411  15.558  21.040  0.00  0.00    +0.000 OA
BRANCH  18  25
ATOM     20  C   UNL     1       1.187  16.220  18.856  0.00  0.00    +0.000 A 
ATOM     21  C   UNL     1       1.539  17.277  18.007  0.00  0.00    +0.000 A 
ATOM     22  C   UNL     1       0.566  18.153  17.503  0.00  0.00    +0.000 A 
ATOM     23  C   UNL     1      -0.774  17.965  17.812  0.00  0.00    +0.000 A 
ATOM     24  C   UNL     1      -1.137  16.904  18.633  0.00  0.00    +0.000 A 
ATOM     25  C   UNL     1      -0.166  16.027  19.163  0.00  0.00    +0.000 A 
BRANCH  20  26
ATOM     26  O   UNL     1       2.093  15.375  19.434  0.00  0.00    +0.000 OA
BRANCH  26  28
ATOM     27  C   UNL     1       2.738  13.418  18.243  0.00  0.00    +0.000 C 
ATOM     28  C   UNL     1       3.119  14.843  18.596  0.00  0.00    +0.000 C 
ENDBRANCH  26  28
ENDBRANCH  20  26
ENDBRANCH  18  25
ENDBRANCH   1  18
BRANCH   2  29
ATOM     29  O   UNL     1       1.164  13.943  22.056  0.00  0.00    +0.000 OA
ATOM     30  H   UNL     1       0.887  14.878  21.953  0.00  0.00    +0.000 HD
ENDBRANCH   2  29
BRANCH   5  31
ATOM     31  C   UNL     1      -0.335   9.944  19.695  0.00  0.00    +0.000 C 
BRANCH  31  32
ATOM     32  C   UNL     1       0.142   9.841  18.242  0.00  0.00    +0.000 C 
BRANCH  32  33
ATOM     33  C   UNL     1       1.659   9.898  18.133  0.00  0.00    +0.000 C 
BRANCH  33  34
ATOM     34  O   UNL     1       2.111   8.793  17.355  0.00  0.00    +0.000 OA
ATOM     35  C   UNL     1       2.636   7.755  18.167  0.00  0.00    +0.000 C 
ENDBRANCH  33  34
ENDBRANCH  32  33
ENDBRANCH  31  32
ENDBRANCH   5  31
TORSDOF 11
ENDMDL
MODEL 7
REMARK VINA RESULT:      -6.8      7.624     11.350
REMARK  Name = 
REMARK  13 active torsions:
REMARK  status: ('A' for Active; 'I' for Inactive)
REMARK    1  A    between atoms: C_1  and  C_2
REMARK    2  A    between atoms: C_2  and  O_3
REMARK    3  A    between atoms: O_3  and  C_4
REMARK    4  A    between atoms: C_9  and  C_10
REMARK    5  A    between atoms: C_10  and  C_12
REMARK    6  A    between atoms: C_13  and  O_14
REMARK    7  A    between atoms: N_17  and  C_18
REMARK    8  A    between atoms: C_18  and  C_19
REMARK    9  A    between atoms: C_19  and  C_20
REMARK   10  A    between atoms: C_20  and  O_21
REMARK   11  A    between atoms: O_21  and  C_22
REMARK   12  A    between atoms: C_23  and  C_24
REMARK   13  A    between atoms: C_27  and  C_28
REMARK                            x       y       z     vdW  Elec       q    Type
REMARK                         _______ _______ _______ _____ _____    ______ ____
ROOT
ATOM      1  C   UNL     1      -3.935  13.950  21.268  0.00  0.00    +0.000 C 
ATOM      2  C   UNL     1      -4.267  14.992  22.049  0.00  0.00    +0.000 C 
ATOM      3  C   UNL     1      -3.079  15.836  22.201  0.00  0.00    +0.000 C 
ATOM      4  O   UNL     1      -3.067  16.939  22.716  0.00  0.00    +0.000 OA
ATOM      5  N   UNL     1      -2.015  15.140  21.641  0.00  0.00    +0.000 N 
ATOM      6  C   UNL     1      -2.490  14.002  20.826  0.00  0.00    +0.000 C 
ENDROOT
BRANCH   6   7
ATOM      7  C   UNL     1      -1.610  12.758  20.985  0.00  0.00    +0.000 A 
ATOM      8  C   UNL     1      -0.826  12.208  19.960  0.00  0.00    +0.000 A 
ATOM      9  C   UNL     1      -0.106  11.015  20.144  0.00  0.00    +0.000 A 
ATOM     10  C   UNL     1      -0.203  10.296  21.342  0.00  0.00    +0.000 A 
ATOM     11  C   UNL     1      -0.931  10.858  22.377  0.00  0.00    +0.000 A 
ATOM     12  F   UNL     1      -1.056  10.210  23.542  0.00  0.00    +0.000 F 
ATOM     13  C   UNL     1      -1.571  12.088  22.225  0.00  0.00    +0.000 A 
BRANCH  10  14
ATOM     14  C   UNL     1       0.403   8.938  21.520  0.00  0.00    +0.000 C 
ATOM     15  F   UNL     1       1.191   8.848  22.629  0.00  0.00    +0.000 F 
ATOM     16  F   UNL     1      -0.519   7.945  21.646  0.00  0.00    +0.000 F 
ATOM     17  F   UNL     1       1.204   8.585  20.475  0.00  0.00    +0.000 F 
ENDBRANCH  10  14
ENDBRANCH   6   7
BRANCH   1  18
ATOM     18  C   UNL     1      -5.019  12.965  21.035  0.00  0.00    +0.000 C 
ATOM     19  O   UNL     1      -5.325  12.193  21.953  0.00  0.00    +0.000 OA
BRANCH  18  25
ATOM     20  C   UNL     1      -5.233  12.176  18.622  0.00  0.00    +0.000 A 
ATOM     21  C   UNL     1      -5.980  12.225  17.438  0.00  0.00    +0.000 A 
ATOM     22  C   UNL     1      -7.208  12.902  17.386  0.00  0.00    +0.000 A 
ATOM     23  C   UNL     1      -7.722  13.507  18.524  0.00  0.00    +0.000 A 
ATOM     24  C   UNL     1      -7.002  13.442  19.711  0.00  0.00    +0.000 A 
ATOM     25  C   UNL     1      -5.756  12.782  19.771  0.00  0.00    +0.000 A 
BRANCH  20  26
ATOM     26  O   UNL     1      -4.000  11.594  18.720  0.00  0.00    +0.000 OA
BRANCH  26  28
ATOM     27  C   UNL     1      -2.744   9.864  17.672  0.00  0.00    +0.000 C 
ATOM     28  C   UNL     1      -3.341  11.249  17.501  0.00  0.00    +0.000 C 
ENDBRANCH  26  28
ENDBRANCH  20  26
ENDBRANCH  18  25
ENDBRANCH   1  18
BRANCH   2  29
ATOM     29  O   UNL     1      -5.463  15.296  22.644  0.00  0.00    +0.000 OA
ATOM     30  H   UNL     1      -5.268  15.546  23.572  0.00  0.00    +0.000 HD
ENDBRANCH   2  29
BRANCH   5  31
ATOM     31  C   UNL     1      -0.765  15.868  21.455  0.00  0.00    +0.000 C 
BRANCH  31  32
ATOM     32  C   UNL     1       0.253  15.531  22.551  0.00  0.00    +0.000 C 
BRANCH  32  33
ATOM     33  C   UNL     1       1.661  15.382  21.996  0.00  0.00    +0.000 C 
BRANCH  33  34
ATOM     34  O   UNL     1       1.971  13.996  21.880  0.00  0.00    +0.000 OA
ATOM     35  C   UNL     1       2.505  13.679  20.604  0.00  0.00    +0.000 C 
ENDBRANCH  33  34
ENDBRANCH  32  33
ENDBRANCH  31  32
ENDBRANCH   5  31
TORSDOF 11
ENDMDL
MODEL 8
REMARK VINA RESULT:      -6.8      2.019      5.649
REMARK  Name = 
REMARK  13 active torsions:
REMARK  status: ('A' for Active; 'I' for Inactive)
REMARK    1  A    between atoms: C_1  and  C_2
REMARK    2  A    between atoms: C_2  and  O_3
REMARK    3  A    between atoms: O_3  and  C_4
REMARK    4  A    between atoms: C_9  and  C_10
REMARK    5  A    between atoms: C_10  and  C_12
REMARK    6  A    between atoms: C_13  and  O_14
REMARK    7  A    between atoms: N_17  and  C_18
REMARK    8  A    between atoms: C_18  and  C_19
REMARK    9  A    between atoms: C_19  and  C_20
REMARK   10  A    between atoms: C_20  and  O_21
REMARK   11  A    between atoms: O_21  and  C_22
REMARK   12  A    between atoms: C_23  and  C_24
REMARK   13  A    between atoms: C_27  and  C_28
REMARK                            x       y       z     vdW  Elec       q    Type
REMARK                         _______ _______ _______ _____ _____    ______ ____
ROOT
ATOM      1  C   UNL     1       4.095   5.330  18.283  0.00  0.00    +0.000 C 
ATOM      2  C   UNL     1       4.820   4.446  18.990  0.00  0.00    +0.000 C 
ATOM      3  C   UNL     1       3.954   3.885  20.032  0.00  0.00    +0.000 C 
ATOM      4  O   UNL     1       4.243   2.946  20.750  0.00  0.00    +0.000 OA
ATOM      5  N   UNL     1       2.774   4.619  20.013  0.00  0.00    +0.000 N 
ATOM      6  C   UNL     1       2.675   5.441  18.788  0.00  0.00    +0.000 C 
ENDROOT
BRANCH   6   7
ATOM      7  C   UNL     1       2.079   6.827  19.058  0.00  0.00    +0.000 A 
ATOM      8  C   UNL     1       1.898   7.814  18.078  0.00  0.00    +0.000 A 
ATOM      9  C   UNL     1       1.425   9.097  18.406  0.00  0.00    +0.000 A 
ATOM     10  C   UNL     1       1.183   9.454  19.737  0.00  0.00    +0.000 A 
ATOM     11  C   UNL     1       1.307   8.471  20.704  0.00  0.00    +0.000 A 
ATOM     12  F   UNL     1       1.088   8.762  21.993  0.00  0.00    +0.000 F 
ATOM     13  C   UNL     1       1.688   7.172  20.368  0.00  0.00    +0.000 A 
BRANCH  10  14
ATOM     14  C   UNL     1       0.849  10.854  20.149  0.00  0.00    +0.000 C 
ATOM     15  F   UNL     1       1.674  11.335  21.123  0.00  0.00    +0.000 F 
ATOM     16  F   UNL     1       0.927  11.753  19.129  0.00  0.00    +0.000 F 
ATOM     17  F   UNL     1      -0.412  10.962  20.656  0.00  0.00    +0.000 F 
ENDBRANCH  10  14
ENDBRANCH   6   7
BRANCH   1  18
ATOM     18  C   UNL     1       4.830   6.025  17.199  0.00  0.00    +0.000 C 
ATOM     19  O   UNL     1       4.777   7.261  17.147  0.00  0.00    +0.000 OA
BRANCH  18  25
ATOM     20  C   UNL     1       6.877   5.767  15.705  0.00  0.00    +0.000 A 
ATOM     21  C   UNL     1       7.420   5.169  14.560  0.00  0.00    +0.000 A 
ATOM     22  C   UNL     1       6.692   4.224  13.823  0.00  0.00    +0.000 A 
ATOM     23  C   UNL     1       5.426   3.836  14.239  0.00  0.00    +0.000 A 
ATOM     24  C   UNL     1       4.888   4.403  15.388  0.00  0.00    +0.000 A 
ATOM     25  C   UNL     1       5.602   5.370  16.127  0.00  0.00    +0.000 A 
BRANCH  20  26
ATOM     26  O   UNL     1       7.506   6.742  16.425  0.00  0.00    +0.000 OA
BRANCH  26  28
ATOM     27  C   UNL     1       8.215   7.743  18.466  0.00  0.00    +0.000 C 
ATOM     28  C   UNL     1       7.846   6.441  17.779  0.00  0.00    +0.000 C 
ENDBRANCH  26  28
ENDBRANCH  20  26
ENDBRANCH  18  25
ENDBRANCH   1  18
BRANCH   2  29
ATOM     29  O   UNL     1       6.129   4.072  18.847  0.00  0.00    +0.000 OA
ATOM     30  H   UNL     1       6.678   4.795  19.221  0.00  0.00    +0.000 HD
ENDBRANCH   2  29
BRANCH   5  31
ATOM     31  C   UNL     1       1.656   4.106  20.796  0.00  0.00    +0.000 C 
BRANCH  31  32
ATOM     32  C   UNL     1       0.573   3.495  19.900  0.00  0.00    +0.000 C 
BRANCH  32  33
ATOM     33  C   UNL     1       1.022   2.184  19.273  0.00  0.00    +0.000 C 
BRANCH  33  34
ATOM     34  O   UNL     1       1.299   2.399  17.892  0.00  0.00    +0.000 OA
ATOM     35  C   UNL     1       2.604   1.965  17.542  0.00  0.00    +0.000 C 
ENDBRANCH  33  34
ENDBRANCH  32  33
ENDBRANCH  31  32
ENDBRANCH   5  31
TORSDOF 11
ENDMDL
MODEL 9
REMARK VINA RESULT:      -6.8      5.866      8.905
REMARK  Name = 
REMARK  13 active torsions:
REMARK  status: ('A' for Active; 'I' for Inactive)
REMARK    1  A    between atoms: C_1  and  C_2
REMARK    2  A    between atoms: C_2  and  O_3
REMARK    3  A    between atoms: O_3  and  C_4
REMARK    4  A    between atoms: C_9  and  C_10
REMARK    5  A    between atoms: C_10  and  C_12
REMARK    6  A    between atoms: C_13  and  O_14
REMARK    7  A    between atoms: N_17  and  C_18
REMARK    8  A    between atoms: C_18  and  C_19
REMARK    9  A    between atoms: C_19  and  C_20
REMARK   10  A    between atoms: C_20  and  O_21
REMARK   11  A    between atoms: O_21  and  C_22
REMARK   12  A    between atoms: C_23  and  C_24
REMARK   13  A    between atoms: C_27  and  C_28
REMARK                            x       y       z     vdW  Elec       q    Type
REMARK                         _______ _______ _______ _____ _____    ______ ____
ROOT
ATOM      1  C   UNL     1       1.064  12.189  19.530  0.00  0.00    +0.000 C 
ATOM      2  C   UNL     1       1.860  12.946  18.755  0.00  0.00    +0.000 C 
ATOM      3  C   UNL     1       2.276  14.111  19.541  0.00  0.00    +0.000 C 
ATOM      4  O   UNL     1       3.121  14.918  19.199  0.00  0.00    +0.000 OA
ATOM      5  N   UNL     1       1.539  14.088  20.718  0.00  0.00    +0.000 N 
ATOM      6  C   UNL     1       0.876  12.781  20.909  0.00  0.00    +0.000 C 
ENDROOT
BRANCH   6   7
ATOM      7  C   UNL     1      -0.538  12.917  21.481  0.00  0.00    +0.000 A 
ATOM      8  C   UNL     1      -0.967  12.328  22.680  0.00  0.00    +0.000 A 
ATOM      9  C   UNL     1      -2.303  12.420  23.108  0.00  0.00    +0.000 A 
ATOM     10  C   UNL     1      -3.269  13.049  22.314  0.00  0.00    +0.000 A 
ATOM     11  C   UNL     1      -2.845  13.679  21.157  0.00  0.00    +0.000 A 
ATOM     12  F   UNL     1      -3.731  14.293  20.361  0.00  0.00    +0.000 F 
ATOM     13  C   UNL     1      -1.503  13.667  20.777  0.00  0.00    +0.000 A 
BRANCH  10  14
ATOM     14  C   UNL     1      -4.729  13.019  22.645  0.00  0.00    +0.000 C 
ATOM     15  F   UNL     1      -4.990  12.435  23.850  0.00  0.00    +0.000 F 
ATOM     16  F   UNL     1      -5.298  14.255  22.708  0.00  0.00    +0.000 F 
ATOM     17  F   UNL     1      -5.455  12.312  21.734  0.00  0.00    +0.000 F 
ENDBRANCH  10  14
ENDBRANCH   6   7
BRANCH   1  18
ATOM     18  C   UNL     1       0.518  10.975  18.878  0.00  0.00    +0.000 C 
ATOM     19  O   UNL     1      -0.553  11.065  18.262  0.00  0.00    +0.000 OA
BRANCH  18  25
ATOM     20  C   UNL     1       1.132   8.805  20.061  0.00  0.00    +0.000 A 
ATOM     21  C   UNL     1       1.887   7.625  20.022  0.00  0.00    +0.000 A 
ATOM     22  C   UNL     1       2.647   7.291  18.891  0.00  0.00    +0.000 A 
ATOM     23  C   UNL     1       2.634   8.111  17.772  0.00  0.00    +0.000 A 
ATOM     24  C   UNL     1       1.868   9.270  17.790  0.00  0.00    +0.000 A 
ATOM     25  C   UNL     1       1.116   9.629  18.929  0.00  0.00    +0.000 A 
BRANCH  20  26
ATOM     26  O   UNL     1       0.429   9.221  21.156  0.00  0.00    +0.000 OA
BRANCH  26  28
ATOM     27  C   UNL     1       0.068   9.361  23.505  0.00  0.00    +0.000 C 
ATOM     28  C   UNL     1       1.110   9.220  22.411  0.00  0.00    +0.000 C 
ENDBRANCH  26  28
ENDBRANCH  20  26
ENDBRANCH  18  25
ENDBRANCH   1  18
BRANCH   2  29
ATOM     29  O   UNL     1       2.262  12.754  17.460  0.00  0.00    +0.000 OA
ATOM     30  H   UNL     1       2.496  11.805  17.369  0.00  0.00    +0.000 HD
ENDBRANCH   2  29
BRANCH   5  31
ATOM     31  C   UNL     1       1.939  15.010  21.774  0.00  0.00    +0.000 C 
BRANCH  31  32
ATOM     32  C   UNL     1       1.271  16.380  21.610  0.00  0.00    +0.000 C 
BRANCH  32  33
ATOM     33  C   UNL     1       0.091  16.557  22.554  0.00  0.00    +0.000 C 
BRANCH  33  34
ATOM     34  O   UNL     1       0.179  15.589  23.596  0.00  0.00    +0.000 OA
ATOM     35  C   UNL     1      -0.974  15.598  24.423  0.00  0.00    +0.000 C 
ENDBRANCH  33  34
ENDBRANCH  32  33
ENDBRANCH  31  32
ENDBRANCH   5  31
TORSDOF 11
ENDMDL
