MODEL 1
REMARK VINA RESULT:      -7.8      0.000      0.000
REMARK  Name = 
REMARK  5 active torsions:
REMARK  status: ('A' for Active; 'I' for Inactive)
REMARK    1  A    between atoms: C_2  and  C_3
REMARK    2  A    between atoms: C_3  and  C_4
REMARK    3  A    between atoms: C_4  and  C_5
REMARK    4  A    between atoms: C_15  and  C_16
REMARK    5  A    between atoms: C_16  and  C_17
REMARK                            x       y       z     vdW  Elec       q    Type
REMARK                         _______ _______ _______ _____ _____    ______ ____
ROOT
ATOM      1  O   UNL     1       5.128   6.679  17.614  0.00  0.00    +0.000 OA
ATOM      2  C   UNL     1       5.068   5.522  18.025  0.00  0.00    +0.000 C 
ATOM      3  N   UNL     1       3.873   4.863  18.349  0.00  0.00    +0.000 N 
ATOM      4  C   UNL     1       3.851   3.457  18.782  0.00  0.00    +0.000 C 
ATOM      5  C   UNL     1       2.738   2.665  18.106  0.00  0.00    +0.000 C 
ATOM      6  C   UNL     1       1.392   3.348  18.273  0.00  0.00    +0.000 C 
ATOM      7  C   UNL     1       1.457   4.799  17.798  0.00  0.00    +0.000 C 
ATOM      8  C   UNL     1       2.573   5.582  18.525  0.00  0.00    +0.000 C 
ENDROOT
BRANCH   2   9
ATOM      9  C   UNL     1       6.342   4.727  18.213  0.00  0.00    +0.000 C 
BRANCH   9  10
ATOM     10  C   UNL     1       7.464   5.167  17.278  0.00  0.00    +0.000 C 
BRANCH  10  11
ATOM     11  C   UNL     1       7.119   4.831  15.856  0.00  0.00    +0.000 A 
ATOM     12  N   UNL     1       7.660   5.407  14.801  0.00  0.00    +0.000 NA
ATOM     13  C   UNL     1       7.126   4.871  13.649  0.00  0.00    +0.000 A 
ATOM     14  C   UNL     1       6.178   3.891  13.836  0.00  0.00    +0.000 A 
ATOM     15  S   UNL     1       5.942   3.624  15.513  0.00  0.00    +0.000 S 
ENDBRANCH  10  11
ENDBRANCH   9  10
ENDBRANCH   2   9
BRANCH   8  16
ATOM     16  C   UNL     1       2.545   7.083  18.142  0.00  0.00    +0.000 C 
BRANCH  16  17
ATOM     17  C   UNL     1       1.878   8.015  19.134  0.00  0.00    +0.000 A 
ATOM     18  C   UNL     1       1.758   7.670  20.489  0.00  0.00    +0.000 A 
ATOM     19  C   UNL     1       1.186   8.566  21.395  0.00  0.00    +0.000 A 
ATOM     20  C   UNL     1       0.746   9.807  20.951  0.00  0.00    +0.000 A 
ATOM     21  F   UNL     1       0.207  10.669  21.824  0.00  0.00    +0.000 F 
ATOM     22  C   UNL     1       0.865  10.172  19.616  0.00  0.00    +0.000 A 
ATOM     23  C   UNL     1       1.433   9.277  18.708  0.00  0.00    +0.000 A 
ENDBRANCH  16  17
ENDBRANCH   8  16
TORSDOF 5
ENDMDL
MODEL 2
REMARK VINA RESULT:      -7.7      0.471      1.107
REMARK  Name = 
REMARK  5 active torsions:
REMARK  status: ('A' for Active; 'I' for Inactive)
REMARK    1  A    between atoms: C_2  and  C_3
REMARK    2  A    between atoms: C_3  and  C_4
REMARK    3  A    between atoms: C_4  and  C_5
REMARK    4  A    between atoms: C_15  and  C_16
REMARK    5  A    between atoms: C_16  and  C_17
REMARK                            x       y       z     vdW  Elec       q    Type
REMARK                         _______ _______ _______ _____ _____    ______ ____
ROOT
ATOM      1  O   UNL     1       5.423   6.618  17.704  0.00  0.00    +0.000 OA
ATOM      2  C   UNL     1       5.247   5.478  18.129  0.00  0.00    +0.000 C 
ATOM      3  N   UNL     1       3.987   4.935  18.421  0.00  0.00    +0.000 N 
ATOM      4  C   UNL     1       3.825   3.544  18.873  0.00  0.00    +0.000 C 
ATOM      5  C   UNL     1       2.668   2.842  18.170  0.00  0.00    +0.000 C 
ATOM      6  C   UNL     1       1.384   3.644  18.280  0.00  0.00    +0.000 C 
ATOM      7  C   UNL     1       1.595   5.076  17.786  0.00  0.00    +0.000 C 
ATOM      8  C   UNL     1       2.751   5.769  18.540  0.00  0.00    +0.000 C 
ENDROOT
BRANCH   2   9
ATOM      9  C   UNL     1       6.437   4.576  18.374  0.00  0.00    +0.000 C 
BRANCH   9  10
ATOM     10  C   UNL     1       7.597   4.848  17.422  0.00  0.00    +0.000 C 
BRANCH  10  11
ATOM     11  C   UNL     1       7.156   4.669  15.998  0.00  0.00    +0.000 A 
ATOM     12  N   UNL     1       7.656   5.328  14.972  0.00  0.00    +0.000 NA
ATOM     13  C   UNL     1       7.034   4.929  13.810  0.00  0.00    +0.000 A 
ATOM     14  C   UNL     1       6.061   3.967  13.959  0.00  0.00    +0.000 A 
ATOM     15  S   UNL     1       5.914   3.542  15.613  0.00  0.00    +0.000 S 
ENDBRANCH  10  11
ENDBRANCH   9  10
ENDBRANCH   2   9
BRANCH   8  16
ATOM     16  C   UNL     1       2.870   7.259  18.135  0.00  0.00    +0.000 C 
BRANCH  16  17
ATOM     17  C   UNL     1       1.965   8.229  18.870  0.00  0.00    +0.000 A 
ATOM     18  C   UNL     1       1.359   9.305  18.204  0.00  0.00    +0.000 A 
ATOM     19  C   UNL     1       0.488  10.155  18.888  0.00  0.00    +0.000 A 
ATOM     20  C   UNL     1       0.215   9.924  20.231  0.00  0.00    +0.000 A 
ATOM     21  F   UNL     1      -0.629  10.735  20.884  0.00  0.00    +0.000 F 
ATOM     22  C   UNL     1       0.796   8.858  20.905  0.00  0.00    +0.000 A 
ATOM     23  C   UNL     1       1.669   8.009  20.225  0.00  0.00    +0.000 A 
ENDBRANCH  16  17
ENDBRANCH   8  16
TORSDOF 5
ENDMDL
MODEL 3
REMARK VINA RESULT:      -7.7      0.934      1.452
REMARK  Name = 
REMARK  5 active torsions:
REMARK  status: ('A' for Active; 'I' for Inactive)
REMARK    1  A    between atoms: C_2  and  C_3
REMARK    2  A    between atoms: C_3  and  C_4
REMARK    3  A    between atoms: C_4  and  C_5
REMARK    4  A    between atoms: C_15  and  C_16
REMARK    5  A    between atoms: C_16  and  C_17
REMARK                            x       y       z     vdW  Elec       q    Type
REMARK                         _______ _______ _______ _____ _____    ______ ____
ROOT
ATOM      1  O   UNL     1       4.998   6.417  16.463  0.00  0.00    +0.000 OA
ATOM      2  C   UNL     1       4.938   5.242  16.820  0.00  0.00    +0.000 C 
ATOM      3  N   UNL     1       3.863   4.692  17.534  0.00  0.00    +0.000 N 
ATOM      4  C   UNL     1       3.813   3.264  17.888  0.00  0.00    +0.000 C 
ATOM      5  C   UNL     1       2.437   2.658  17.637  0.00  0.00    +0.000 C 
ATOM      6  C   UNL     1       1.344   3.466  18.314  0.00  0.00    +0.000 C 
ATOM      7  C   UNL     1       1.425   4.937  17.907  0.00  0.00    +0.000 C 
ATOM      8  C   UNL     1       2.821   5.529  18.204  0.00  0.00    +0.000 C 
ENDROOT
BRANCH   2   9
ATOM      9  C   UNL     1       6.077   4.301  16.495  0.00  0.00    +0.000 C 
BRANCH   9  10
ATOM     10  C   UNL     1       7.276   5.008  15.872  0.00  0.00    +0.000 C 
BRANCH  10  11
ATOM     11  C   UNL     1       7.249   4.861  14.378  0.00  0.00    +0.000 A 
ATOM     12  N   UNL     1       7.983   5.571  13.545  0.00  0.00    +0.000 NA
ATOM     13  C   UNL     1       7.720   5.191  12.247  0.00  0.00    +0.000 A 
ATOM     14  C   UNL     1       6.784   4.192  12.101  0.00  0.00    +0.000 A 
ATOM     15  S   UNL     1       6.208   3.707  13.641  0.00  0.00    +0.000 S 
ENDBRANCH  10  11
ENDBRANCH   9  10
ENDBRANCH   2   9
BRANCH   8  16
ATOM     16  C   UNL     1       2.855   7.052  17.919  0.00  0.00    +0.000 C 
BRANCH  16  17
ATOM     17  C   UNL     1       2.081   7.932  18.881  0.00  0.00    +0.000 A 
ATOM     18  C   UNL     1       1.442   9.101  18.443  0.00  0.00    +0.000 A 
ATOM     19  C   UNL     1       0.691   9.870  19.335  0.00  0.00    +0.000 A 
ATOM     20  C   UNL     1       0.571   9.465  20.659  0.00  0.00    +0.000 A 
ATOM     21  F   UNL     1      -0.158  10.198  21.511  0.00  0.00    +0.000 F 
ATOM     22  C   UNL     1       1.187   8.305  21.110  0.00  0.00    +0.000 A 
ATOM     23  C   UNL     1       1.940   7.537  20.221  0.00  0.00    +0.000 A 
ENDBRANCH  16  17
ENDBRANCH   8  16
TORSDOF 5
ENDMDL
MODEL 4
REMARK VINA RESULT:      -7.6      3.853      7.569
REMARK  Name = 
REMARK  5 active torsions:
REMARK  status: ('A' for Active; 'I' for Inactive)
REMARK    1  A    between atoms: C_2  and  C_3
REMARK    2  A    between atoms: C_3  and  C_4
REMARK    3  A    between atoms: C_4  and  C_5
REMARK    4  A    between atoms: C_15  and  C_16
REMARK    5  A    between atoms: C_16  and  C_17
REMARK                            x       y       z     vdW  Elec       q    Type
REMARK                         _______ _______ _______ _____ _____    ______ ____
ROOT
ATOM      1  O   UNL     1       4.771   6.546  17.893  0.00  0.00    +0.000 OA
ATOM      2  C   UNL     1       3.588   6.212  17.917  0.00  0.00    +0.000 C 
ATOM      3  N   UNL     1       3.132   4.915  17.641  0.00  0.00    +0.000 N 
ATOM      4  C   UNL     1       1.709   4.553  17.739  0.00  0.00    +0.000 C 
ATOM      5  C   UNL     1       1.503   3.217  18.444  0.00  0.00    +0.000 C 
ATOM      6  C   UNL     1       2.342   2.121  17.809  0.00  0.00    +0.000 C 
ATOM      7  C   UNL     1       3.812   2.534  17.742  0.00  0.00    +0.000 C 
ATOM      8  C   UNL     1       3.989   3.874  16.994  0.00  0.00    +0.000 C 
ENDROOT
BRANCH   2   9
ATOM      9  C   UNL     1       2.526   7.237  18.252  0.00  0.00    +0.000 C 
BRANCH   9  10
ATOM     10  C   UNL     1       2.211   7.303  19.743  0.00  0.00    +0.000 C 
BRANCH  10  11
ATOM     11  C   UNL     1       1.482   8.575  20.065  0.00  0.00    +0.000 A 
ATOM     12  N   UNL     1       1.068   9.447  19.167  0.00  0.00    +0.000 NA
ATOM     13  C   UNL     1       0.437  10.500  19.793  0.00  0.00    +0.000 A 
ATOM     14  C   UNL     1       0.376  10.424  21.166  0.00  0.00    +0.000 A 
ATOM     15  S   UNL     1       1.135   8.983  21.700  0.00  0.00    +0.000 S 
ENDBRANCH  10  11
ENDBRANCH   9  10
ENDBRANCH   2   9
BRANCH   8  16
ATOM     16  C   UNL     1       5.488   4.218  16.808  0.00  0.00    +0.000 C 
BRANCH  16  17
ATOM     17  C   UNL     1       5.980   4.316  15.377  0.00  0.00    +0.000 A 
ATOM     18  C   UNL     1       7.144   5.032  15.056  0.00  0.00    +0.000 A 
ATOM     19  C   UNL     1       7.608   5.067  13.740  0.00  0.00    +0.000 A 
ATOM     20  C   UNL     1       6.918   4.379  12.749  0.00  0.00    +0.000 A 
ATOM     21  F   UNL     1       7.371   4.405  11.488  0.00  0.00    +0.000 F 
ATOM     22  C   UNL     1       5.771   3.656  13.047  0.00  0.00    +0.000 A 
ATOM     23  C   UNL     1       5.303   3.622  14.361  0.00  0.00    +0.000 A 
ENDBRANCH  16  17
ENDBRANCH   8  16
TORSDOF 5
ENDMDL
MODEL 5
REMARK VINA RESULT:      -7.5      3.162      6.458
REMARK  Name = 
REMARK  5 active torsions:
REMARK  status: ('A' for Active; 'I' for Inactive)
REMARK    1  A    between atoms: C_2  and  C_3
REMARK    2  A    between atoms: C_3  and  C_4
REMARK    3  A    between atoms: C_4  and  C_5
REMARK    4  A    between atoms: C_15  and  C_16
REMARK    5  A    between atoms: C_16  and  C_17
REMARK                            x       y       z     vdW  Elec       q    Type
REMARK                         _______ _______ _______ _____ _____    ______ ____
ROOT
ATOM      1  O   UNL     1       2.110   5.843  17.558  0.00  0.00    +0.000 OA
ATOM      2  C   UNL     1       3.214   6.379  17.633  0.00  0.00    +0.000 C 
ATOM      3  N   UNL     1       4.428   5.711  17.420  0.00  0.00    +0.000 N 
ATOM      4  C   UNL     1       5.721   6.412  17.466  0.00  0.00    +0.000 C 
ATOM      5  C   UNL     1       6.639   6.000  16.320  0.00  0.00    +0.000 C 
ATOM      6  C   UNL     1       6.796   4.492  16.250  0.00  0.00    +0.000 C 
ATOM      7  C   UNL     1       5.430   3.807  16.189  0.00  0.00    +0.000 C 
ATOM      8  C   UNL     1       4.538   4.220  17.381  0.00  0.00    +0.000 C 
ENDROOT
BRANCH   2   9
ATOM      9  C   UNL     1       3.311   7.848  17.983  0.00  0.00    +0.000 C 
BRANCH   9  10
ATOM     10  C   UNL     1       1.965   8.564  17.933  0.00  0.00    +0.000 C 
BRANCH  10  11
ATOM     11  C   UNL     1       1.501   8.898  19.321  0.00  0.00    +0.000 A 
ATOM     12  N   UNL     1       1.633   8.104  20.364  0.00  0.00    +0.000 NA
ATOM     13  C   UNL     1       1.105   8.708  21.484  0.00  0.00    +0.000 A 
ATOM     14  C   UNL     1       0.572   9.962  21.284  0.00  0.00    +0.000 A 
ATOM     15  S   UNL     1       0.735  10.405  19.637  0.00  0.00    +0.000 S 
ENDBRANCH  10  11
ENDBRANCH   9  10
ENDBRANCH   2   9
BRANCH   8  16
ATOM     16  C   UNL     1       3.211   3.419  17.390  0.00  0.00    +0.000 C 
BRANCH  16  17
ATOM     17  C   UNL     1       2.627   3.106  18.754  0.00  0.00    +0.000 A 
ATOM     18  C   UNL     1       3.448   2.977  19.884  0.00  0.00    +0.000 A 
ATOM     19  C   UNL     1       2.885   2.739  21.140  0.00  0.00    +0.000 A 
ATOM     20  C   UNL     1       1.505   2.641  21.267  0.00  0.00    +0.000 A 
ATOM     21  F   UNL     1       0.965   2.423  22.474  0.00  0.00    +0.000 F 
ATOM     22  C   UNL     1       0.674   2.777  20.162  0.00  0.00    +0.000 A 
ATOM     23  C   UNL     1       1.234   3.011  18.906  0.00  0.00    +0.000 A 
ENDBRANCH  16  17
ENDBRANCH   8  16
TORSDOF 5
ENDMDL
MODEL 6
REMARK VINA RESULT:      -7.5      3.836      7.372
REMARK  Name = 
REMARK  5 active torsions:
REMARK  status: ('A' for Active; 'I' for Inactive)
REMARK    1  A    between atoms: C_2  and  C_3
REMARK    2  A    between atoms: C_3  and  C_4
REMARK    3  A    between atoms: C_4  and  C_5
REMARK    4  A    between atoms: C_15  and  C_16
REMARK    5  A    between atoms: C_16  and  C_17
REMARK                            x       y       z     vdW  Elec       q    Type
REMARK                         _______ _______ _______ _____ _____    ______ ____
ROOT
ATOM      1  O   UNL     1       4.750   6.527  18.171  0.00  0.00    +0.000 OA
ATOM      2  C   UNL     1       3.567   6.191  18.180  0.00  0.00    +0.000 C 
ATOM      3  N   UNL     1       3.109   4.920  17.802  0.00  0.00    +0.000 N 
ATOM      4  C   UNL     1       1.687   4.549  17.886  0.00  0.00    +0.000 C 
ATOM      5  C   UNL     1       1.491   3.158  18.478  0.00  0.00    +0.000 C 
ATOM      6  C   UNL     1       2.323   2.121  17.745  0.00  0.00    +0.000 C 
ATOM      7  C   UNL     1       3.792   2.540  17.697  0.00  0.00    +0.000 C 
ATOM      8  C   UNL     1       3.959   3.938  17.061  0.00  0.00    +0.000 C 
ENDROOT
BRANCH   2   9
ATOM      9  C   UNL     1       2.509   7.182  18.612  0.00  0.00    +0.000 C 
BRANCH   9  10
ATOM     10  C   UNL     1       2.312   8.317  17.612  0.00  0.00    +0.000 C 
BRANCH  10  11
ATOM     11  C   UNL     1       1.850   9.559  18.317  0.00  0.00    +0.000 A 
ATOM     12  N   UNL     1       2.111  10.787  17.914  0.00  0.00    +0.000 NA
ATOM     13  C   UNL     1       1.544  11.695  18.782  0.00  0.00    +0.000 A 
ATOM     14  C   UNL     1       0.855  11.151  19.843  0.00  0.00    +0.000 A 
ATOM     15  S   UNL     1       0.915   9.440  19.756  0.00  0.00    +0.000 S 
ENDBRANCH  10  11
ENDBRANCH   9  10
ENDBRANCH   2   9
BRANCH   8  16
ATOM     16  C   UNL     1       5.456   4.299  16.888  0.00  0.00    +0.000 C 
BRANCH  16  17
ATOM     17  C   UNL     1       5.985   4.300  15.467  0.00  0.00    +0.000 A 
ATOM     18  C   UNL     1       5.305   3.632  14.437  0.00  0.00    +0.000 A 
ATOM     19  C   UNL     1       5.781   3.690  13.126  0.00  0.00    +0.000 A 
ATOM     20  C   UNL     1       6.928   4.421  12.842  0.00  0.00    +0.000 A 
ATOM     21  F   UNL     1       7.378   4.484  11.582  0.00  0.00    +0.000 F 
ATOM     22  C   UNL     1       7.610   5.098  13.845  0.00  0.00    +0.000 A 
ATOM     23  C   UNL     1       7.137   5.040  15.156  0.00  0.00    +0.000 A 
ENDBRANCH  16  17
ENDBRANCH   8  16
TORSDOF 5
ENDMDL
MODEL 7
REMARK VINA RESULT:      -7.5      3.732      7.561
REMARK  Name = 
REMARK  5 active torsions:
REMARK  status: ('A' for Active; 'I' for Inactive)
REMARK    1  A    between atoms: C_2  and  C_3
REMARK    2  A    between atoms: C_3  and  C_4
REMARK    3  A    between atoms: C_4  and  C_5
REMARK    4  A    between atoms: C_15  and  C_16
REMARK    5  A    between atoms: C_16  and  C_17
REMARK                            x       y       z     vdW  Elec       q    Type
REMARK                         _______ _______ _______ _____ _____    ______ ____
ROOT
ATOM      1  O   UNL     1       4.815   6.541  17.836  0.00  0.00    +0.000 OA
ATOM      2  C   UNL     1       3.630   6.216  17.862  0.00  0.00    +0.000 C 
ATOM      3  N   UNL     1       3.166   4.916  17.614  0.00  0.00    +0.000 N 
ATOM      4  C   UNL     1       1.740   4.565  17.715  0.00  0.00    +0.000 C 
ATOM      5  C   UNL     1       1.523   3.247  18.449  0.00  0.00    +0.000 C 
ATOM      6  C   UNL     1       2.357   2.132  17.843  0.00  0.00    +0.000 C 
ATOM      7  C   UNL     1       3.830   2.533  17.773  0.00  0.00    +0.000 C 
ATOM      8  C   UNL     1       4.019   3.855  16.995  0.00  0.00    +0.000 C 
ENDROOT
BRANCH   2   9
ATOM      9  C   UNL     1       2.574   7.255  18.169  0.00  0.00    +0.000 C 
BRANCH   9  10
ATOM     10  C   UNL     1       2.249   7.354  19.656  0.00  0.00    +0.000 C 
BRANCH  10  11
ATOM     11  C   UNL     1       1.498   8.622  19.943  0.00  0.00    +0.000 A 
ATOM     12  N   UNL     1       1.159   9.033  21.148  0.00  0.00    +0.000 NA
ATOM     13  C   UNL     1       0.481  10.230  21.062  0.00  0.00    +0.000 A 
ATOM     14  C   UNL     1       0.307  10.721  19.788  0.00  0.00    +0.000 A 
ATOM     15  S   UNL     1       1.016   9.652  18.652  0.00  0.00    +0.000 S 
ENDBRANCH  10  11
ENDBRANCH   9  10
ENDBRANCH   2   9
BRANCH   8  16
ATOM     16  C   UNL     1       5.521   4.184  16.807  0.00  0.00    +0.000 C 
BRANCH  16  17
ATOM     17  C   UNL     1       6.027   4.215  15.378  0.00  0.00    +0.000 A 
ATOM     18  C   UNL     1       5.332   3.565  14.347  0.00  0.00    +0.000 A 
ATOM     19  C   UNL     1       5.788   3.649  13.030  0.00  0.00    +0.000 A 
ATOM     20  C   UNL     1       6.928   4.389  12.742  0.00  0.00    +0.000 A 
ATOM     21  F   UNL     1       7.358   4.477  11.476  0.00  0.00    +0.000 F 
ATOM     22  C   UNL     1       7.624   5.049  13.747  0.00  0.00    +0.000 A 
ATOM     23  C   UNL     1       7.172   4.964  15.064  0.00  0.00    +0.000 A 
ENDBRANCH  16  17
ENDBRANCH   8  16
TORSDOF 5
ENDMDL
MODEL 8
REMARK VINA RESULT:      -7.5      1.438      2.382
REMARK  Name = 
REMARK  5 active torsions:
REMARK  status: ('A' for Active; 'I' for Inactive)
REMARK    1  A    between atoms: C_2  and  C_3
REMARK    2  A    between atoms: C_3  and  C_4
REMARK    3  A    between atoms: C_4  and  C_5
REMARK    4  A    between atoms: C_15  and  C_16
REMARK    5  A    between atoms: C_16  and  C_17
REMARK                            x       y       z     vdW  Elec       q    Type
REMARK                         _______ _______ _______ _____ _____    ______ ____
ROOT
ATOM      1  O   UNL     1       4.699   6.002  15.817  0.00  0.00    +0.000 OA
ATOM      2  C   UNL     1       4.738   4.861  16.272  0.00  0.00    +0.000 C 
ATOM      3  N   UNL     1       3.808   4.348  17.187  0.00  0.00    +0.000 N 
ATOM      4  C   UNL     1       3.866   2.955  17.658  0.00  0.00    +0.000 C 
ATOM      5  C   UNL     1       2.491   2.296  17.675  0.00  0.00    +0.000 C 
ATOM      6  C   UNL     1       1.486   3.132  18.447  0.00  0.00    +0.000 C 
ATOM      7  C   UNL     1       1.448   4.564  17.915  0.00  0.00    +0.000 C 
ATOM      8  C   UNL     1       2.850   5.213  17.942  0.00  0.00    +0.000 C 
ENDROOT
BRANCH   2   9
ATOM      9  C   UNL     1       5.848   3.923  15.850  0.00  0.00    +0.000 C 
BRANCH   9  10
ATOM     10  C   UNL     1       7.179   4.635  15.628  0.00  0.00    +0.000 C 
BRANCH  10  11
ATOM     11  C   UNL     1       7.489   5.535  16.788  0.00  0.00    +0.000 A 
ATOM     12  N   UNL     1       7.649   6.840  16.700  0.00  0.00    +0.000 NA
ATOM     13  C   UNL     1       7.923   7.365  17.944  0.00  0.00    +0.000 A 
ATOM     14  C   UNL     1       7.971   6.453  18.974  0.00  0.00    +0.000 A 
ATOM     15  S   UNL     1       7.663   4.879  18.369  0.00  0.00    +0.000 S 
ENDBRANCH  10  11
ENDBRANCH   9  10
ENDBRANCH   2   9
BRANCH   8  16
ATOM     16  C   UNL     1       2.783   6.706  17.533  0.00  0.00    +0.000 C 
BRANCH  16  17
ATOM     17  C   UNL     1       2.168   7.652  18.546  0.00  0.00    +0.000 A 
ATOM     18  C   UNL     1       1.620   8.882  18.153  0.00  0.00    +0.000 A 
ATOM     19  C   UNL     1       1.013   9.715  19.095  0.00  0.00    +0.000 A 
ATOM     20  C   UNL     1       0.943   9.315  20.424  0.00  0.00    +0.000 A 
ATOM     21  F   UNL     1       0.351  10.111  21.324  0.00  0.00    +0.000 F 
ATOM     22  C   UNL     1       1.470   8.097  20.831  0.00  0.00    +0.000 A 
ATOM     23  C   UNL     1       2.080   7.264  19.893  0.00  0.00    +0.000 A 
ENDBRANCH  16  17
ENDBRANCH   8  16
TORSDOF 5
ENDMDL
MODEL 9
REMARK VINA RESULT:      -7.4      3.160      6.478
REMARK  Name = 
REMARK  5 active torsions:
REMARK  status: ('A' for Active; 'I' for Inactive)
REMARK    1  A    between atoms: C_2  and  C_3
REMARK    2  A    between atoms: C_3  and  C_4
REMARK    3  A    between atoms: C_4  and  C_5
REMARK    4  A    between atoms: C_15  and  C_16
REMARK    5  A    between atoms: C_16  and  C_17
REMARK                            x       y       z     vdW  Elec       q    Type
REMARK                         _______ _______ _______ _____ _____    ______ ____
ROOT
ATOM      1  O   UNL     1       2.151   5.845  17.542  0.00  0.00    +0.000 OA
ATOM      2  C   UNL     1       3.251   6.387  17.620  0.00  0.00    +0.000 C 
ATOM      3  N   UNL     1       4.471   5.723  17.427  0.00  0.00    +0.000 N 
ATOM      4  C   UNL     1       5.760   6.431  17.475  0.00  0.00    +0.000 C 
ATOM      5  C   UNL     1       6.689   6.010  16.342  0.00  0.00    +0.000 C 
ATOM      6  C   UNL     1       6.854   4.502  16.292  0.00  0.00    +0.000 C 
ATOM      7  C   UNL     1       5.493   3.809  16.228  0.00  0.00    +0.000 C 
ATOM      8  C   UNL     1       4.588   4.232  17.406  0.00  0.00    +0.000 C 
ENDROOT
BRANCH   2   9
ATOM      9  C   UNL     1       3.338   7.861  17.953  0.00  0.00    +0.000 C 
BRANCH   9  10
ATOM     10  C   UNL     1       1.982   8.559  17.929  0.00  0.00    +0.000 C 
BRANCH  10  11
ATOM     11  C   UNL     1       1.525   8.857  19.328  0.00  0.00    +0.000 A 
ATOM     12  N   UNL     1       1.684   8.045  20.354  0.00  0.00    +0.000 NA
ATOM     13  C   UNL     1       1.154   8.617  21.490  0.00  0.00    +0.000 A 
ATOM     14  C   UNL     1       0.592   9.863  21.320  0.00  0.00    +0.000 A 
ATOM     15  S   UNL     1       0.730  10.341  19.680  0.00  0.00    +0.000 S 
ENDBRANCH  10  11
ENDBRANCH   9  10
ENDBRANCH   2   9
BRANCH   8  16
ATOM     16  C   UNL     1       3.265   3.425  17.414  0.00  0.00    +0.000 C 
BRANCH  16  17
ATOM     17  C   UNL     1       2.632   3.188  18.771  0.00  0.00    +0.000 A 
ATOM     18  C   UNL     1       1.241   3.077  18.914  0.00  0.00    +0.000 A 
ATOM     19  C   UNL     1       0.682   2.807  20.165  0.00  0.00    +0.000 A 
ATOM     20  C   UNL     1       1.511   2.639  21.267  0.00  0.00    +0.000 A 
ATOM     21  F   UNL     1       0.973   2.370  22.465  0.00  0.00    +0.000 F 
ATOM     22  C   UNL     1       2.891   2.735  21.145  0.00  0.00    +0.000 A 
ATOM     23  C   UNL     1       3.452   3.007  19.896  0.00  0.00    +0.000 A 
ENDBRANCH  16  17
ENDBRANCH   8  16
TORSDOF 5
ENDMDL
