MODEL 1
REMARK VINA RESULT:      -7.6      0.000      0.000
REMARK  Name = 
REMARK  5 active torsions:
REMARK  status: ('A' for Active; 'I' for Inactive)
REMARK    1  A    between atoms: C_1  and  O_2
REMARK    2  A    between atoms: O_2  and  C_3
REMARK    3  A    between atoms: C_12  and  O_13
REMARK    4  A    between atoms: O_13  and  C_14
REMARK    5  A    between atoms: C_22  and  O_23
REMARK                            x       y       z     vdW  Elec       q    Type
REMARK                         _______ _______ _______ _____ _____    ______ ____
ROOT
ATOM      1  C   UNL     1       2.622   3.955  20.467  0.00  0.00    +0.000 A 
ATOM      2  C   UNL     1       1.873   4.976  21.080  0.00  0.00    +0.000 A 
ATOM      3  C   UNL     1       1.820   6.250  20.521  0.00  0.00    +0.000 A 
ATOM      4  N   UNL     1       1.082   7.226  21.133  0.00  0.00    +0.000 NA
ATOM      5  C   UNL     1       0.974   8.480  20.613  0.00  0.00    +0.000 A 
ATOM      6  C   UNL     1       1.662   8.802  19.425  0.00  0.00    +0.000 A 
ATOM      7  C   UNL     1       2.415   7.810  18.762  0.00  0.00    +0.000 A 
ATOM      8  C   UNL     1       2.508   6.520  19.314  0.00  0.00    +0.000 A 
ATOM      9  C   UNL     1       3.282   5.510  18.683  0.00  0.00    +0.000 A 
ATOM     10  C   UNL     1       3.344   4.204  19.285  0.00  0.00    +0.000 A 
ATOM     11  N   UNL     1       3.954   5.827  17.462  0.00  0.00    +0.000 N 
ATOM     12  C   UNL     1       3.887   7.090  16.769  0.00  0.00    +0.000 C 
ATOM     13  C   UNL     1       3.113   8.184  17.489  0.00  0.00    +0.000 C 
ATOM     14  C   UNL     1       1.570  10.237  18.906  0.00  0.00    +0.000 C 
ATOM     15  C   UNL     1       0.122  10.659  18.973  0.00  0.00    +0.000 C 
ATOM     16  C   UNL     1      -0.266  10.640  20.426  0.00  0.00    +0.000 A 
ATOM     17  C   UNL     1      -0.978  11.711  20.968  0.00  0.00    +0.000 A 
ATOM     18  C   UNL     1      -1.354  11.695  22.312  0.00  0.00    +0.000 A 
ATOM     19  C   UNL     1      -1.022  10.592  23.111  0.00  0.00    +0.000 A 
ATOM     20  C   UNL     1      -0.294   9.513  22.579  0.00  0.00    +0.000 A 
ATOM     21  C   UNL     1       0.112   9.540  21.234  0.00  0.00    +0.000 A 
ATOM     22  H   UNL     1       4.502   5.144  16.949  0.00  0.00    +0.000 HD
ENDROOT
BRANCH   1  24
ATOM     23  C   UNL     1       1.803   2.154  21.903  0.00  0.00    +0.000 C 
ATOM     24  O   UNL     1       2.674   2.696  20.976  0.00  0.00    +0.000 OA
ENDBRANCH   1  24
BRANCH  10  25
ATOM     25  O   UNL     1       4.031   3.116  18.813  0.00  0.00    +0.000 OA
ATOM     26  C   UNL     1       3.738   2.153  17.875  0.00  0.00    +0.000 C 
ENDBRANCH  10  25
BRANCH  18  27
ATOM     27  O   UNL     1      -2.031  12.734  22.836  0.00  0.00    +0.000 OA
ATOM     28  H   UNL     1      -1.597  13.395  23.397  0.00  0.00    +0.000 HD
ENDBRANCH  18  27
TORSDOF 3
ENDMDL
MODEL 2
REMARK VINA RESULT:      -7.6      2.257      8.093
REMARK  Name = 
REMARK  5 active torsions:
REMARK  status: ('A' for Active; 'I' for Inactive)
REMARK    1  A    between atoms: C_1  and  O_2
REMARK    2  A    between atoms: O_2  and  C_3
REMARK    3  A    between atoms: C_12  and  O_13
REMARK    4  A    between atoms: O_13  and  C_14
REMARK    5  A    between atoms: C_22  and  O_23
REMARK                            x       y       z     vdW  Elec       q    Type
REMARK                         _______ _______ _______ _____ _____    ______ ____
ROOT
ATOM      1  C   UNL     1       1.348  12.047  18.662  0.00  0.00    +0.000 A 
ATOM      2  C   UNL     1       2.102  11.042  18.027  0.00  0.00    +0.000 A 
ATOM      3  C   UNL     1       2.123   9.745  18.532  0.00  0.00    +0.000 A 
ATOM      4  N   UNL     1       2.859   8.784  17.896  0.00  0.00    +0.000 NA
ATOM      5  C   UNL     1       2.892   7.494  18.332  0.00  0.00    +0.000 A 
ATOM      6  C   UNL     1       2.170   7.134  19.489  0.00  0.00    +0.000 A 
ATOM      7  C   UNL     1       1.386   8.100  20.155  0.00  0.00    +0.000 A 
ATOM      8  C   UNL     1       1.363   9.424  19.683  0.00  0.00    +0.000 A 
ATOM      9  C   UNL     1       0.605  10.423  20.349  0.00  0.00    +0.000 A 
ATOM     10  C   UNL     1       0.611  11.764  19.827  0.00  0.00    +0.000 A 
ATOM     11  N   UNL     1      -0.150  10.051  21.504  0.00  0.00    +0.000 N 
ATOM     12  C   UNL     1      -0.255   8.719  22.046  0.00  0.00    +0.000 C 
ATOM     13  C   UNL     1       0.615   7.672  21.367  0.00  0.00    +0.000 C 
ATOM     14  C   UNL     1       2.282   5.692  19.986  0.00  0.00    +0.000 C 
ATOM     15  C   UNL     1       2.127   4.780  18.793  0.00  0.00    +0.000 C 
ATOM     16  C   UNL     1       3.284   5.070  17.876  0.00  0.00    +0.000 A 
ATOM     17  C   UNL     1       4.005   4.016  17.315  0.00  0.00    +0.000 A 
ATOM     18  C   UNL     1       5.071   4.276  16.452  0.00  0.00    +0.000 A 
ATOM     19  C   UNL     1       5.404   5.603  16.143  0.00  0.00    +0.000 A 
ATOM     20  C   UNL     1       4.692   6.673  16.712  0.00  0.00    +0.000 A 
ATOM     21  C   UNL     1       3.638   6.415  17.606  0.00  0.00    +0.000 A 
ATOM     22  H   UNL     1      -0.731  10.711  22.010  0.00  0.00    +0.000 HD
ENDROOT
BRANCH   1  24
ATOM     23  C   UNL     1       2.314  14.245  18.200  0.00  0.00    +0.000 C 
ATOM     24  O   UNL     1       1.290  13.316  18.179  0.00  0.00    +0.000 OA
ENDBRANCH   1  24
BRANCH  10  25
ATOM     25  O   UNL     1      -0.063  12.845  20.334  0.00  0.00    +0.000 OA
ATOM     26  C   UNL     1       0.121  13.629  21.449  0.00  0.00    +0.000 C 
ENDBRANCH  10  25
BRANCH  18  27
ATOM     27  O   UNL     1       5.773   3.258  15.921  0.00  0.00    +0.000 OA
ATOM     28  H   UNL     1       5.954   3.205  14.969  0.00  0.00    +0.000 HD
ENDBRANCH  18  27
TORSDOF 3
ENDMDL
MODEL 3
REMARK VINA RESULT:      -7.3      1.603      7.221
REMARK  Name = 
REMARK  5 active torsions:
REMARK  status: ('A' for Active; 'I' for Inactive)
REMARK    1  A    between atoms: C_1  and  O_2
REMARK    2  A    between atoms: O_2  and  C_3
REMARK    3  A    between atoms: C_12  and  O_13
REMARK    4  A    between atoms: O_13  and  C_14
REMARK    5  A    between atoms: C_22  and  O_23
REMARK                            x       y       z     vdW  Elec       q    Type
REMARK                         _______ _______ _______ _____ _____    ______ ____
ROOT
ATOM      1  C   UNL     1      -0.317  10.645  22.335  0.00  0.00    +0.000 A 
ATOM      2  C   UNL     1       0.032   9.286  22.223  0.00  0.00    +0.000 A 
ATOM      3  C   UNL     1       0.739   8.823  21.117  0.00  0.00    +0.000 A 
ATOM      4  N   UNL     1       1.070   7.500  21.032  0.00  0.00    +0.000 NA
ATOM      5  C   UNL     1       1.785   7.001  19.985  0.00  0.00    +0.000 A 
ATOM      6  C   UNL     1       2.177   7.861  18.939  0.00  0.00    +0.000 A 
ATOM      7  C   UNL     1       1.866   9.236  19.009  0.00  0.00    +0.000 A 
ATOM      8  C   UNL     1       1.132   9.729  20.102  0.00  0.00    +0.000 A 
ATOM      9  C   UNL     1       0.781  11.103  20.185  0.00  0.00    +0.000 A 
ATOM     10  C   UNL     1       0.031  11.561  21.325  0.00  0.00    +0.000 A 
ATOM     11  N   UNL     1       1.204  11.981  19.139  0.00  0.00    +0.000 N 
ATOM     12  C   UNL     1       2.009  11.607  18.003  0.00  0.00    +0.000 C 
ATOM     13  C   UNL     1       2.320  10.122  17.889  0.00  0.00    +0.000 C 
ATOM     14  C   UNL     1       2.922   7.254  17.749  0.00  0.00    +0.000 C 
ATOM     15  C   UNL     1       3.991   6.338  18.294  0.00  0.00    +0.000 C 
ATOM     16  C   UNL     1       3.280   5.239  19.036  0.00  0.00    +0.000 A 
ATOM     17  C   UNL     1       3.661   3.911  18.842  0.00  0.00    +0.000 A 
ATOM     18  C   UNL     1       3.016   2.888  19.536  0.00  0.00    +0.000 A 
ATOM     19  C   UNL     1       1.990   3.201  20.439  0.00  0.00    +0.000 A 
ATOM     20  C   UNL     1       1.589   4.535  20.633  0.00  0.00    +0.000 A 
ATOM     21  C   UNL     1       2.216   5.566  19.913  0.00  0.00    +0.000 A 
ATOM     22  H   UNL     1       1.007  12.976  19.152  0.00  0.00    +0.000 HD
ENDROOT
BRANCH   1  24
ATOM     23  C   UNL     1      -2.288  11.597  23.424  0.00  0.00    +0.000 C 
ATOM     24  O   UNL     1      -0.986  11.130  23.413  0.00  0.00    +0.000 OA
ENDBRANCH   1  24
BRANCH  10  25
ATOM     25  O   UNL     1      -0.385  12.844  21.571  0.00  0.00    +0.000 OA
ATOM     26  C   UNL     1       0.282  14.003  21.894  0.00  0.00    +0.000 C 
ENDBRANCH  10  25
BRANCH  18  27
ATOM     27  O   UNL     1       3.378   1.606  19.338  0.00  0.00    +0.000 OA
ATOM     28  H   UNL     1       3.524   0.997  20.079  0.00  0.00    +0.000 HD
ENDBRANCH  18  27
TORSDOF 3
ENDMDL
MODEL 4
REMARK VINA RESULT:      -6.6      9.233     11.952
REMARK  Name = 
REMARK  5 active torsions:
REMARK  status: ('A' for Active; 'I' for Inactive)
REMARK    1  A    between atoms: C_1  and  O_2
REMARK    2  A    between atoms: O_2  and  C_3
REMARK    3  A    between atoms: C_12  and  O_13
REMARK    4  A    between atoms: O_13  and  C_14
REMARK    5  A    between atoms: C_22  and  O_23
REMARK                            x       y       z     vdW  Elec       q    Type
REMARK                         _______ _______ _______ _____ _____    ______ ____
ROOT
ATOM      1  C   UNL     1       5.811  16.174  22.931  0.00  0.00    +0.000 A 
ATOM      2  C   UNL     1       6.629  16.072  21.791  0.00  0.00    +0.000 A 
ATOM      3  C   UNL     1       7.441  14.958  21.597  0.00  0.00    +0.000 A 
ATOM      4  N   UNL     1       8.225  14.879  20.479  0.00  0.00    +0.000 NA
ATOM      5  C   UNL     1       9.016  13.799  20.228  0.00  0.00    +0.000 A 
ATOM      6  C   UNL     1       9.056  12.737  21.154  0.00  0.00    +0.000 A 
ATOM      7  C   UNL     1       8.243  12.782  22.307  0.00  0.00    +0.000 A 
ATOM      8  C   UNL     1       7.430  13.905  22.543  0.00  0.00    +0.000 A 
ATOM      9  C   UNL     1       6.623  13.989  23.709  0.00  0.00    +0.000 A 
ATOM     10  C   UNL     1       5.806  15.158  23.904  0.00  0.00    +0.000 A 
ATOM     11  N   UNL     1       6.641  12.899  24.633  0.00  0.00    +0.000 N 
ATOM     12  C   UNL     1       7.383  11.673  24.472  0.00  0.00    +0.000 C 
ATOM     13  C   UNL     1       8.296  11.623  23.256  0.00  0.00    +0.000 C 
ATOM     14  C   UNL     1      10.004  11.571  20.871  0.00  0.00    +0.000 C 
ATOM     15  C   UNL     1       9.838  11.184  19.421  0.00  0.00    +0.000 C 
ATOM     16  C   UNL     1      10.270  12.372  18.606  0.00  0.00    +0.000 A 
ATOM     17  C   UNL     1      11.114  12.192  17.510  0.00  0.00    +0.000 A 
ATOM     18  C   UNL     1      11.509  13.287  16.741  0.00  0.00    +0.000 A 
ATOM     19  C   UNL     1      11.043  14.568  17.068  0.00  0.00    +0.000 A 
ATOM     20  C   UNL     1      10.201  14.763  18.177  0.00  0.00    +0.000 A 
ATOM     21  C   UNL     1       9.827  13.667  18.973  0.00  0.00    +0.000 A 
ATOM     22  H   UNL     1       6.069  12.887  25.471  0.00  0.00    +0.000 HD
ENDROOT
BRANCH   1  24
ATOM     23  C   UNL     1       5.213  18.534  22.706  0.00  0.00    +0.000 C 
ATOM     24  O   UNL     1       4.991  17.238  23.136  0.00  0.00    +0.000 OA
ENDBRANCH   1  24
BRANCH  10  25
ATOM     25  O   UNL     1       4.967  15.404  24.960  0.00  0.00    +0.000 OA
ATOM     26  C   UNL     1       5.169  15.902  26.226  0.00  0.00    +0.000 C 
ENDBRANCH  10  25
BRANCH  18  27
ATOM     27  O   UNL     1      12.333  13.112  15.690  0.00  0.00    +0.000 OA
ATOM     28  H   UNL     1      12.164  13.533  14.833  0.00  0.00    +0.000 HD
ENDBRANCH  18  27
TORSDOF 3
ENDMDL
MODEL 5
REMARK VINA RESULT:      -6.4      1.798      3.672
REMARK  Name = 
REMARK  5 active torsions:
REMARK  status: ('A' for Active; 'I' for Inactive)
REMARK    1  A    between atoms: C_1  and  O_2
REMARK    2  A    between atoms: O_2  and  C_3
REMARK    3  A    between atoms: C_12  and  O_13
REMARK    4  A    between atoms: O_13  and  C_14
REMARK    5  A    between atoms: C_22  and  O_23
REMARK                            x       y       z     vdW  Elec       q    Type
REMARK                         _______ _______ _______ _____ _____    ______ ____
ROOT
ATOM      1  C   UNL     1       4.423   5.557  16.924  0.00  0.00    +0.000 A 
ATOM      2  C   UNL     1       3.936   6.869  17.075  0.00  0.00    +0.000 A 
ATOM      3  C   UNL     1       3.078   7.191  18.123  0.00  0.00    +0.000 A 
ATOM      4  N   UNL     1       2.620   8.473  18.252  0.00  0.00    +0.000 NA
ATOM      5  C   UNL     1       1.802   8.847  19.274  0.00  0.00    +0.000 A 
ATOM      6  C   UNL     1       1.387   7.886  20.219  0.00  0.00    +0.000 A 
ATOM      7  C   UNL     1       1.859   6.559  20.122  0.00  0.00    +0.000 A 
ATOM      8  C   UNL     1       2.708   6.198  19.061  0.00  0.00    +0.000 A 
ATOM      9  C   UNL     1       3.175   4.863  18.923  0.00  0.00    +0.000 A 
ATOM     10  C   UNL     1       4.044   4.542  17.821  0.00  0.00    +0.000 A 
ATOM     11  N   UNL     1       2.778   3.896  19.897  0.00  0.00    +0.000 N 
ATOM     12  C   UNL     1       1.965   4.158  21.059  0.00  0.00    +0.000 C 
ATOM     13  C   UNL     1       1.414   5.572  21.159  0.00  0.00    +0.000 C 
ATOM     14  C   UNL     1       0.417   8.327  21.316  0.00  0.00    +0.000 C 
ATOM     15  C   UNL     1       0.920   9.637  21.875  0.00  0.00    +0.000 C 
ATOM     16  C   UNL     1       0.869  10.634  20.749  0.00  0.00    +0.000 A 
ATOM     17  C   UNL     1       0.335  11.904  20.971  0.00  0.00    +0.000 A 
ATOM     18  C   UNL     1       0.297  12.839  19.936  0.00  0.00    +0.000 A 
ATOM     19  C   UNL     1       0.808  12.499  18.676  0.00  0.00    +0.000 A 
ATOM     20  C   UNL     1       1.337  11.218  18.438  0.00  0.00    +0.000 A 
ATOM     21  C   UNL     1       1.349  10.264  19.469  0.00  0.00    +0.000 A 
ATOM     22  H   UNL     1       3.098   2.933  19.869  0.00  0.00    +0.000 HD
ENDROOT
BRANCH   1  24
ATOM     23  C   UNL     1       6.642   5.454  15.902  0.00  0.00    +0.000 C 
ATOM     24  O   UNL     1       5.280   5.219  15.925  0.00  0.00    +0.000 OA
ENDBRANCH   1  24
BRANCH  10  25
ATOM     25  O   UNL     1       4.592   3.318  17.539  0.00  0.00    +0.000 OA
ATOM     26  C   UNL     1       4.076   2.043  17.504  0.00  0.00    +0.000 C 
ENDBRANCH  10  25
BRANCH  18  27
ATOM     27  O   UNL     1      -0.229  14.060  20.149  0.00  0.00    +0.000 OA
ATOM     28  H   UNL     1       0.151  14.673  20.797  0.00  0.00    +0.000 HD
ENDBRANCH  18  27
TORSDOF 3
ENDMDL
MODEL 6
REMARK VINA RESULT:      -6.3      8.794     11.215
REMARK  Name = 
REMARK  5 active torsions:
REMARK  status: ('A' for Active; 'I' for Inactive)
REMARK    1  A    between atoms: C_1  and  O_2
REMARK    2  A    between atoms: O_2  and  C_3
REMARK    3  A    between atoms: C_12  and  O_13
REMARK    4  A    between atoms: O_13  and  C_14
REMARK    5  A    between atoms: C_22  and  O_23
REMARK                            x       y       z     vdW  Elec       q    Type
REMARK                         _______ _______ _______ _____ _____    ______ ____
ROOT
ATOM      1  C   UNL     1       5.694  11.843  25.722  0.00  0.00    +0.000 A 
ATOM      2  C   UNL     1       6.527  11.454  24.657  0.00  0.00    +0.000 A 
ATOM      3  C   UNL     1       7.153  12.409  23.860  0.00  0.00    +0.000 A 
ATOM      4  N   UNL     1       7.961  12.007  22.832  0.00  0.00    +0.000 NA
ATOM      5  C   UNL     1       8.619  12.900  22.041  0.00  0.00    +0.000 A 
ATOM      6  C   UNL     1       8.448  14.282  22.262  0.00  0.00    +0.000 A 
ATOM      7  C   UNL     1       7.635  14.725  23.327  0.00  0.00    +0.000 A 
ATOM      8  C   UNL     1       6.971  13.785  24.135  0.00  0.00    +0.000 A 
ATOM      9  C   UNL     1       6.125  14.204  25.196  0.00  0.00    +0.000 A 
ATOM     10  C   UNL     1       5.468  13.204  25.996  0.00  0.00    +0.000 A 
ATOM     11  N   UNL     1       5.975  15.604  25.439  0.00  0.00    +0.000 N 
ATOM     12  C   UNL     1       6.650  16.658  24.722  0.00  0.00    +0.000 C 
ATOM     13  C   UNL     1       7.497  16.202  23.545  0.00  0.00    +0.000 C 
ATOM     14  C   UNL     1       9.150  15.254  21.314  0.00  0.00    +0.000 C 
ATOM     15  C   UNL     1      10.572  14.779  21.138  0.00  0.00    +0.000 C 
ATOM     16  C   UNL     1      10.497  13.427  20.481  0.00  0.00    +0.000 A 
ATOM     17  C   UNL     1      11.332  13.131  19.404  0.00  0.00    +0.000 A 
ATOM     18  C   UNL     1      11.278  11.876  18.798  0.00  0.00    +0.000 A 
ATOM     19  C   UNL     1      10.388  10.909  19.286  0.00  0.00    +0.000 A 
ATOM     20  C   UNL     1       9.533  11.200  20.363  0.00  0.00    +0.000 A 
ATOM     21  C   UNL     1       9.563  12.474  20.956  0.00  0.00    +0.000 A 
ATOM     22  H   UNL     1       5.406  15.967  26.197  0.00  0.00    +0.000 HD
ENDROOT
BRANCH   1  24
ATOM     23  C   UNL     1       5.669  10.278  27.601  0.00  0.00    +0.000 C 
ATOM     24  O   UNL     1       5.088  10.934  26.530  0.00  0.00    +0.000 OA
ENDBRANCH   1  24
BRANCH  10  25
ATOM     25  O   UNL     1       4.628  13.425  27.057  0.00  0.00    +0.000 OA
ATOM     26  C   UNL     1       4.829  13.900  28.333  0.00  0.00    +0.000 C 
ENDBRANCH  10  25
BRANCH  18  27
ATOM     27  O   UNL     1      12.077  11.596  17.751  0.00  0.00    +0.000 OA
ATOM     28  H   UNL     1      11.888  11.932  16.861  0.00  0.00    +0.000 HD
ENDBRANCH  18  27
TORSDOF 3
ENDMDL
MODEL 7
REMARK VINA RESULT:      -6.2      1.879      3.761
REMARK  Name = 
REMARK  5 active torsions:
REMARK  status: ('A' for Active; 'I' for Inactive)
REMARK    1  A    between atoms: C_1  and  O_2
REMARK    2  A    between atoms: O_2  and  C_3
REMARK    3  A    between atoms: C_12  and  O_13
REMARK    4  A    between atoms: O_13  and  C_14
REMARK    5  A    between atoms: C_22  and  O_23
REMARK                            x       y       z     vdW  Elec       q    Type
REMARK                         _______ _______ _______ _____ _____    ______ ____
ROOT
ATOM      1  C   UNL     1       4.543   6.789  17.064  0.00  0.00    +0.000 A 
ATOM      2  C   UNL     1       3.741   7.938  17.197  0.00  0.00    +0.000 A 
ATOM      3  C   UNL     1       2.792   8.027  18.212  0.00  0.00    +0.000 A 
ATOM      4  N   UNL     1       2.026   9.154  18.324  0.00  0.00    +0.000 NA
ATOM      5  C   UNL     1       1.103   9.304  19.314  0.00  0.00    +0.000 A 
ATOM      6  C   UNL     1       0.905   8.261  20.242  0.00  0.00    +0.000 A 
ATOM      7  C   UNL     1       1.694   7.093  20.163  0.00  0.00    +0.000 A 
ATOM      8  C   UNL     1       2.645   6.964  19.135  0.00  0.00    +0.000 A 
ATOM      9  C   UNL     1       3.433   5.788  19.014  0.00  0.00    +0.000 A 
ATOM     10  C   UNL     1       4.394   5.703  17.946  0.00  0.00    +0.000 A 
ATOM     11  N   UNL     1       3.253   4.743  19.972  0.00  0.00    +0.000 N 
ATOM     12  C   UNL     1       2.357   4.785  21.102  0.00  0.00    +0.000 C 
ATOM     13  C   UNL     1       1.469   6.017  21.181  0.00  0.00    +0.000 C 
ATOM     14  C   UNL     1      -0.184   8.437  21.301  0.00  0.00    +0.000 C 
ATOM     15  C   UNL     1      -0.043   9.825  21.879  0.00  0.00    +0.000 C 
ATOM     16  C   UNL     1      -0.298  10.789  20.753  0.00  0.00    +0.000 A 
ATOM     17  C   UNL     1      -1.137  11.885  20.954  0.00  0.00    +0.000 A 
ATOM     18  C   UNL     1      -1.368  12.792  19.919  0.00  0.00    +0.000 A 
ATOM     19  C   UNL     1      -0.742  12.602  18.679  0.00  0.00    +0.000 A 
ATOM     20  C   UNL     1       0.096  11.494  18.461  0.00  0.00    +0.000 A 
ATOM     21  C   UNL     1       0.307  10.562  19.492  0.00  0.00    +0.000 A 
ATOM     22  H   UNL     1       3.802   3.890  19.956  0.00  0.00    +0.000 HD
ENDROOT
BRANCH   1  24
ATOM     23  C   UNL     1       5.395   5.941  14.935  0.00  0.00    +0.000 C 
ATOM     24  O   UNL     1       5.493   6.683  16.099  0.00  0.00    +0.000 OA
ENDBRANCH   1  24
BRANCH  10  25
ATOM     25  O   UNL     1       5.239   4.655  17.685  0.00  0.00    +0.000 OA
ATOM     26  C   UNL     1       6.528   4.368  18.071  0.00  0.00    +0.000 C 
ENDBRANCH  10  25
BRANCH  18  27
ATOM     27  O   UNL     1      -2.188  13.842  20.112  0.00  0.00    +0.000 OA
ATOM     28  H   UNL     1      -2.271  14.552  19.456  0.00  0.00    +0.000 HD
ENDBRANCH  18  27
TORSDOF 3
ENDMDL
MODEL 8
REMARK VINA RESULT:      -6.2      2.106      7.850
REMARK  Name = 
REMARK  5 active torsions:
REMARK  status: ('A' for Active; 'I' for Inactive)
REMARK    1  A    between atoms: C_1  and  O_2
REMARK    2  A    between atoms: O_2  and  C_3
REMARK    3  A    between atoms: C_12  and  O_13
REMARK    4  A    between atoms: O_13  and  C_14
REMARK    5  A    between atoms: C_22  and  O_23
REMARK                            x       y       z     vdW  Elec       q    Type
REMARK                         _______ _______ _______ _____ _____    ______ ____
ROOT
ATOM      1  C   UNL     1      -1.813  12.220  22.842  0.00  0.00    +0.000 A 
ATOM      2  C   UNL     1      -1.163  10.980  22.706  0.00  0.00    +0.000 A 
ATOM      3  C   UNL     1      -0.560  10.622  21.503  0.00  0.00    +0.000 A 
ATOM      4  N   UNL     1       0.069   9.413  21.395  0.00  0.00    +0.000 NA
ATOM      5  C   UNL     1       0.697   9.026  20.250  0.00  0.00    +0.000 A 
ATOM      6  C   UNL     1       0.681   9.878  19.127  0.00  0.00    +0.000 A 
ATOM      7  C   UNL     1       0.055  11.140  19.215  0.00  0.00    +0.000 A 
ATOM      8  C   UNL     1      -0.582  11.521  20.409  0.00  0.00    +0.000 A 
ATOM      9  C   UNL     1      -1.244  12.773  20.516  0.00  0.00    +0.000 A 
ATOM     10  C   UNL     1      -1.880  13.118  21.761  0.00  0.00    +0.000 A 
ATOM     11  N   UNL     1      -1.234  13.649  19.388  0.00  0.00    +0.000 N 
ATOM     12  C   UNL     1      -0.565  13.399  18.135  0.00  0.00    +0.000 C 
ATOM     13  C   UNL     1       0.079  12.028  18.007  0.00  0.00    +0.000 C 
ATOM     14  C   UNL     1       1.340   9.384  17.840  0.00  0.00    +0.000 C 
ATOM     15  C   UNL     1       2.679   8.791  18.206  0.00  0.00    +0.000 C 
ATOM     16  C   UNL     1       2.399   7.610  19.094  0.00  0.00    +0.000 A 
ATOM     17  C   UNL     1       3.059   6.401  18.871  0.00  0.00    +0.000 A 
ATOM     18  C   UNL     1       2.815   5.305  19.699  0.00  0.00    +0.000 A 
ATOM     19  C   UNL     1       1.912   5.428  20.763  0.00  0.00    +0.000 A 
ATOM     20  C   UNL     1       1.231   6.637  20.991  0.00  0.00    +0.000 A 
ATOM     21  C   UNL     1       1.452   7.734  20.140  0.00  0.00    +0.000 A 
ATOM     22  H   UNL     1      -1.667  14.567  19.408  0.00  0.00    +0.000 HD
ENDROOT
BRANCH   1  24
ATOM     23  C   UNL     1      -3.706  12.397  24.379  0.00  0.00    +0.000 C 
ATOM     24  O   UNL     1      -2.389  12.606  24.010  0.00  0.00    +0.000 OA
ENDBRANCH   1  24
BRANCH  10  25
ATOM     25  O   UNL     1      -2.553  14.279  22.043  0.00  0.00    +0.000 OA
ATOM     26  C   UNL     1      -2.150  15.585  22.201  0.00  0.00    +0.000 C 
ENDBRANCH  10  25
BRANCH  18  27
ATOM     27  O   UNL     1       3.445   4.136  19.474  0.00  0.00    +0.000 OA
ATOM     28  H   UNL     1       3.031   3.285  19.687  0.00  0.00    +0.000 HD
ENDBRANCH  18  27
TORSDOF 3
ENDMDL
MODEL 9
REMARK VINA RESULT:      -6.1      8.987     10.084
REMARK  Name = 
REMARK  5 active torsions:
REMARK  status: ('A' for Active; 'I' for Inactive)
REMARK    1  A    between atoms: C_1  and  O_2
REMARK    2  A    between atoms: O_2  and  C_3
REMARK    3  A    between atoms: C_12  and  O_13
REMARK    4  A    between atoms: O_13  and  C_14
REMARK    5  A    between atoms: C_22  and  O_23
REMARK                            x       y       z     vdW  Elec       q    Type
REMARK                         _______ _______ _______ _____ _____    ______ ____
ROOT
ATOM      1  C   UNL     1       9.731  11.611  20.002  0.00  0.00    +0.000 A 
ATOM      2  C   UNL     1       8.828  11.321  21.041  0.00  0.00    +0.000 A 
ATOM      3  C   UNL     1       8.620  12.230  22.075  0.00  0.00    +0.000 A 
ATOM      4  N   UNL     1       7.736  11.928  23.073  0.00  0.00    +0.000 NA
ATOM      5  C   UNL     1       7.475  12.794  24.092  0.00  0.00    +0.000 A 
ATOM      6  C   UNL     1       8.153  14.029  24.144  0.00  0.00    +0.000 A 
ATOM      7  C   UNL     1       9.058  14.376  23.118  0.00  0.00    +0.000 A 
ATOM      8  C   UNL     1       9.306  13.469  22.073  0.00  0.00    +0.000 A 
ATOM      9  C   UNL     1      10.233  13.779  21.042  0.00  0.00    +0.000 A 
ATOM     10  C   UNL     1      10.452  12.819  19.993  0.00  0.00    +0.000 A 
ATOM     11  N   UNL     1      10.898  15.044  21.079  0.00  0.00    +0.000 N 
ATOM     12  C   UNL     1      10.682  16.078  22.061  0.00  0.00    +0.000 C 
ATOM     13  C   UNL     1       9.741  15.708  23.197  0.00  0.00    +0.000 C 
ATOM     14  C   UNL     1       7.883  14.948  25.337  0.00  0.00    +0.000 C 
ATOM     15  C   UNL     1       6.390  14.998  25.551  0.00  0.00    +0.000 C 
ATOM     16  C   UNL     1       5.958  13.601  25.905  0.00  0.00    +0.000 A 
ATOM     17  C   UNL     1       5.088  13.393  26.975  0.00  0.00    +0.000 A 
ATOM     18  C   UNL     1       4.672  12.102  27.301  0.00  0.00    +0.000 A 
ATOM     19  C   UNL     1       5.123  11.015  26.539  0.00  0.00    +0.000 A 
ATOM     20  C   UNL     1       6.010  11.211  25.466  0.00  0.00    +0.000 A 
ATOM     21  C   UNL     1       6.455  12.507  25.154  0.00  0.00    +0.000 A 
ATOM     22  H   UNL     1      11.551  15.336  20.360  0.00  0.00    +0.000 HD
ENDROOT
BRANCH   1  24
ATOM     23  C   UNL     1       8.963  10.047  18.286  0.00  0.00    +0.000 C 
ATOM     24  O   UNL     1       9.937  10.754  18.968  0.00  0.00    +0.000 OA
ENDBRANCH   1  24
BRANCH  10  25
ATOM     25  O   UNL     1      11.298  12.954  18.922  0.00  0.00    +0.000 OA
ATOM     26  C   UNL     1      11.220  13.664  17.746  0.00  0.00    +0.000 C 
ENDBRANCH  10  25
BRANCH  18  27
ATOM     27  O   UNL     1       3.841  11.903  28.342  0.00  0.00    +0.000 OA
ATOM     28  H   UNL     1       3.562  11.013  28.610  0.00  0.00    +0.000 HD
ENDBRANCH  18  27
TORSDOF 3
ENDMDL
