MODEL 1
REMARK VINA RESULT:      -7.5      0.000      0.000
REMARK  Name = 
REMARK  2 active torsions:
REMARK  status: ('A' for Active; 'I' for Inactive)
REMARK    1  A    between atoms: C_4  and  C_5
REMARK    2  A    between atoms: C_5  and  N_6
REMARK                            x       y       z     vdW  Elec       q    Type
REMARK                         _______ _______ _______ _____ _____    ______ ____
ROOT
ATOM      1 CL   UNL     1       2.185   7.588  19.396  0.00  0.00    +0.000 Cl
ATOM      2  C   UNL     1       3.035   6.500  18.407  0.00  0.00    +0.000 A 
ATOM      3  N   UNL     1       3.887   7.013  17.513  0.00  0.00    +0.000 NA
ATOM      4  C   UNL     1       4.575   6.146  16.751  0.00  0.00    +0.000 A 
ATOM      5  N   UNL     1       4.432   4.807  16.745  0.00  0.00    +0.000 NA
ATOM      6  C   UNL     1       3.550   4.356  17.656  0.00  0.00    +0.000 A 
ATOM      7  S   UNL     1       3.201   2.676  17.807  0.00  0.00    +0.000 S 
ATOM      8  C   UNL     1       2.175   2.983  19.091  0.00  0.00    +0.000 A 
ATOM      9  C   UNL     1       2.101   4.305  19.439  0.00  0.00    +0.000 A 
ATOM     10  C   UNL     1       2.840   5.140  18.563  0.00  0.00    +0.000 A 
ATOM     11  C   UNL     1       1.255   4.495  20.640  0.00  0.00    +0.000 C 
ATOM     12  C   UNL     1       1.065   3.030  21.151  0.00  0.00    +0.000 C 
ATOM     13  C   UNL     1       1.346   2.094  19.936  0.00  0.00    +0.000 C 
ENDROOT
BRANCH   4  14
ATOM     14  C   UNL     1       5.674   6.732  15.875  0.00  0.00    +0.000 C 
BRANCH  14  15
ATOM     15  N   UNL     1       7.080   6.502  16.266  0.00  0.00    +0.000 NA
ATOM     16  C   UNL     1       7.544   5.114  16.115  0.00  0.00    +0.000 C 
ATOM     17  C   UNL     1       7.365   4.222  17.356  0.00  0.00    +0.000 C 
ATOM     18  O   UNL     1       7.941   4.827  18.518  0.00  0.00    +0.000 OA
ATOM     19  C   UNL     1       7.329   6.095  18.776  0.00  0.00    +0.000 C 
ATOM     20  C   UNL     1       7.468   7.049  17.577  0.00  0.00    +0.000 C 
ENDBRANCH  14  15
ENDBRANCH   4  14
TORSDOF 2
ENDMDL
MODEL 2
REMARK VINA RESULT:      -7.4      2.812      3.978
REMARK  Name = 
REMARK  2 active torsions:
REMARK  status: ('A' for Active; 'I' for Inactive)
REMARK    1  A    between atoms: C_4  and  C_5
REMARK    2  A    between atoms: C_5  and  N_6
REMARK                            x       y       z     vdW  Elec       q    Type
REMARK                         _______ _______ _______ _____ _____    ______ ____
ROOT
ATOM      1 CL   UNL     1       2.283   4.764  21.353  0.00  0.00    +0.000 Cl
ATOM      2  C   UNL     1       2.673   5.423  19.837  0.00  0.00    +0.000 A 
ATOM      3  N   UNL     1       3.325   4.640  18.971  0.00  0.00    +0.000 NA
ATOM      4  C   UNL     1       3.609   5.159  17.764  0.00  0.00    +0.000 A 
ATOM      5  N   UNL     1       3.368   6.422  17.368  0.00  0.00    +0.000 NA
ATOM      6  C   UNL     1       2.725   7.163  18.289  0.00  0.00    +0.000 A 
ATOM      7  S   UNL     1       2.336   8.814  17.995  0.00  0.00    +0.000 S 
ATOM      8  C   UNL     1       1.562   8.917  19.474  0.00  0.00    +0.000 A 
ATOM      9  C   UNL     1       1.555   7.744  20.179  0.00  0.00    +0.000 A 
ATOM     10  C   UNL     1       2.298   6.720  19.539  0.00  0.00    +0.000 A 
ATOM     11  C   UNL     1       0.773   7.878  21.431  0.00  0.00    +0.000 C 
ATOM     12  C   UNL     1       0.047   9.247  21.227  0.00  0.00    +0.000 C 
ATOM     13  C   UNL     1       0.865  10.031  20.157  0.00  0.00    +0.000 C 
ENDROOT
BRANCH   4  14
ATOM     14  C   UNL     1       4.178   4.200  16.727  0.00  0.00    +0.000 C 
BRANCH  14  15
ATOM     15  N   UNL     1       5.633   3.944  16.733  0.00  0.00    +0.000 NA
ATOM     16  C   UNL     1       6.428   4.915  17.500  0.00  0.00    +0.000 C 
ATOM     17  C   UNL     1       6.945   6.122  16.697  0.00  0.00    +0.000 C 
ATOM     18  O   UNL     1       7.649   5.702  15.524  0.00  0.00    +0.000 OA
ATOM     19  C   UNL     1       6.793   4.925  14.679  0.00  0.00    +0.000 C 
ATOM     20  C   UNL     1       6.234   3.693  15.413  0.00  0.00    +0.000 C 
ENDBRANCH  14  15
ENDBRANCH   4  14
TORSDOF 2
ENDMDL
MODEL 3
REMARK VINA RESULT:      -6.9      4.369      6.100
REMARK  Name = 
REMARK  2 active torsions:
REMARK  status: ('A' for Active; 'I' for Inactive)
REMARK    1  A    between atoms: C_4  and  C_5
REMARK    2  A    between atoms: C_5  and  N_6
REMARK                            x       y       z     vdW  Elec       q    Type
REMARK                         _______ _______ _______ _____ _____    ______ ____
ROOT
ATOM      1 CL   UNL     1       4.761   6.403  16.348  0.00  0.00    +0.000 Cl
ATOM      2  C   UNL     1       3.657   6.802  17.575  0.00  0.00    +0.000 A 
ATOM      3  N   UNL     1       3.180   8.052  17.595  0.00  0.00    +0.000 NA
ATOM      4  C   UNL     1       2.287   8.354  18.554  0.00  0.00    +0.000 A 
ATOM      5  N   UNL     1       1.885   7.541  19.549  0.00  0.00    +0.000 NA
ATOM      6  C   UNL     1       2.414   6.305  19.481  0.00  0.00    +0.000 A 
ATOM      7  S   UNL     1       2.046   5.110  20.665  0.00  0.00    +0.000 S 
ATOM      8  C   UNL     1       2.968   3.982  19.844  0.00  0.00    +0.000 A 
ATOM      9  C   UNL     1       3.525   4.457  18.687  0.00  0.00    +0.000 A 
ATOM     10  C   UNL     1       3.277   5.839  18.491  0.00  0.00    +0.000 A 
ATOM     11  C   UNL     1       4.245   3.384  17.962  0.00  0.00    +0.000 C 
ATOM     12  C   UNL     1       3.781   2.098  18.718  0.00  0.00    +0.000 C 
ATOM     13  C   UNL     1       3.280   2.561  20.120  0.00  0.00    +0.000 C 
ENDROOT
BRANCH   4  14
ATOM     14  C   UNL     1       1.612   9.715  18.451  0.00  0.00    +0.000 C 
BRANCH  14  15
ATOM     15  N   UNL     1       0.472  10.001  19.346  0.00  0.00    +0.000 NA
ATOM     16  C   UNL     1      -0.755  10.439  18.662  0.00  0.00    +0.000 C 
ATOM     17  C   UNL     1      -0.900  11.961  18.482  0.00  0.00    +0.000 C 
ATOM     18  O   UNL     1      -0.737  12.649  19.725  0.00  0.00    +0.000 OA
ATOM     19  C   UNL     1       0.554  12.377  20.282  0.00  0.00    +0.000 C 
ATOM     20  C   UNL     1       0.775  10.869  20.495  0.00  0.00    +0.000 C 
ENDBRANCH  14  15
ENDBRANCH   4  14
TORSDOF 2
ENDMDL
MODEL 4
REMARK VINA RESULT:      -6.8      2.278      2.853
REMARK  Name = 
REMARK  2 active torsions:
REMARK  status: ('A' for Active; 'I' for Inactive)
REMARK    1  A    between atoms: C_4  and  C_5
REMARK    2  A    between atoms: C_5  and  N_6
REMARK                            x       y       z     vdW  Elec       q    Type
REMARK                         _______ _______ _______ _____ _____    ______ ____
ROOT
ATOM      1 CL   UNL     1       2.709   7.403  18.842  0.00  0.00    +0.000 Cl
ATOM      2  C   UNL     1       3.413   6.101  18.008  0.00  0.00    +0.000 A 
ATOM      3  N   UNL     1       4.165   6.386  16.939  0.00  0.00    +0.000 NA
ATOM      4  C   UNL     1       4.740   5.353  16.299  0.00  0.00    +0.000 A 
ATOM      5  N   UNL     1       4.568   4.049  16.582  0.00  0.00    +0.000 NA
ATOM      6  C   UNL     1       3.789   3.829  17.658  0.00  0.00    +0.000 A 
ATOM      7  S   UNL     1       3.424   2.231  18.186  0.00  0.00    +0.000 S 
ATOM      8  C   UNL     1       2.563   2.835  19.486  0.00  0.00    +0.000 A 
ATOM      9  C   UNL     1       2.559   4.202  19.562  0.00  0.00    +0.000 A 
ATOM     10  C   UNL     1       3.208   4.810  18.459  0.00  0.00    +0.000 A 
ATOM     11  C   UNL     1       1.864   4.666  20.786  0.00  0.00    +0.000 C 
ATOM     12  C   UNL     1       1.704   3.344  21.603  0.00  0.00    +0.000 C 
ATOM     13  C   UNL     1       1.820   2.172  20.581  0.00  0.00    +0.000 C 
ENDROOT
BRANCH   4  14
ATOM     14  C   UNL     1       5.741   5.702  15.206  0.00  0.00    +0.000 C 
BRANCH  14  15
ATOM     15  N   UNL     1       6.666   4.649  14.740  0.00  0.00    +0.000 NA
ATOM     16  C   UNL     1       7.826   5.138  13.979  0.00  0.00    +0.000 C 
ATOM     17  C   UNL     1       7.627   5.220  12.455  0.00  0.00    +0.000 C 
ATOM     18  O   UNL     1       7.159   3.975  11.926  0.00  0.00    +0.000 OA
ATOM     19  C   UNL     1       5.913   3.612  12.530  0.00  0.00    +0.000 C 
ATOM     20  C   UNL     1       6.031   3.508  14.060  0.00  0.00    +0.000 C 
ENDBRANCH  14  15
ENDBRANCH   4  14
TORSDOF 2
ENDMDL
MODEL 5
REMARK VINA RESULT:      -6.8      4.437      6.270
REMARK  Name = 
REMARK  2 active torsions:
REMARK  status: ('A' for Active; 'I' for Inactive)
REMARK    1  A    between atoms: C_4  and  C_5
REMARK    2  A    between atoms: C_5  and  N_6
REMARK                            x       y       z     vdW  Elec       q    Type
REMARK                         _______ _______ _______ _____ _____    ______ ____
ROOT
ATOM      1 CL   UNL     1       4.071   6.948  16.897  0.00  0.00    +0.000 Cl
ATOM      2  C   UNL     1       3.093   6.889  18.285  0.00  0.00    +0.000 A 
ATOM      3  N   UNL     1       2.506   8.025  18.677  0.00  0.00    +0.000 NA
ATOM      4  C   UNL     1       1.714   7.966  19.761  0.00  0.00    +0.000 A 
ATOM      5  N   UNL     1       1.515   6.887  20.541  0.00  0.00    +0.000 NA
ATOM      6  C   UNL     1       2.147   5.781  20.102  0.00  0.00    +0.000 A 
ATOM      7  S   UNL     1       2.042   4.293  20.962  0.00  0.00    +0.000 S 
ATOM      8  C   UNL     1       2.959   3.529  19.791  0.00  0.00    +0.000 A 
ATOM      9  C   UNL     1       3.322   4.342  18.752  0.00  0.00    +0.000 A 
ATOM     10  C   UNL     1       2.922   5.688  18.949  0.00  0.00    +0.000 A 
ATOM     11  C   UNL     1       4.046   3.582  17.706  0.00  0.00    +0.000 C 
ATOM     12  C   UNL     1       3.802   2.100  18.139  0.00  0.00    +0.000 C 
ATOM     13  C   UNL     1       3.436   2.134  19.654  0.00  0.00    +0.000 C 
ENDROOT
BRANCH   4  14
ATOM     14  C   UNL     1       0.905   9.215  20.081  0.00  0.00    +0.000 C 
BRANCH  14  15
ATOM     15  N   UNL     1       1.289  10.015  21.262  0.00  0.00    +0.000 NA
ATOM     16  C   UNL     1       1.023   9.371  22.558  0.00  0.00    +0.000 C 
ATOM     17  C   UNL     1      -0.355   9.675  23.173  0.00  0.00    +0.000 C 
ATOM     18  O   UNL     1      -0.591  11.085  23.247  0.00  0.00    +0.000 OA
ATOM     19  C   UNL     1      -0.535  11.670  21.941  0.00  0.00    +0.000 C 
ATOM     20  C   UNL     1       0.819  11.410  21.259  0.00  0.00    +0.000 C 
ENDBRANCH  14  15
ENDBRANCH   4  14
TORSDOF 2
ENDMDL
MODEL 6
REMARK VINA RESULT:      -6.8      3.200      4.165
REMARK  Name = 
REMARK  2 active torsions:
REMARK  status: ('A' for Active; 'I' for Inactive)
REMARK    1  A    between atoms: C_4  and  C_5
REMARK    2  A    between atoms: C_5  and  N_6
REMARK                            x       y       z     vdW  Elec       q    Type
REMARK                         _______ _______ _______ _____ _____    ______ ____
ROOT
ATOM      1 CL   UNL     1       1.912   5.650  21.229  0.00  0.00    +0.000 Cl
ATOM      2  C   UNL     1       2.374   6.477  19.819  0.00  0.00    +0.000 A 
ATOM      3  N   UNL     1       3.162   5.830  18.953  0.00  0.00    +0.000 NA
ATOM      4  C   UNL     1       3.503   6.481  17.827  0.00  0.00    +0.000 A 
ATOM      5  N   UNL     1       3.193   7.755  17.522  0.00  0.00    +0.000 NA
ATOM      6  C   UNL     1       2.413   8.355  18.441  0.00  0.00    +0.000 A 
ATOM      7  S   UNL     1       1.914   9.992  18.257  0.00  0.00    +0.000 S 
ATOM      8  C   UNL     1       1.011   9.896  19.661  0.00  0.00    +0.000 A 
ATOM      9  C   UNL     1       1.042   8.665  20.258  0.00  0.00    +0.000 A 
ATOM     10  C   UNL     1       1.919   7.765  19.603  0.00  0.00    +0.000 A 
ATOM     11  C   UNL     1       0.146   8.620  21.438  0.00  0.00    +0.000 C 
ATOM     12  C   UNL     1      -0.671   9.944  21.289  0.00  0.00    +0.000 C 
ATOM     13  C   UNL     1       0.168  10.885  20.371  0.00  0.00    +0.000 C 
ENDROOT
BRANCH   4  14
ATOM     14  C   UNL     1       4.236   5.670  16.768  0.00  0.00    +0.000 C 
BRANCH  14  15
ATOM     15  N   UNL     1       5.605   6.080  16.394  0.00  0.00    +0.000 NA
ATOM     16  C   UNL     1       6.196   5.321  15.281  0.00  0.00    +0.000 C 
ATOM     17  C   UNL     1       7.002   4.075  15.689  0.00  0.00    +0.000 C 
ATOM     18  O   UNL     1       7.995   4.397  16.669  0.00  0.00    +0.000 OA
ATOM     19  C   UNL     1       7.381   4.948  17.840  0.00  0.00    +0.000 C 
ATOM     20  C   UNL     1       6.555   6.204  17.513  0.00  0.00    +0.000 C 
ENDBRANCH  14  15
ENDBRANCH   4  14
TORSDOF 2
ENDMDL
MODEL 7
REMARK VINA RESULT:      -6.7      4.378      6.222
REMARK  Name = 
REMARK  2 active torsions:
REMARK  status: ('A' for Active; 'I' for Inactive)
REMARK    1  A    between atoms: C_4  and  C_5
REMARK    2  A    between atoms: C_5  and  N_6
REMARK                            x       y       z     vdW  Elec       q    Type
REMARK                         _______ _______ _______ _____ _____    ______ ____
ROOT
ATOM      1 CL   UNL     1       4.075   6.945  16.762  0.00  0.00    +0.000 Cl
ATOM      2  C   UNL     1       3.132   6.909  18.174  0.00  0.00    +0.000 A 
ATOM      3  N   UNL     1       2.608   8.065  18.597  0.00  0.00    +0.000 NA
ATOM      4  C   UNL     1       1.842   8.025  19.701  0.00  0.00    +0.000 A 
ATOM      5  N   UNL     1       1.614   6.945  20.470  0.00  0.00    +0.000 NA
ATOM      6  C   UNL     1       2.182   5.819  19.999  0.00  0.00    +0.000 A 
ATOM      7  S   UNL     1       2.030   4.323  20.839  0.00  0.00    +0.000 S 
ATOM      8  C   UNL     1       2.880   3.536  19.633  0.00  0.00    +0.000 A 
ATOM      9  C   UNL     1       3.254   4.348  18.597  0.00  0.00    +0.000 A 
ATOM     10  C   UNL     1       2.922   5.707  18.824  0.00  0.00    +0.000 A 
ATOM     11  C   UNL     1       3.914   3.572  17.521  0.00  0.00    +0.000 C 
ATOM     12  C   UNL     1       3.613   2.096  17.939  0.00  0.00    +0.000 C 
ATOM     13  C   UNL     1       3.288   2.123  19.463  0.00  0.00    +0.000 C 
ENDROOT
BRANCH   4  14
ATOM     14  C   UNL     1       1.101   9.306  20.061  0.00  0.00    +0.000 C 
BRANCH  14  15
ATOM     15  N   UNL     1       0.885  10.313  19.002  0.00  0.00    +0.000 NA
ATOM     16  C   UNL     1       1.113  11.705  19.418  0.00  0.00    +0.000 C 
ATOM     17  C   UNL     1      -0.127  12.442  19.956  0.00  0.00    +0.000 C 
ATOM     18  O   UNL     1      -1.220  12.358  19.036  0.00  0.00    +0.000 OA
ATOM     19  C   UNL     1      -1.570  10.989  18.799  0.00  0.00    +0.000 C 
ATOM     20  C   UNL     1      -0.377  10.183  18.256  0.00  0.00    +0.000 C 
ENDBRANCH  14  15
ENDBRANCH   4  14
TORSDOF 2
ENDMDL
MODEL 8
REMARK VINA RESULT:      -6.7      4.537      6.309
REMARK  Name = 
REMARK  2 active torsions:
REMARK  status: ('A' for Active; 'I' for Inactive)
REMARK    1  A    between atoms: C_4  and  C_5
REMARK    2  A    between atoms: C_5  and  N_6
REMARK                            x       y       z     vdW  Elec       q    Type
REMARK                         _______ _______ _______ _____ _____    ______ ____
ROOT
ATOM      1 CL   UNL     1       2.042   9.733  17.652  0.00  0.00    +0.000 Cl
ATOM      2  C   UNL     1       1.758   8.764  19.017  0.00  0.00    +0.000 A 
ATOM      3  N   UNL     1       2.181   7.496  18.974  0.00  0.00    +0.000 NA
ATOM      4  C   UNL     1       1.975   6.741  20.067  0.00  0.00    +0.000 A 
ATOM      5  N   UNL     1       1.311   7.116  21.177  0.00  0.00    +0.000 NA
ATOM      6  C   UNL     1       0.897   8.396  21.150  0.00  0.00    +0.000 A 
ATOM      7  S   UNL     1       0.012   9.076  22.462  0.00  0.00    +0.000 S 
ATOM      8  C   UNL     1      -0.015  10.564  21.699  0.00  0.00    +0.000 A 
ATOM      9  C   UNL     1       0.645  10.585  20.500  0.00  0.00    +0.000 A 
ATOM     10  C   UNL     1       1.124   9.306  20.120  0.00  0.00    +0.000 A 
ATOM     11  C   UNL     1       0.666  11.951  19.926  0.00  0.00    +0.000 C 
ATOM     12  C   UNL     1       0.168  12.825  21.122  0.00  0.00    +0.000 C 
ATOM     13  C   UNL     1      -0.600  11.868  22.083  0.00  0.00    +0.000 C 
ENDROOT
BRANCH   4  14
ATOM     14  C   UNL     1       2.628   5.365  20.078  0.00  0.00    +0.000 C 
BRANCH  14  15
ATOM     15  N   UNL     1       2.822   4.672  18.788  0.00  0.00    +0.000 NA
ATOM     16  C   UNL     1       1.637   3.961  18.284  0.00  0.00    +0.000 C 
ATOM     17  C   UNL     1       1.520   2.488  18.717  0.00  0.00    +0.000 C 
ATOM     18  O   UNL     1       2.716   1.762  18.415  0.00  0.00    +0.000 OA
ATOM     19  C   UNL     1       3.838   2.347  19.085  0.00  0.00    +0.000 C 
ATOM     20  C   UNL     1       4.024   3.826  18.701  0.00  0.00    +0.000 C 
ENDBRANCH  14  15
ENDBRANCH   4  14
TORSDOF 2
ENDMDL
MODEL 9
REMARK VINA RESULT:      -6.6      4.633      6.597
REMARK  Name = 
REMARK  2 active torsions:
REMARK  status: ('A' for Active; 'I' for Inactive)
REMARK    1  A    between atoms: C_4  and  C_5
REMARK    2  A    between atoms: C_5  and  N_6
REMARK                            x       y       z     vdW  Elec       q    Type
REMARK                         _______ _______ _______ _____ _____    ______ ____
ROOT
ATOM      1 CL   UNL     1       3.522   7.178  17.349  0.00  0.00    +0.000 Cl
ATOM      2  C   UNL     1       2.727   6.879  18.820  0.00  0.00    +0.000 A 
ATOM      3  N   UNL     1       2.400   7.936  19.572  0.00  0.00    +0.000 NA
ATOM      4  C   UNL     1       1.748   7.694  20.722  0.00  0.00    +0.000 A 
ATOM      5  N   UNL     1       1.462   6.482  21.233  0.00  0.00    +0.000 NA
ATOM      6  C   UNL     1       1.832   5.461  20.437  0.00  0.00    +0.000 A 
ATOM      7  S   UNL     1       1.577   3.824  20.906  0.00  0.00    +0.000 S 
ATOM      8  C   UNL     1       2.195   3.288  19.448  0.00  0.00    +0.000 A 
ATOM      9  C   UNL     1       2.564   4.295  18.598  0.00  0.00    +0.000 A 
ATOM     10  C   UNL     1       2.432   5.578  19.185  0.00  0.00    +0.000 A 
ATOM     11  C   UNL     1       3.010   3.754  17.292  0.00  0.00    +0.000 C 
ATOM     12  C   UNL     1       2.567   2.258  17.379  0.00  0.00    +0.000 C 
ATOM     13  C   UNL     1       2.401   1.930  18.894  0.00  0.00    +0.000 C 
ENDROOT
BRANCH   4  14
ATOM     14  C   UNL     1       1.215   8.908  21.470  0.00  0.00    +0.000 C 
BRANCH  14  15
ATOM     15  N   UNL     1      -0.229   9.208  21.382  0.00  0.00    +0.000 NA
ATOM     16  C   UNL     1      -0.617  10.045  20.236  0.00  0.00    +0.000 C 
ATOM     17  C   UNL     1      -0.624  11.561  20.502  0.00  0.00    +0.000 C 
ATOM     18  O   UNL     1      -1.407  11.882  21.655  0.00  0.00    +0.000 OA
ATOM     19  C   UNL     1      -0.887  11.219  22.813  0.00  0.00    +0.000 C 
ATOM     20  C   UNL     1      -0.850   9.692  22.626  0.00  0.00    +0.000 C 
ENDBRANCH  14  15
ENDBRANCH   4  14
TORSDOF 2
ENDMDL
