MODEL 1
REMARK VINA RESULT:      -7.2      0.000      0.000
REMARK  Name = 
REMARK  6 active torsions:
REMARK  status: ('A' for Active; 'I' for Inactive)
REMARK    1  A    between atoms: C_1  and  C_2
REMARK    2  A    between atoms: C_2  and  C_3
REMARK    3  A    between atoms: C_8  and  C_9
REMARK    4  A    between atoms: C_13  and  O_14
REMARK    5  A    between atoms: O_14  and  C_15
REMARK    6  A    between atoms: N_20  and  C_21
REMARK                            x       y       z     vdW  Elec       q    Type
REMARK                         _______ _______ _______ _____ _____    ______ ____
ROOT
ATOM      1  C   UNL     1       1.350   7.472  20.435  0.00  0.00    +0.000 A 
ATOM      2  C   UNL     1       1.567   6.204  20.831  0.00  0.00    +0.000 A 
ATOM      3  N   UNL     1       2.434   5.370  20.149  0.00  0.00    +0.000 N 
ATOM      4  N   UNL     1       2.779   4.105  20.491  0.00  0.00    +0.000 NA
ATOM      5  C   UNL     1       3.726   3.780  19.613  0.00  0.00    +0.000 A 
ATOM      6  C   UNL     1       3.992   4.800  18.674  0.00  0.00    +0.000 A 
ATOM      7  C   UNL     1       3.121   5.822  19.024  0.00  0.00    +0.000 A 
ATOM      8  N   UNL     1       2.886   7.072  18.512  0.00  0.00    +0.000 NA
ATOM      9  C   UNL     1       2.046   7.871  19.145  0.00  0.00    +0.000 A 
ATOM     10  N   UNL     1       1.899   9.084  18.515  0.00  0.00    +0.000 N 
ATOM     11  C   UNL     1       0.683   9.846  18.376  0.00  0.00    +0.000 C 
ATOM     12  H   UNL     1       2.466   9.096  17.670  0.00  0.00    +0.000 HD
ENDROOT
BRANCH   6  13
ATOM     13  C   UNL     1       4.964   4.823  17.589  0.00  0.00    +0.000 A 
ATOM     14  C   UNL     1       4.968   3.841  16.599  0.00  0.00    +0.000 A 
ATOM     15  C   UNL     1       5.921   3.906  15.597  0.00  0.00    +0.000 A 
ATOM     16  N   UNL     1       6.860   4.867  15.518  0.00  0.00    +0.000 NA
ATOM     17  C   UNL     1       6.844   5.808  16.479  0.00  0.00    +0.000 A 
ATOM     18  C   UNL     1       5.935   5.831  17.527  0.00  0.00    +0.000 A 
BRANCH  17  19
ATOM     19  O   UNL     1       7.776   6.833  16.449  0.00  0.00    +0.000 OA
ATOM     20  C   UNL     1       7.646   7.720  17.560  0.00  0.00    +0.000 C 
ENDBRANCH  17  19
ENDBRANCH   6  13
BRANCH   1  22
ATOM     21  C   UNL     1       1.445   9.129  22.293  0.00  0.00    +0.000 C 
ATOM     22  C   UNL     1       0.556   8.414  21.285  0.00  0.00    +0.000 C 
ENDBRANCH   1  22
TORSDOF 3
ENDMDL
MODEL 2
REMARK VINA RESULT:      -7.0      1.286      1.846
REMARK  Name = 
REMARK  6 active torsions:
REMARK  status: ('A' for Active; 'I' for Inactive)
REMARK    1  A    between atoms: C_1  and  C_2
REMARK    2  A    between atoms: C_2  and  C_3
REMARK    3  A    between atoms: C_8  and  C_9
REMARK    4  A    between atoms: C_13  and  O_14
REMARK    5  A    between atoms: O_14  and  C_15
REMARK    6  A    between atoms: N_20  and  C_21
REMARK                            x       y       z     vdW  Elec       q    Type
REMARK                         _______ _______ _______ _____ _____    ______ ____
ROOT
ATOM      1  C   UNL     1       1.426   7.205  20.382  0.00  0.00    +0.000 A 
ATOM      2  C   UNL     1       1.547   5.935  20.810  0.00  0.00    +0.000 A 
ATOM      3  N   UNL     1       2.468   5.067  20.251  0.00  0.00    +0.000 N 
ATOM      4  N   UNL     1       2.724   3.794  20.641  0.00  0.00    +0.000 NA
ATOM      5  C   UNL     1       3.766   3.432  19.896  0.00  0.00    +0.000 A 
ATOM      6  C   UNL     1       4.186   4.435  18.994  0.00  0.00    +0.000 A 
ATOM      7  C   UNL     1       3.310   5.486  19.223  0.00  0.00    +0.000 A 
ATOM      8  N   UNL     1       3.185   6.739  18.678  0.00  0.00    +0.000 NA
ATOM      9  C   UNL     1       2.296   7.570  19.192  0.00  0.00    +0.000 A 
ATOM     10  N   UNL     1       2.273   8.782  18.543  0.00  0.00    +0.000 N 
ATOM     11  C   UNL     1       1.111   9.580  18.243  0.00  0.00    +0.000 C 
ATOM     12  H   UNL     1       2.945   8.768  17.779  0.00  0.00    +0.000 HD
ENDROOT
BRANCH   6  13
ATOM     13  C   UNL     1       5.291   4.417  18.045  0.00  0.00    +0.000 A 
ATOM     14  C   UNL     1       6.578   4.801  18.425  0.00  0.00    +0.000 A 
ATOM     15  C   UNL     1       7.588   4.774  17.479  0.00  0.00    +0.000 A 
ATOM     16  N   UNL     1       7.406   4.400  16.198  0.00  0.00    +0.000 NA
ATOM     17  C   UNL     1       6.161   4.032  15.847  0.00  0.00    +0.000 A 
ATOM     18  C   UNL     1       5.079   4.028  16.717  0.00  0.00    +0.000 A 
BRANCH  17  19
ATOM     19  O   UNL     1       5.908   3.625  14.547  0.00  0.00    +0.000 OA
ATOM     20  C   UNL     1       6.671   4.358  13.589  0.00  0.00    +0.000 C 
ENDBRANCH  17  19
ENDBRANCH   6  13
BRANCH   1  22
ATOM     21  C   UNL     1       1.372   9.002  22.108  0.00  0.00    +0.000 C 
ATOM     22  C   UNL     1       0.559   8.179  21.117  0.00  0.00    +0.000 C 
ENDBRANCH   1  22
TORSDOF 3
ENDMDL
MODEL 3
REMARK VINA RESULT:      -6.8      2.963      4.720
REMARK  Name = 
REMARK  6 active torsions:
REMARK  status: ('A' for Active; 'I' for Inactive)
REMARK    1  A    between atoms: C_1  and  C_2
REMARK    2  A    between atoms: C_2  and  C_3
REMARK    3  A    between atoms: C_8  and  C_9
REMARK    4  A    between atoms: C_13  and  O_14
REMARK    5  A    between atoms: O_14  and  C_15
REMARK    6  A    between atoms: N_20  and  C_21
REMARK                            x       y       z     vdW  Elec       q    Type
REMARK                         _______ _______ _______ _____ _____    ______ ____
ROOT
ATOM      1  C   UNL     1       0.196  10.102  20.186  0.00  0.00    +0.000 A 
ATOM      2  C   UNL     1       0.853  10.161  19.014  0.00  0.00    +0.000 A 
ATOM      3  N   UNL     1       1.704   9.148  18.608  0.00  0.00    +0.000 N 
ATOM      4  N   UNL     1       2.363   9.067  17.427  0.00  0.00    +0.000 NA
ATOM      5  C   UNL     1       2.934   7.864  17.458  0.00  0.00    +0.000 A 
ATOM      6  C   UNL     1       2.688   7.158  18.656  0.00  0.00    +0.000 A 
ATOM      7  C   UNL     1       1.904   8.023  19.406  0.00  0.00    +0.000 A 
ATOM      8  N   UNL     1       1.336   7.934  20.651  0.00  0.00    +0.000 NA
ATOM      9  C   UNL     1       0.536   8.904  21.056  0.00  0.00    +0.000 A 
ATOM     10  N   UNL     1       0.048   8.688  22.323  0.00  0.00    +0.000 N 
ATOM     11  C   UNL     1      -0.160   9.677  23.351  0.00  0.00    +0.000 C 
ATOM     12  H   UNL     1       0.433   7.820  22.689  0.00  0.00    +0.000 HD
ENDROOT
BRANCH   6  13
ATOM     13  C   UNL     1       3.120   5.822  19.043  0.00  0.00    +0.000 A 
ATOM     14  C   UNL     1       4.468   5.463  19.025  0.00  0.00    +0.000 A 
ATOM     15  C   UNL     1       4.821   4.176  19.393  0.00  0.00    +0.000 A 
ATOM     16  N   UNL     1       3.935   3.234  19.769  0.00  0.00    +0.000 NA
ATOM     17  C   UNL     1       2.640   3.595  19.782  0.00  0.00    +0.000 A 
ATOM     18  C   UNL     1       2.182   4.857  19.427  0.00  0.00    +0.000 A 
BRANCH  17  19
ATOM     19  O   UNL     1       1.677   2.677  20.170  0.00  0.00    +0.000 OA
ATOM     20  C   UNL     1       1.465   2.673  21.581  0.00  0.00    +0.000 C 
ENDBRANCH  17  19
ENDBRANCH   6  13
BRANCH   1  22
ATOM     21  C   UNL     1      -1.659  11.504  19.292  0.00  0.00    +0.000 C 
ATOM     22  C   UNL     1      -0.856  11.112  20.525  0.00  0.00    +0.000 C 
ENDBRANCH   1  22
TORSDOF 3
ENDMDL
MODEL 4
REMARK VINA RESULT:      -6.8      3.119      5.212
REMARK  Name = 
REMARK  6 active torsions:
REMARK  status: ('A' for Active; 'I' for Inactive)
REMARK    1  A    between atoms: C_1  and  C_2
REMARK    2  A    between atoms: C_2  and  C_3
REMARK    3  A    between atoms: C_8  and  C_9
REMARK    4  A    between atoms: C_13  and  O_14
REMARK    5  A    between atoms: O_14  and  C_15
REMARK    6  A    between atoms: N_20  and  C_21
REMARK                            x       y       z     vdW  Elec       q    Type
REMARK                         _______ _______ _______ _____ _____    ______ ____
ROOT
ATOM      1  C   UNL     1       3.216   3.990  18.819  0.00  0.00    +0.000 A 
ATOM      2  C   UNL     1       3.496   5.285  18.582  0.00  0.00    +0.000 A 
ATOM      3  N   UNL     1       4.262   5.673  17.497  0.00  0.00    +0.000 N 
ATOM      4  N   UNL     1       4.552   6.943  17.123  0.00  0.00    +0.000 NA
ATOM      5  C   UNL     1       5.192   6.799  15.964  0.00  0.00    +0.000 A 
ATOM      6  C   UNL     1       5.358   5.450  15.580  0.00  0.00    +0.000 A 
ATOM      7  C   UNL     1       4.767   4.728  16.607  0.00  0.00    +0.000 A 
ATOM      8  N   UNL     1       4.594   3.386  16.832  0.00  0.00    +0.000 NA
ATOM      9  C   UNL     1       3.879   3.003  17.875  0.00  0.00    +0.000 A 
ATOM     10  N   UNL     1       3.799   1.635  17.983  0.00  0.00    +0.000 N 
ATOM     11  C   UNL     1       3.829   0.860  19.198  0.00  0.00    +0.000 C 
ATOM     12  H   UNL     1       4.336   1.205  17.232  0.00  0.00    +0.000 HD
ENDROOT
BRANCH   6  13
ATOM     13  C   UNL     1       5.980   4.903  14.381  0.00  0.00    +0.000 A 
ATOM     14  C   UNL     1       7.254   5.304  13.979  0.00  0.00    +0.000 A 
ATOM     15  C   UNL     1       7.792   4.760  12.826  0.00  0.00    +0.000 A 
ATOM     16  N   UNL     1       7.155   3.859  12.054  0.00  0.00    +0.000 NA
ATOM     17  C   UNL     1       5.928   3.481  12.455  0.00  0.00    +0.000 A 
ATOM     18  C   UNL     1       5.298   3.970  13.592  0.00  0.00    +0.000 A 
BRANCH  17  19
ATOM     19  O   UNL     1       5.222   2.548  11.712  0.00  0.00    +0.000 OA
ATOM     20  C   UNL     1       4.042   3.098  11.127  0.00  0.00    +0.000 C 
ENDBRANCH  17  19
ENDBRANCH   6  13
BRANCH   1  22
ATOM     21  C   UNL     1       1.809   4.812  20.706  0.00  0.00    +0.000 C 
ATOM     22  C   UNL     1       2.237   3.603  19.885  0.00  0.00    +0.000 C 
ENDBRANCH   1  22
TORSDOF 3
ENDMDL
MODEL 5
REMARK VINA RESULT:      -6.7      3.086      6.702
REMARK  Name = 
REMARK  6 active torsions:
REMARK  status: ('A' for Active; 'I' for Inactive)
REMARK    1  A    between atoms: C_1  and  C_2
REMARK    2  A    between atoms: C_2  and  C_3
REMARK    3  A    between atoms: C_8  and  C_9
REMARK    4  A    between atoms: C_13  and  O_14
REMARK    5  A    between atoms: O_14  and  C_15
REMARK    6  A    between atoms: N_20  and  C_21
REMARK                            x       y       z     vdW  Elec       q    Type
REMARK                         _______ _______ _______ _____ _____    ______ ____
ROOT
ATOM      1  C   UNL     1       3.564   3.895  19.524  0.00  0.00    +0.000 A 
ATOM      2  C   UNL     1       3.959   4.630  18.468  0.00  0.00    +0.000 A 
ATOM      3  N   UNL     1       3.471   5.906  18.250  0.00  0.00    +0.000 N 
ATOM      4  N   UNL     1       3.843   6.759  17.265  0.00  0.00    +0.000 NA
ATOM      5  C   UNL     1       3.199   7.888  17.556  0.00  0.00    +0.000 A 
ATOM      6  C   UNL     1       2.381   7.787  18.703  0.00  0.00    +0.000 A 
ATOM      7  C   UNL     1       2.552   6.477  19.128  0.00  0.00    +0.000 A 
ATOM      8  N   UNL     1       2.039   5.757  20.177  0.00  0.00    +0.000 NA
ATOM      9  C   UNL     1       2.485   4.531  20.384  0.00  0.00    +0.000 A 
ATOM     10  N   UNL     1       1.878   3.926  21.459  0.00  0.00    +0.000 N 
ATOM     11  C   UNL     1       1.485   2.543  21.565  0.00  0.00    +0.000 C 
ATOM     12  H   UNL     1       1.189   4.559  21.858  0.00  0.00    +0.000 HD
ENDROOT
BRANCH   6  13
ATOM     13  C   UNL     1       1.554   8.804  19.337  0.00  0.00    +0.000 A 
ATOM     14  C   UNL     1       0.844   9.737  18.579  0.00  0.00    +0.000 A 
ATOM     15  C   UNL     1       0.083  10.688  19.235  0.00  0.00    +0.000 A 
ATOM     16  N   UNL     1      -0.017  10.776  20.575  0.00  0.00    +0.000 NA
ATOM     17  C   UNL     1       0.671   9.869  21.292  0.00  0.00    +0.000 A 
ATOM     18  C   UNL     1       1.467   8.879  20.732  0.00  0.00    +0.000 A 
BRANCH  17  19
ATOM     19  O   UNL     1       0.603   9.896  22.676  0.00  0.00    +0.000 OA
ATOM     20  C   UNL     1      -0.731  10.067  23.152  0.00  0.00    +0.000 C 
ENDBRANCH  17  19
ENDBRANCH   6  13
BRANCH   1  22
ATOM     21  C   UNL     1       3.844   1.512  18.851  0.00  0.00    +0.000 C 
ATOM     22  C   UNL     1       4.236   2.597  19.846  0.00  0.00    +0.000 C 
ENDBRANCH   1  22
TORSDOF 3
ENDMDL
MODEL 6
REMARK VINA RESULT:      -6.7      2.990      4.711
REMARK  Name = 
REMARK  6 active torsions:
REMARK  status: ('A' for Active; 'I' for Inactive)
REMARK    1  A    between atoms: C_1  and  C_2
REMARK    2  A    between atoms: C_2  and  C_3
REMARK    3  A    between atoms: C_8  and  C_9
REMARK    4  A    between atoms: C_13  and  O_14
REMARK    5  A    between atoms: O_14  and  C_15
REMARK    6  A    between atoms: N_20  and  C_21
REMARK                            x       y       z     vdW  Elec       q    Type
REMARK                         _______ _______ _______ _____ _____    ______ ____
ROOT
ATOM      1  C   UNL     1       3.720   4.357  19.300  0.00  0.00    +0.000 A 
ATOM      2  C   UNL     1       5.033   4.538  19.531  0.00  0.00    +0.000 A 
ATOM      3  N   UNL     1       5.960   4.521  18.504  0.00  0.00    +0.000 N 
ATOM      4  N   UNL     1       7.290   4.756  18.608  0.00  0.00    +0.000 NA
ATOM      5  C   UNL     1       7.717   4.757  17.346  0.00  0.00    +0.000 A 
ATOM      6  C   UNL     1       6.694   4.495  16.409  0.00  0.00    +0.000 A 
ATOM      7  C   UNL     1       5.557   4.318  17.185  0.00  0.00    +0.000 A 
ATOM      8  N   UNL     1       4.248   4.040  16.884  0.00  0.00    +0.000 NA
ATOM      9  C   UNL     1       3.358   4.037  17.860  0.00  0.00    +0.000 A 
ATOM     10  N   UNL     1       2.093   3.735  17.415  0.00  0.00    +0.000 N 
ATOM     11  C   UNL     1       1.106   2.931  18.093  0.00  0.00    +0.000 C 
ATOM     12  H   UNL     1       2.121   3.555  16.414  0.00  0.00    +0.000 HD
ENDROOT
BRANCH   6  13
ATOM     13  C   UNL     1       6.768   4.438  14.955  0.00  0.00    +0.000 A 
ATOM     14  C   UNL     1       7.691   5.208  14.247  0.00  0.00    +0.000 A 
ATOM     15  C   UNL     1       7.710   5.123  12.865  0.00  0.00    +0.000 A 
ATOM     16  N   UNL     1       6.883   4.336  12.151  0.00  0.00    +0.000 NA
ATOM     17  C   UNL     1       6.001   3.598  12.848  0.00  0.00    +0.000 A 
ATOM     18  C   UNL     1       5.896   3.615  14.232  0.00  0.00    +0.000 A 
BRANCH  17  19
ATOM     19  O   UNL     1       5.128   2.758  12.174  0.00  0.00    +0.000 OA
ATOM     20  C   UNL     1       5.809   1.807  11.357  0.00  0.00    +0.000 C 
ENDBRANCH  17  19
ENDBRANCH   6  13
BRANCH   1  22
ATOM     21  C   UNL     1       2.068   5.937  20.292  0.00  0.00    +0.000 C 
ATOM     22  C   UNL     1       2.716   4.562  20.391  0.00  0.00    +0.000 C 
ENDBRANCH   1  22
TORSDOF 3
ENDMDL
MODEL 7
REMARK VINA RESULT:      -6.7      1.125      1.304
REMARK  Name = 
REMARK  6 active torsions:
REMARK  status: ('A' for Active; 'I' for Inactive)
REMARK    1  A    between atoms: C_1  and  C_2
REMARK    2  A    between atoms: C_2  and  C_3
REMARK    3  A    between atoms: C_8  and  C_9
REMARK    4  A    between atoms: C_13  and  O_14
REMARK    5  A    between atoms: O_14  and  C_15
REMARK    6  A    between atoms: N_20  and  C_21
REMARK                            x       y       z     vdW  Elec       q    Type
REMARK                         _______ _______ _______ _____ _____    ______ ____
ROOT
ATOM      1  C   UNL     1       0.869   8.754  20.827  0.00  0.00    +0.000 A 
ATOM      2  C   UNL     1       0.969   7.507  21.320  0.00  0.00    +0.000 A 
ATOM      3  N   UNL     1       1.702   6.528  20.671  0.00  0.00    +0.000 N 
ATOM      4  N   UNL     1       1.926   5.263  21.103  0.00  0.00    +0.000 NA
ATOM      5  C   UNL     1       2.782   4.765  20.212  0.00  0.00    +0.000 A 
ATOM      6  C   UNL     1       3.103   5.671  19.178  0.00  0.00    +0.000 A 
ATOM      7  C   UNL     1       2.368   6.809  19.480  0.00  0.00    +0.000 A 
ATOM      8  N   UNL     1       2.241   8.033  18.875  0.00  0.00    +0.000 NA
ATOM      9  C   UNL     1       1.530   8.969  19.476  0.00  0.00    +0.000 A 
ATOM     10  N   UNL     1       1.480  10.137  18.753  0.00  0.00    +0.000 N 
ATOM     11  C   UNL     1       0.348  11.017  18.607  0.00  0.00    +0.000 C 
ATOM     12  H   UNL     1       1.996  10.018  17.884  0.00  0.00    +0.000 HD
ENDROOT
BRANCH   6  13
ATOM     13  C   UNL     1       4.009   5.498  18.050  0.00  0.00    +0.000 A 
ATOM     14  C   UNL     1       3.900   4.401  17.195  0.00  0.00    +0.000 A 
ATOM     15  C   UNL     1       4.795   4.281  16.146  0.00  0.00    +0.000 A 
ATOM     16  N   UNL     1       5.779   5.165  15.895  0.00  0.00    +0.000 NA
ATOM     17  C   UNL     1       5.871   6.218  16.727  0.00  0.00    +0.000 A 
ATOM     18  C   UNL     1       5.028   6.428  17.810  0.00  0.00    +0.000 A 
BRANCH  17  19
ATOM     19  O   UNL     1       6.854   7.172  16.518  0.00  0.00    +0.000 OA
ATOM     20  C   UNL     1       7.628   7.422  17.690  0.00  0.00    +0.000 C 
ENDBRANCH  17  19
ENDBRANCH   6  13
BRANCH   1  22
ATOM     21  C   UNL     1      -0.018   9.398  23.065  0.00  0.00    +0.000 C 
ATOM     22  C   UNL     1       0.231   9.845  21.631  0.00  0.00    +0.000 C 
ENDBRANCH   1  22
TORSDOF 3
ENDMDL
MODEL 8
REMARK VINA RESULT:      -6.7      2.816      4.786
REMARK  Name = 
REMARK  6 active torsions:
REMARK  status: ('A' for Active; 'I' for Inactive)
REMARK    1  A    between atoms: C_1  and  C_2
REMARK    2  A    between atoms: C_2  and  C_3
REMARK    3  A    between atoms: C_8  and  C_9
REMARK    4  A    between atoms: C_13  and  O_14
REMARK    5  A    between atoms: O_14  and  C_15
REMARK    6  A    between atoms: N_20  and  C_21
REMARK                            x       y       z     vdW  Elec       q    Type
REMARK                         _______ _______ _______ _____ _____    ______ ____
ROOT
ATOM      1  C   UNL     1       3.302   4.028  20.264  0.00  0.00    +0.000 A 
ATOM      2  C   UNL     1       3.105   5.286  19.831  0.00  0.00    +0.000 A 
ATOM      3  N   UNL     1       3.671   5.745  18.654  0.00  0.00    +0.000 N 
ATOM      4  N   UNL     1       3.491   6.963  18.089  0.00  0.00    +0.000 NA
ATOM      5  C   UNL     1       4.127   6.873  16.921  0.00  0.00    +0.000 A 
ATOM      6  C   UNL     1       4.752   5.623  16.719  0.00  0.00    +0.000 A 
ATOM      7  C   UNL     1       4.465   4.908  17.873  0.00  0.00    +0.000 A 
ATOM      8  N   UNL     1       4.779   3.641  18.293  0.00  0.00    +0.000 NA
ATOM      9  C   UNL     1       4.258   3.199  19.424  0.00  0.00    +0.000 A 
ATOM     10  N   UNL     1       4.666   1.921  19.727  0.00  0.00    +0.000 N 
ATOM     11  C   UNL     1       4.983   1.400  21.033  0.00  0.00    +0.000 C 
ATOM     12  H   UNL     1       5.310   1.594  19.009  0.00  0.00    +0.000 HD
ENDROOT
BRANCH   6  13
ATOM     13  C   UNL     1       5.510   5.149  15.569  0.00  0.00    +0.000 A 
ATOM     14  C   UNL     1       6.887   5.355  15.475  0.00  0.00    +0.000 A 
ATOM     15  C   UNL     1       7.555   4.892  14.355  0.00  0.00    +0.000 A 
ATOM     16  N   UNL     1       6.955   4.249  13.335  0.00  0.00    +0.000 NA
ATOM     17  C   UNL     1       5.628   4.057  13.441  0.00  0.00    +0.000 A 
ATOM     18  C   UNL     1       4.865   4.486  14.518  0.00  0.00    +0.000 A 
BRANCH  17  19
ATOM     19  O   UNL     1       4.950   3.392  12.432  0.00  0.00    +0.000 OA
ATOM     20  C   UNL     1       5.792   2.494  11.710  0.00  0.00    +0.000 C 
ENDBRANCH  17  19
ENDBRANCH   6  13
BRANCH   1  22
ATOM     21  C   UNL     1       1.193   2.923  21.001  0.00  0.00    +0.000 C 
ATOM     22  C   UNL     1       2.536   3.494  21.435  0.00  0.00    +0.000 C 
ENDBRANCH   1  22
TORSDOF 3
ENDMDL
MODEL 9
REMARK VINA RESULT:      -6.6      3.449      7.685
REMARK  Name = 
REMARK  6 active torsions:
REMARK  status: ('A' for Active; 'I' for Inactive)
REMARK    1  A    between atoms: C_1  and  C_2
REMARK    2  A    between atoms: C_2  and  C_3
REMARK    3  A    between atoms: C_8  and  C_9
REMARK    4  A    between atoms: C_13  and  O_14
REMARK    5  A    between atoms: O_14  and  C_15
REMARK    6  A    between atoms: N_20  and  C_21
REMARK                            x       y       z     vdW  Elec       q    Type
REMARK                         _______ _______ _______ _____ _____    ______ ____
ROOT
ATOM      1  C   UNL     1       3.452   5.942  18.532  0.00  0.00    +0.000 A 
ATOM      2  C   UNL     1       3.187   7.020  17.773  0.00  0.00    +0.000 A 
ATOM      3  N   UNL     1       2.388   8.052  18.233  0.00  0.00    +0.000 N 
ATOM      4  N   UNL     1       2.106   9.210  17.587  0.00  0.00    +0.000 NA
ATOM      5  C   UNL     1       1.420   9.919  18.482  0.00  0.00    +0.000 A 
ATOM      6  C   UNL     1       1.216   9.236  19.700  0.00  0.00    +0.000 A 
ATOM      7  C   UNL     1       1.833   8.007  19.510  0.00  0.00    +0.000 A 
ATOM      8  N   UNL     1       1.989   6.903  20.307  0.00  0.00    +0.000 NA
ATOM      9  C   UNL     1       2.736   5.904  19.871  0.00  0.00    +0.000 A 
ATOM     10  N   UNL     1       2.796   4.862  20.766  0.00  0.00    +0.000 N 
ATOM     11  C   UNL     1       2.797   3.454  20.456  0.00  0.00    +0.000 C 
ATOM     12  H   UNL     1       2.224   5.083  21.579  0.00  0.00    +0.000 HD
ENDROOT
BRANCH   6  13
ATOM     13  C   UNL     1       0.540   9.689  20.909  0.00  0.00    +0.000 A 
ATOM     14  C   UNL     1       0.745   9.056  22.135  0.00  0.00    +0.000 A 
ATOM     15  C   UNL     1       0.068   9.522  23.248  0.00  0.00    +0.000 A 
ATOM     16  N   UNL     1      -0.790  10.560  23.224  0.00  0.00    +0.000 NA
ATOM     17  C   UNL     1      -0.976  11.161  22.036  0.00  0.00    +0.000 A 
ATOM     18  C   UNL     1      -0.351  10.768  20.860  0.00  0.00    +0.000 A 
BRANCH  17  19
ATOM     19  O   UNL     1      -1.838  12.243  21.944  0.00  0.00    +0.000 OA
ATOM     20  C   UNL     1      -2.765  12.295  23.027  0.00  0.00    +0.000 C 
ENDBRANCH  17  19
ENDBRANCH   6  13
BRANCH   1  22
ATOM     21  C   UNL     1       4.015   4.218  16.822  0.00  0.00    +0.000 C 
ATOM     22  C   UNL     1       4.463   4.928  18.093  0.00  0.00    +0.000 C 
ENDBRANCH   1  22
TORSDOF 3
ENDMDL
