MODEL 1
REMARK VINA RESULT:      -7.8      0.000      0.000
REMARK  Name = 
REMARK  7 active torsions:
REMARK  status: ('A' for Active; 'I' for Inactive)
REMARK    1  A    between atoms: C_1  and  O_2
REMARK    2  A    between atoms: O_2  and  C_3
REMARK    3  A    between atoms: C_8  and  C_9
REMARK    4  A    between atoms: C_12  and  O_13
REMARK    5  A    between atoms: C_15  and  O_16
REMARK    6  A    between atoms: O_16  and  C_17
REMARK    7  A    between atoms: C_24  and  O_25
REMARK                            x       y       z     vdW  Elec       q    Type
REMARK                         _______ _______ _______ _____ _____    ______ ____
ROOT
ATOM      1  C   UNL     1       3.141   3.865  19.248  0.00  0.00    +0.000 A 
ATOM      2  C   UNL     1       2.547   3.348  20.403  0.00  0.00    +0.000 A 
ATOM      3  C   UNL     1       1.702   4.139  21.158  0.00  0.00    +0.000 A 
ATOM      4  C   UNL     1       1.483   5.463  20.786  0.00  0.00    +0.000 A 
ATOM      5  C   UNL     1       2.171   6.092  19.714  0.00  0.00    +0.000 A 
ATOM      6  C   UNL     1       2.102   7.525  19.467  0.00  0.00    +0.000 A 
ATOM      7  C   UNL     1       2.849   8.034  18.391  0.00  0.00    +0.000 A 
ATOM      8  C   UNL     1       3.499   7.204  17.490  0.00  0.00    +0.000 A 
ATOM      9  C   UNL     1       3.549   5.836  17.729  0.00  0.00    +0.000 A 
ATOM     10  C   UNL     1       2.962   5.245  18.881  0.00  0.00    +0.000 A 
ENDROOT
BRANCH   6  11
ATOM     11  C   UNL     1       1.352   8.498  20.360  0.00  0.00    +0.000 A 
ATOM     12  C   UNL     1       1.674   8.476  21.727  0.00  0.00    +0.000 A 
ATOM     13  C   UNL     1       0.940   9.197  22.647  0.00  0.00    +0.000 A 
ATOM     14  C   UNL     1      -0.040  10.090  22.218  0.00  0.00    +0.000 A 
ATOM     15  C   UNL     1      -0.297  10.365  20.835  0.00  0.00    +0.000 A 
ATOM     16  C   UNL     1      -1.129  11.406  20.263  0.00  0.00    +0.000 A 
ATOM     17  C   UNL     1      -1.256  11.538  18.869  0.00  0.00    +0.000 A 
ATOM     18  C   UNL     1      -0.676  10.640  18.005  0.00  0.00    +0.000 A 
ATOM     19  C   UNL     1       0.077   9.603  18.529  0.00  0.00    +0.000 A 
ATOM     20  C   UNL     1       0.381   9.477  19.908  0.00  0.00    +0.000 A 
BRANCH  14  21
ATOM     21  O   UNL     1      -0.757  10.671  23.227  0.00  0.00    +0.000 OA
ATOM     22  H   UNL     1      -1.454  10.069  23.534  0.00  0.00    +0.000 HD
ENDBRANCH  14  21
BRANCH  16  23
ATOM     23  O   UNL     1      -1.858  12.431  20.808  0.00  0.00    +0.000 OA
ATOM     24  C   UNL     1      -3.196  12.723  20.492  0.00  0.00    +0.000 C 
ENDBRANCH  16  23
ENDBRANCH   6  11
BRANCH   1  26
ATOM     25  C   UNL     1       3.560   1.774  18.133  0.00  0.00    +0.000 C 
ATOM     26  O   UNL     1       3.957   3.101  18.445  0.00  0.00    +0.000 OA
ENDBRANCH   1  26
BRANCH   9  27
ATOM     27  O   UNL     1       4.201   5.061  16.802  0.00  0.00    +0.000 OA
ATOM     28  H   UNL     1       4.094   4.124  17.021  0.00  0.00    +0.000 HD
ENDBRANCH   9  27
TORSDOF 5
ENDMDL
MODEL 2
REMARK VINA RESULT:      -7.7      0.218      7.826
REMARK  Name = 
REMARK  7 active torsions:
REMARK  status: ('A' for Active; 'I' for Inactive)
REMARK    1  A    between atoms: C_1  and  O_2
REMARK    2  A    between atoms: O_2  and  C_3
REMARK    3  A    between atoms: C_8  and  C_9
REMARK    4  A    between atoms: C_12  and  O_13
REMARK    5  A    between atoms: C_15  and  O_16
REMARK    6  A    between atoms: O_16  and  C_17
REMARK    7  A    between atoms: C_24  and  O_25
REMARK                            x       y       z     vdW  Elec       q    Type
REMARK                         _______ _______ _______ _____ _____    ______ ____
ROOT
ATOM      1  C   UNL     1      -1.212  11.362  20.012  0.00  0.00    +0.000 A 
ATOM      2  C   UNL     1      -1.317  11.466  18.621  0.00  0.00    +0.000 A 
ATOM      3  C   UNL     1      -0.712  10.524  17.811  0.00  0.00    +0.000 A 
ATOM      4  C   UNL     1       0.035   9.499  18.386  0.00  0.00    +0.000 A 
ATOM      5  C   UNL     1       0.305   9.422  19.779  0.00  0.00    +0.000 A 
ATOM      6  C   UNL     1       1.260   8.481  20.344  0.00  0.00    +0.000 A 
ATOM      7  C   UNL     1       1.461   8.519  21.735  0.00  0.00    +0.000 A 
ATOM      8  C   UNL     1       0.673   9.298  22.570  0.00  0.00    +0.000 A 
ATOM      9  C   UNL     1      -0.243  10.185  22.020  0.00  0.00    +0.000 A 
ATOM     10  C   UNL     1      -0.402  10.337  20.615  0.00  0.00    +0.000 A 
ENDROOT
BRANCH   6  11
ATOM     11  C   UNL     1       2.110   7.540  19.510  0.00  0.00    +0.000 A 
ATOM     12  C   UNL     1       2.866   8.120  18.479  0.00  0.00    +0.000 A 
ATOM     13  C   UNL     1       3.540   7.341  17.560  0.00  0.00    +0.000 A 
ATOM     14  C   UNL     1       3.617   5.961  17.732  0.00  0.00    +0.000 A 
ATOM     15  C   UNL     1       3.078   5.284  18.874  0.00  0.00    +0.000 A 
ATOM     16  C   UNL     1       3.265   3.902  19.274  0.00  0.00    +0.000 A 
ATOM     17  C   UNL     1       2.665   3.407  20.444  0.00  0.00    +0.000 A 
ATOM     18  C   UNL     1       1.814   4.177  21.199  0.00  0.00    +0.000 A 
ATOM     19  C   UNL     1       1.574   5.484  20.807  0.00  0.00    +0.000 A 
ATOM     20  C   UNL     1       2.246   6.112  19.729  0.00  0.00    +0.000 A 
BRANCH  14  21
ATOM     21  O   UNL     1       4.230   5.296  16.707  0.00  0.00    +0.000 OA
ATOM     22  H   UNL     1       4.036   5.728  15.860  0.00  0.00    +0.000 HD
ENDBRANCH  14  21
BRANCH  16  23
ATOM     23  O   UNL     1       4.003   2.868  18.759  0.00  0.00    +0.000 OA
ATOM     24  C   UNL     1       3.468   1.751  18.094  0.00  0.00    +0.000 C 
ENDBRANCH  16  23
ENDBRANCH   6  11
BRANCH   1  26
ATOM     25  C   UNL     1      -3.047  12.858  20.441  0.00  0.00    +0.000 C 
ATOM     26  O   UNL     1      -1.831  12.254  20.856  0.00  0.00    +0.000 OA
ENDBRANCH   1  26
BRANCH   9  27
ATOM     27  O   UNL     1      -1.000  10.927  22.893  0.00  0.00    +0.000 OA
ATOM     28  H   UNL     1      -0.422  11.412  23.500  0.00  0.00    +0.000 HD
ENDBRANCH   9  27
TORSDOF 5
ENDMDL
MODEL 3
REMARK VINA RESULT:      -7.4      1.394      3.273
REMARK  Name = 
REMARK  7 active torsions:
REMARK  status: ('A' for Active; 'I' for Inactive)
REMARK    1  A    between atoms: C_1  and  O_2
REMARK    2  A    between atoms: O_2  and  C_3
REMARK    3  A    between atoms: C_8  and  C_9
REMARK    4  A    between atoms: C_12  and  O_13
REMARK    5  A    between atoms: C_15  and  O_16
REMARK    6  A    between atoms: O_16  and  C_17
REMARK    7  A    between atoms: C_24  and  O_25
REMARK                            x       y       z     vdW  Elec       q    Type
REMARK                         _______ _______ _______ _____ _____    ______ ____
ROOT
ATOM      1  C   UNL     1       4.252   3.716  18.421  0.00  0.00    +0.000 A 
ATOM      2  C   UNL     1       4.813   4.295  17.278  0.00  0.00    +0.000 A 
ATOM      3  C   UNL     1       4.640   5.643  17.032  0.00  0.00    +0.000 A 
ATOM      4  C   UNL     1       3.870   6.410  17.904  0.00  0.00    +0.000 A 
ATOM      5  C   UNL     1       3.151   5.856  18.997  0.00  0.00    +0.000 A 
ATOM      6  C   UNL     1       2.182   6.618  19.768  0.00  0.00    +0.000 A 
ATOM      7  C   UNL     1       1.513   5.951  20.810  0.00  0.00    +0.000 A 
ATOM      8  C   UNL     1       1.868   4.671  21.208  0.00  0.00    +0.000 A 
ATOM      9  C   UNL     1       2.803   3.956  20.471  0.00  0.00    +0.000 A 
ATOM     10  C   UNL     1       3.413   4.486  19.302  0.00  0.00    +0.000 A 
ENDROOT
BRANCH   6  11
ATOM     11  C   UNL     1       1.788   8.049  19.448  0.00  0.00    +0.000 A 
ATOM     12  C   UNL     1       1.965   8.470  18.120  0.00  0.00    +0.000 A 
ATOM     13  C   UNL     1       1.798   9.792  17.759  0.00  0.00    +0.000 A 
ATOM     14  C   UNL     1       1.292  10.711  18.676  0.00  0.00    +0.000 A 
ATOM     15  C   UNL     1       0.859  10.345  19.992  0.00  0.00    +0.000 A 
ATOM     16  C   UNL     1       0.133  11.148  20.957  0.00  0.00    +0.000 A 
ATOM     17  C   UNL     1      -0.225  10.617  22.208  0.00  0.00    +0.000 A 
ATOM     18  C   UNL     1       0.173   9.360  22.598  0.00  0.00    +0.000 A 
ATOM     19  C   UNL     1       0.916   8.594  21.716  0.00  0.00    +0.000 A 
ATOM     20  C   UNL     1       1.197   8.988  20.383  0.00  0.00    +0.000 A 
BRANCH  14  21
ATOM     21  O   UNL     1       1.262  12.002  18.226  0.00  0.00    +0.000 OA
ATOM     22  H   UNL     1       0.802  12.051  17.373  0.00  0.00    +0.000 HD
ENDBRANCH  14  21
BRANCH  16  23
ATOM     23  O   UNL     1      -0.387  12.416  20.922  0.00  0.00    +0.000 OA
ATOM     24  C   UNL     1      -1.557  12.788  20.238  0.00  0.00    +0.000 C 
ENDBRANCH  16  23
ENDBRANCH   6  11
BRANCH   1  26
ATOM     25  C   UNL     1       3.692   1.414  18.004  0.00  0.00    +0.000 C 
ATOM     26  O   UNL     1       4.432   2.387  18.726  0.00  0.00    +0.000 OA
ENDBRANCH   1  26
BRANCH   9  27
ATOM     27  O   UNL     1       3.119   2.695  20.913  0.00  0.00    +0.000 OA
ATOM     28  H   UNL     1       2.878   2.040  20.243  0.00  0.00    +0.000 HD
ENDBRANCH   9  27
TORSDOF 5
ENDMDL
MODEL 4
REMARK VINA RESULT:      -7.4      1.088      7.423
REMARK  Name = 
REMARK  7 active torsions:
REMARK  status: ('A' for Active; 'I' for Inactive)
REMARK    1  A    between atoms: C_1  and  O_2
REMARK    2  A    between atoms: O_2  and  C_3
REMARK    3  A    between atoms: C_8  and  C_9
REMARK    4  A    between atoms: C_12  and  O_13
REMARK    5  A    between atoms: C_15  and  O_16
REMARK    6  A    between atoms: O_16  and  C_17
REMARK    7  A    between atoms: C_24  and  O_25
REMARK                            x       y       z     vdW  Elec       q    Type
REMARK                         _______ _______ _______ _____ _____    ______ ____
ROOT
ATOM      1  C   UNL     1      -0.319  10.381  21.613  0.00  0.00    +0.000 A 
ATOM      2  C   UNL     1       0.274   9.777  22.726  0.00  0.00    +0.000 A 
ATOM      3  C   UNL     1       1.322   8.893  22.556  0.00  0.00    +0.000 A 
ATOM      4  C   UNL     1       1.754   8.577  21.269  0.00  0.00    +0.000 A 
ATOM      5  C   UNL     1       1.100   9.038  20.096  0.00  0.00    +0.000 A 
ATOM      6  C   UNL     1       1.417   8.533  18.768  0.00  0.00    +0.000 A 
ATOM      7  C   UNL     1       0.682   9.047  17.686  0.00  0.00    +0.000 A 
ATOM      8  C   UNL     1      -0.198  10.110  17.835  0.00  0.00    +0.000 A 
ATOM      9  C   UNL     1      -0.486  10.591  19.106  0.00  0.00    +0.000 A 
ATOM     10  C   UNL     1       0.085  10.025  20.278  0.00  0.00    +0.000 A 
ENDROOT
BRANCH   6  11
ATOM     11  C   UNL     1       2.421   7.424  18.506  0.00  0.00    +0.000 A 
ATOM     12  C   UNL     1       3.535   7.756  17.719  0.00  0.00    +0.000 A 
ATOM     13  C   UNL     1       4.418   6.788  17.283  0.00  0.00    +0.000 A 
ATOM     14  C   UNL     1       4.311   5.480  17.750  0.00  0.00    +0.000 A 
ATOM     15  C   UNL     1       3.352   5.077  18.737  0.00  0.00    +0.000 A 
ATOM     16  C   UNL     1       3.270   3.818  19.451  0.00  0.00    +0.000 A 
ATOM     17  C   UNL     1       2.260   3.599  20.404  0.00  0.00    +0.000 A 
ATOM     18  C   UNL     1       1.269   4.523  20.629  0.00  0.00    +0.000 A 
ATOM     19  C   UNL     1       1.293   5.711  19.918  0.00  0.00    +0.000 A 
ATOM     20  C   UNL     1       2.349   6.080  19.047  0.00  0.00    +0.000 A 
BRANCH  14  21
ATOM     21  O   UNL     1       5.183   4.600  17.173  0.00  0.00    +0.000 OA
ATOM     22  H   UNL     1       6.080   4.970  17.165  0.00  0.00    +0.000 HD
ENDBRANCH  14  21
BRANCH  16  23
ATOM     23  O   UNL     1       4.049   2.690  19.459  0.00  0.00    +0.000 OA
ATOM     24  C   UNL     1       3.805   1.537  18.692  0.00  0.00    +0.000 C 
ENDBRANCH  16  23
ENDBRANCH   6  11
BRANCH   1  26
ATOM     25  C   UNL     1      -1.645  11.805  23.028  0.00  0.00    +0.000 C 
ATOM     26  O   UNL     1      -1.338  11.297  21.739  0.00  0.00    +0.000 OA
ENDBRANCH   1  26
BRANCH   9  27
ATOM     27  O   UNL     1      -1.359  11.646  19.193  0.00  0.00    +0.000 OA
ATOM     28  H   UNL     1      -1.074  12.360  18.605  0.00  0.00    +0.000 HD
ENDBRANCH   9  27
TORSDOF 5
ENDMDL
MODEL 5
REMARK VINA RESULT:      -7.4      1.136      2.502
REMARK  Name = 
REMARK  7 active torsions:
REMARK  status: ('A' for Active; 'I' for Inactive)
REMARK    1  A    between atoms: C_1  and  O_2
REMARK    2  A    between atoms: O_2  and  C_3
REMARK    3  A    between atoms: C_8  and  C_9
REMARK    4  A    between atoms: C_12  and  O_13
REMARK    5  A    between atoms: C_15  and  O_16
REMARK    6  A    between atoms: O_16  and  C_17
REMARK    7  A    between atoms: C_24  and  O_25
REMARK                            x       y       z     vdW  Elec       q    Type
REMARK                         _______ _______ _______ _____ _____    ______ ____
ROOT
ATOM      1  C   UNL     1       3.453   4.157  19.675  0.00  0.00    +0.000 A 
ATOM      2  C   UNL     1       2.492   3.845  20.641  0.00  0.00    +0.000 A 
ATOM      3  C   UNL     1       1.407   4.679  20.830  0.00  0.00    +0.000 A 
ATOM      4  C   UNL     1       1.300   5.851  20.083  0.00  0.00    +0.000 A 
ATOM      5  C   UNL     1       2.315   6.300  19.196  0.00  0.00    +0.000 A 
ATOM      6  C   UNL     1       2.299   7.622  18.588  0.00  0.00    +0.000 A 
ATOM      7  C   UNL     1       3.373   7.962  17.747  0.00  0.00    +0.000 A 
ATOM      8  C   UNL     1       4.332   7.034  17.369  0.00  0.00    +0.000 A 
ATOM      9  C   UNL     1       4.331   5.770  17.948  0.00  0.00    +0.000 A 
ATOM     10  C   UNL     1       3.381   5.388  18.933  0.00  0.00    +0.000 A 
ENDROOT
BRANCH   6  11
ATOM     11  C   UNL     1       1.246   8.674  18.887  0.00  0.00    +0.000 A 
ATOM     12  C   UNL     1       0.495   9.142  17.797  0.00  0.00    +0.000 A 
ATOM     13  C   UNL     1      -0.368  10.212  17.928  0.00  0.00    +0.000 A 
ATOM     14  C   UNL     1      -0.633  10.749  19.185  0.00  0.00    +0.000 A 
ATOM     15  C   UNL     1      -0.100  10.202  20.398  0.00  0.00    +0.000 A 
ATOM     16  C   UNL     1      -0.454  10.530  21.766  0.00  0.00    +0.000 A 
ATOM     17  C   UNL     1       0.168   9.877  22.844  0.00  0.00    +0.000 A 
ATOM     18  C   UNL     1       1.189   8.978  22.649  0.00  0.00    +0.000 A 
ATOM     19  C   UNL     1       1.585   8.690  21.353  0.00  0.00    +0.000 A 
ATOM     20  C   UNL     1       0.919   9.186  20.204  0.00  0.00    +0.000 A 
BRANCH  14  21
ATOM     21  O   UNL     1      -1.429  11.861  19.170  0.00  0.00    +0.000 OA
ATOM     22  H   UNL     1      -1.535  12.212  20.068  0.00  0.00    +0.000 HD
ENDBRANCH  14  21
BRANCH  16  23
ATOM     23  O   UNL     1      -1.381  11.375  22.319  0.00  0.00    +0.000 OA
ATOM     24  C   UNL     1      -1.123  12.694  22.732  0.00  0.00    +0.000 C 
ENDBRANCH  16  23
ENDBRANCH   6  11
BRANCH   1  26
ATOM     25  C   UNL     1       4.585   2.071  20.070  0.00  0.00    +0.000 C 
ATOM     26  O   UNL     1       4.528   3.335  19.426  0.00  0.00    +0.000 OA
ENDBRANCH   1  26
BRANCH   9  27
ATOM     27  O   UNL     1       5.300   4.891  17.533  0.00  0.00    +0.000 OA
ATOM     28  H   UNL     1       5.980   5.362  17.030  0.00  0.00    +0.000 HD
ENDBRANCH   9  27
TORSDOF 5
ENDMDL
MODEL 6
REMARK VINA RESULT:      -7.2      3.127      6.008
REMARK  Name = 
REMARK  7 active torsions:
REMARK  status: ('A' for Active; 'I' for Inactive)
REMARK    1  A    between atoms: C_1  and  O_2
REMARK    2  A    between atoms: O_2  and  C_3
REMARK    3  A    between atoms: C_8  and  C_9
REMARK    4  A    between atoms: C_12  and  O_13
REMARK    5  A    between atoms: C_15  and  O_16
REMARK    6  A    between atoms: O_16  and  C_17
REMARK    7  A    between atoms: C_24  and  O_25
REMARK                            x       y       z     vdW  Elec       q    Type
REMARK                         _______ _______ _______ _____ _____    ______ ____
ROOT
ATOM      1  C   UNL     1       0.890   9.180  20.505  0.00  0.00    +0.000 A 
ATOM      2  C   UNL     1       0.954   8.695  21.814  0.00  0.00    +0.000 A 
ATOM      3  C   UNL     1       0.155   9.250  22.796  0.00  0.00    +0.000 A 
ATOM      4  C   UNL     1      -0.680  10.320  22.481  0.00  0.00    +0.000 A 
ATOM      5  C   UNL     1      -0.681  10.956  21.211  0.00  0.00    +0.000 A 
ATOM      6  C   UNL     1      -1.388  12.201  20.955  0.00  0.00    +0.000 A 
ATOM      7  C   UNL     1      -1.292  12.748  19.663  0.00  0.00    +0.000 A 
ATOM      8  C   UNL     1      -0.692  12.062  18.618  0.00  0.00    +0.000 A 
ATOM      9  C   UNL     1      -0.028  10.867  18.872  0.00  0.00    +0.000 A 
ATOM     10  C   UNL     1       0.070  10.317  20.179  0.00  0.00    +0.000 A 
ENDROOT
BRANCH   6  11
ATOM     11  C   UNL     1      -2.134  12.981  22.023  0.00  0.00    +0.000 A 
ATOM     12  C   UNL     1      -1.353  13.723  22.924  0.00  0.00    +0.000 A 
ATOM     13  C   UNL     1      -1.915  14.330  24.029  0.00  0.00    +0.000 A 
ATOM     14  C   UNL     1      -3.299  14.355  24.187  0.00  0.00    +0.000 A 
ATOM     15  C   UNL     1      -4.208  13.831  23.210  0.00  0.00    +0.000 A 
ATOM     16  C   UNL     1      -5.650  13.975  23.152  0.00  0.00    +0.000 A 
ATOM     17  C   UNL     1      -6.387  13.398  22.103  0.00  0.00    +0.000 A 
ATOM     18  C   UNL     1      -5.788  12.608  21.152  0.00  0.00    +0.000 A 
ATOM     19  C   UNL     1      -4.419  12.408  21.218  0.00  0.00    +0.000 A 
ATOM     20  C   UNL     1      -3.577  13.066  22.149  0.00  0.00    +0.000 A 
BRANCH  14  21
ATOM     21  O   UNL     1      -3.725  14.903  25.365  0.00  0.00    +0.000 OA
ATOM     22  H   UNL     1      -3.264  15.741  25.533  0.00  0.00    +0.000 HD
ENDBRANCH  14  21
BRANCH  16  23
ATOM     23  O   UNL     1      -6.558  14.650  23.926  0.00  0.00    +0.000 OA
ATOM     24  C   UNL     1      -7.819  14.156  24.303  0.00  0.00    +0.000 C 
ENDBRANCH  16  23
ENDBRANCH   6  11
BRANCH   1  26
ATOM     25  C   UNL     1       2.268   7.378  19.703  0.00  0.00    +0.000 C 
ATOM     26  O   UNL     1       1.638   8.632  19.488  0.00  0.00    +0.000 OA
ENDBRANCH   1  26
BRANCH   9  27
ATOM     27  O   UNL     1       0.543  10.229  17.800  0.00  0.00    +0.000 OA
ATOM     28  H   UNL     1       0.386   9.275  17.861  0.00  0.00    +0.000 HD
ENDBRANCH   9  27
TORSDOF 5
ENDMDL
MODEL 7
REMARK VINA RESULT:      -7.2      1.386      7.353
REMARK  Name = 
REMARK  7 active torsions:
REMARK  status: ('A' for Active; 'I' for Inactive)
REMARK    1  A    between atoms: C_1  and  O_2
REMARK    2  A    between atoms: O_2  and  C_3
REMARK    3  A    between atoms: C_8  and  C_9
REMARK    4  A    between atoms: C_12  and  O_13
REMARK    5  A    between atoms: C_15  and  O_16
REMARK    6  A    between atoms: O_16  and  C_17
REMARK    7  A    between atoms: C_24  and  O_25
REMARK                            x       y       z     vdW  Elec       q    Type
REMARK                         _______ _______ _______ _____ _____    ______ ____
ROOT
ATOM      1  C   UNL     1       0.018  11.129  20.941  0.00  0.00    +0.000 A 
ATOM      2  C   UNL     1      -0.390  10.589  22.164  0.00  0.00    +0.000 A 
ATOM      3  C   UNL     1       0.037   9.329  22.539  0.00  0.00    +0.000 A 
ATOM      4  C   UNL     1       0.838   8.587  21.673  0.00  0.00    +0.000 A 
ATOM      5  C   UNL     1       1.162   9.015  20.358  0.00  0.00    +0.000 A 
ATOM      6  C   UNL     1       1.810   8.147  19.386  0.00  0.00    +0.000 A 
ATOM      7  C   UNL     1       2.056   8.676  18.107  0.00  0.00    +0.000 A 
ATOM      8  C   UNL     1       1.848  10.016  17.814  0.00  0.00    +0.000 A 
ATOM      9  C   UNL     1       1.238  10.838  18.753  0.00  0.00    +0.000 A 
ATOM     10  C   UNL     1       0.803  10.353  20.017  0.00  0.00    +0.000 A 
ENDROOT
BRANCH   6  11
ATOM     11  C   UNL     1       2.143   6.689  19.648  0.00  0.00    +0.000 A 
ATOM     12  C   UNL     1       1.434   6.056  20.682  0.00  0.00    +0.000 A 
ATOM     13  C   UNL     1       1.772   4.789  21.112  0.00  0.00    +0.000 A 
ATOM     14  C   UNL     1       2.725   4.045  20.419  0.00  0.00    +0.000 A 
ATOM     15  C   UNL     1       3.348   4.501  19.212  0.00  0.00    +0.000 A 
ATOM     16  C   UNL     1       4.186   3.754  18.293  0.00  0.00    +0.000 A 
ATOM     17  C   UNL     1       4.706   4.365  17.139  0.00  0.00    +0.000 A 
ATOM     18  C   UNL     1       4.517   5.702  16.884  0.00  0.00    +0.000 A 
ATOM     19  C   UNL     1       3.767   6.451  17.776  0.00  0.00    +0.000 A 
ATOM     20  C   UNL     1       3.084   5.891  18.885  0.00  0.00    +0.000 A 
BRANCH  14  21
ATOM     21  O   UNL     1       3.038   2.847  20.999  0.00  0.00    +0.000 OA
ATOM     22  H   UNL     1       2.421   2.158  20.703  0.00  0.00    +0.000 HD
ENDBRANCH  14  21
BRANCH  16  23
ATOM     23  O   UNL     1       4.596   2.447  18.247  0.00  0.00    +0.000 OA
ATOM     24  C   UNL     1       3.743   1.340  18.101  0.00  0.00    +0.000 C 
ENDBRANCH  16  23
ENDBRANCH   6  11
BRANCH   1  26
ATOM     25  C   UNL     1      -1.731  12.723  20.505  0.00  0.00    +0.000 C 
ATOM     26  O   UNL     1      -0.350  12.395  20.546  0.00  0.00    +0.000 OA
ENDBRANCH   1  26
BRANCH   9  27
ATOM     27  O   UNL     1       1.061  12.156  18.412  0.00  0.00    +0.000 OA
ATOM     28  H   UNL     1       1.762  12.437  17.807  0.00  0.00    +0.000 HD
ENDBRANCH   9  27
TORSDOF 5
ENDMDL
MODEL 8
REMARK VINA RESULT:      -6.9      1.099      7.792
REMARK  Name = 
REMARK  7 active torsions:
REMARK  status: ('A' for Active; 'I' for Inactive)
REMARK    1  A    between atoms: C_1  and  O_2
REMARK    2  A    between atoms: O_2  and  C_3
REMARK    3  A    between atoms: C_8  and  C_9
REMARK    4  A    between atoms: C_12  and  O_13
REMARK    5  A    between atoms: C_15  and  O_16
REMARK    6  A    between atoms: O_16  and  C_17
REMARK    7  A    between atoms: C_24  and  O_25
REMARK                            x       y       z     vdW  Elec       q    Type
REMARK                         _______ _______ _______ _____ _____    ______ ____
ROOT
ATOM      1  C   UNL     1      -2.173  11.521  19.087  0.00  0.00    +0.000 A 
ATOM      2  C   UNL     1      -2.372  11.258  17.728  0.00  0.00    +0.000 A 
ATOM      3  C   UNL     1      -1.623  10.284  17.096  0.00  0.00    +0.000 A 
ATOM      4  C   UNL     1      -0.642   9.599  17.810  0.00  0.00    +0.000 A 
ATOM      5  C   UNL     1      -0.288   9.921  19.148  0.00  0.00    +0.000 A 
ATOM      6  C   UNL     1       0.877   9.355  19.811  0.00  0.00    +0.000 A 
ATOM      7  C   UNL     1       1.139   9.772  21.128  0.00  0.00    +0.000 A 
ATOM      8  C   UNL     1       0.248  10.561  21.840  0.00  0.00    +0.000 A 
ATOM      9  C   UNL     1      -0.867  11.088  21.199  0.00  0.00    +0.000 A 
ATOM     10  C   UNL     1      -1.130  10.856  19.821  0.00  0.00    +0.000 A 
ENDROOT
BRANCH   6  11
ATOM     11  C   UNL     1       1.864   8.424  19.131  0.00  0.00    +0.000 A 
ATOM     12  C   UNL     1       2.642   8.974  18.099  0.00  0.00    +0.000 A 
ATOM     13  C   UNL     1       3.447   8.180  17.307  0.00  0.00    +0.000 A 
ATOM     14  C   UNL     1       3.629   6.835  17.619  0.00  0.00    +0.000 A 
ATOM     15  C   UNL     1       3.067   6.218  18.785  0.00  0.00    +0.000 A 
ATOM     16  C   UNL     1       3.343   4.903  19.330  0.00  0.00    +0.000 A 
ATOM     17  C   UNL     1       2.703   4.464  20.502  0.00  0.00    +0.000 A 
ATOM     18  C   UNL     1       1.735   5.218  21.120  0.00  0.00    +0.000 A 
ATOM     19  C   UNL     1       1.413   6.455  20.586  0.00  0.00    +0.000 A 
ATOM     20  C   UNL     1       2.106   7.041  19.498  0.00  0.00    +0.000 A 
BRANCH  14  21
ATOM     21  O   UNL     1       4.371   6.138  16.707  0.00  0.00    +0.000 OA
ATOM     22  H   UNL     1       5.269   5.989  17.046  0.00  0.00    +0.000 HD
ENDBRANCH  14  21
BRANCH  16  23
ATOM     23  O   UNL     1       4.203   3.898  18.969  0.00  0.00    +0.000 OA
ATOM     24  C   UNL     1       4.152   2.581  19.458  0.00  0.00    +0.000 C 
ENDBRANCH  16  23
ENDBRANCH   6  11
BRANCH   1  26
ATOM     25  C   UNL     1      -4.338  12.418  19.635  0.00  0.00    +0.000 C 
ATOM     26  O   UNL     1      -2.924  12.454  19.764  0.00  0.00    +0.000 OA
ENDBRANCH   1  26
BRANCH   9  27
ATOM     27  O   UNL     1      -1.718  11.857  21.953  0.00  0.00    +0.000 OA
ATOM     28  H   UNL     1      -1.946  11.393  22.771  0.00  0.00    +0.000 HD
ENDBRANCH   9  27
TORSDOF 5
ENDMDL
MODEL 9
REMARK VINA RESULT:      -6.9      1.434      7.378
REMARK  Name = 
REMARK  7 active torsions:
REMARK  status: ('A' for Active; 'I' for Inactive)
REMARK    1  A    between atoms: C_1  and  O_2
REMARK    2  A    between atoms: O_2  and  C_3
REMARK    3  A    between atoms: C_8  and  C_9
REMARK    4  A    between atoms: C_12  and  O_13
REMARK    5  A    between atoms: C_15  and  O_16
REMARK    6  A    between atoms: O_16  and  C_17
REMARK    7  A    between atoms: C_24  and  O_25
REMARK                            x       y       z     vdW  Elec       q    Type
REMARK                         _______ _______ _______ _____ _____    ______ ____
ROOT
ATOM      1  C   UNL     1      -0.421  10.982  21.700  0.00  0.00    +0.000 A 
ATOM      2  C   UNL     1      -0.384  10.282  22.910  0.00  0.00    +0.000 A 
ATOM      3  C   UNL     1       0.364   9.125  23.015  0.00  0.00    +0.000 A 
ATOM      4  C   UNL     1       1.044   8.641  21.899  0.00  0.00    +0.000 A 
ATOM      5  C   UNL     1       0.926   9.220  20.607  0.00  0.00    +0.000 A 
ATOM      6  C   UNL     1       1.458   8.587  19.410  0.00  0.00    +0.000 A 
ATOM      7  C   UNL     1       1.256   9.244  18.184  0.00  0.00    +0.000 A 
ATOM      8  C   UNL     1       0.719  10.521  18.116  0.00  0.00    +0.000 A 
ATOM      9  C   UNL     1       0.223  11.121  19.267  0.00  0.00    +0.000 A 
ATOM     10  C   UNL     1       0.234  10.466  20.528  0.00  0.00    +0.000 A 
ENDROOT
BRANCH   6  11
ATOM     11  C   UNL     1       2.128   7.224  19.405  0.00  0.00    +0.000 A 
ATOM     12  C   UNL     1       1.653   6.284  20.334  0.00  0.00    +0.000 A 
ATOM     13  C   UNL     1       2.297   5.079  20.527  0.00  0.00    +0.000 A 
ATOM     14  C   UNL     1       3.342   4.700  19.687  0.00  0.00    +0.000 A 
ATOM     15  C   UNL     1       3.760   5.477  18.558  0.00  0.00    +0.000 A 
ATOM     16  C   UNL     1       4.678   5.106  17.499  0.00  0.00    +0.000 A 
ATOM     17  C   UNL     1       4.965   6.000  16.453  0.00  0.00    +0.000 A 
ATOM     18  C   UNL     1       4.464   7.279  16.440  0.00  0.00    +0.000 A 
ATOM     19  C   UNL     1       3.629   7.677  17.471  0.00  0.00    +0.000 A 
ATOM     20  C   UNL     1       3.168   6.802  18.486  0.00  0.00    +0.000 A 
BRANCH  14  21
ATOM     21  O   UNL     1       3.956   3.530  20.039  0.00  0.00    +0.000 OA
ATOM     22  H   UNL     1       4.871   3.699  20.316  0.00  0.00    +0.000 HD
ENDBRANCH  14  21
BRANCH  16  23
ATOM     23  O   UNL     1       5.368   3.956  17.214  0.00  0.00    +0.000 OA
ATOM     24  C   UNL     1       5.909   3.632  15.957  0.00  0.00    +0.000 C 
ENDBRANCH  16  23
ENDBRANCH   6  11
BRANCH   1  26
ATOM     25  C   UNL     1      -2.140  12.463  22.504  0.00  0.00    +0.000 C 
ATOM     26  O   UNL     1      -1.121  12.159  21.563  0.00  0.00    +0.000 OA
ENDBRANCH   1  26
BRANCH   9  27
ATOM     27  O   UNL     1      -0.292  12.387  19.142  0.00  0.00    +0.000 OA
ATOM     28  H   UNL     1       0.426  13.024  19.011  0.00  0.00    +0.000 HD
ENDBRANCH   9  27
TORSDOF 5
ENDMDL
