MODEL 1
REMARK VINA RESULT:      -7.0      0.000      0.000
REMARK  Name = 
REMARK  8 active torsions:
REMARK  status: ('A' for Active; 'I' for Inactive)
REMARK    1  A    between atoms: C_1  and  C_2
REMARK    2  A    between atoms: C_2  and  C_3
REMARK    3  A    between atoms: C_3  and  C_4
REMARK    4  A    between atoms: C_3  and  O_5
REMARK    5  A    between atoms: O_5  and  C_6
REMARK    6  A    between atoms: C_11  and  C_12
REMARK    7  A    between atoms: C_12  and  N_13
REMARK    8  A    between atoms: C_18  and  C_19
REMARK                            x       y       z     vdW  Elec       q    Type
REMARK                         _______ _______ _______ _____ _____    ______ ____
ROOT
ATOM      1  C   UNL     1       3.480   6.838  18.302  0.00  0.00    +0.000 C 
ENDROOT
BRANCH   1   2
ATOM      2  N   UNL     1       2.188   7.528  18.574  0.00  0.00    +0.000 NA
ATOM      3  C   UNL     1       1.859   8.631  17.676  0.00  0.00    +0.000 C 
ATOM      4  C   UNL     1       1.386   9.976  18.232  0.00  0.00    +0.000 C 
ATOM      5  N   UNL     1       0.964   9.926  19.607  0.00  0.00    +0.000 N 
ATOM      6  N   UNL     1       0.404  11.010  20.195  0.00  0.00    +0.000 NA
ATOM      7  C   UNL     1       0.186  10.612  21.456  0.00  0.00    +0.000 A 
ATOM      8  C   UNL     1       0.602   9.276  21.650  0.00  0.00    +0.000 A 
ATOM      9  C   UNL     1       1.140   8.865  20.438  0.00  0.00    +0.000 A 
ATOM     10  C   UNL     1       1.818   7.610  19.991  0.00  0.00    +0.000 C 
BRANCH   7  11
ATOM     11  C   UNL     1      -0.397  11.528  22.422  0.00  0.00    +0.000 C 
ATOM     12  N   UNL     1      -0.896  12.250  23.171  0.00  0.00    +0.000 NA
ENDBRANCH   7  11
ENDBRANCH   1   2
BRANCH   1  18
ATOM     13  C   UNL     1       4.512   4.427  18.393  0.00  0.00    +0.000 A 
ATOM     14  C   UNL     1       4.321   3.068  18.121  0.00  0.00    +0.000 A 
ATOM     15  C   UNL     1       3.038   2.570  17.810  0.00  0.00    +0.000 A 
ATOM     16  C   UNL     1       1.928   3.407  17.784  0.00  0.00    +0.000 A 
ATOM     17  C   UNL     1       2.109   4.771  17.985  0.00  0.00    +0.000 A 
ATOM     18  C   UNL     1       3.395   5.306  18.240  0.00  0.00    +0.000 A 
BRANCH  13  19
ATOM     19  O   UNL     1       5.656   4.930  18.969  0.00  0.00    +0.000 OA
BRANCH  19  20
ATOM     20  C   UNL     1       6.824   5.479  18.291  0.00  0.00    +0.000 C 
ATOM     21  C   UNL     1       7.812   5.716  19.448  0.00  0.00    +0.000 C 
BRANCH  20  23
ATOM     22  C   UNL     1       6.983   4.675  15.769  0.00  0.00    +0.000 C 
ATOM     23  C   UNL     1       7.509   4.572  17.221  0.00  0.00    +0.000 C 
ENDBRANCH  20  23
ENDBRANCH  19  20
ENDBRANCH  13  19
ENDBRANCH   1  18
TORSDOF 6
ENDMDL
MODEL 2
REMARK VINA RESULT:      -7.0      0.759      1.171
REMARK  Name = 
REMARK  8 active torsions:
REMARK  status: ('A' for Active; 'I' for Inactive)
REMARK    1  A    between atoms: C_1  and  C_2
REMARK    2  A    between atoms: C_2  and  C_3
REMARK    3  A    between atoms: C_3  and  C_4
REMARK    4  A    between atoms: C_3  and  O_5
REMARK    5  A    between atoms: O_5  and  C_6
REMARK    6  A    between atoms: C_11  and  C_12
REMARK    7  A    between atoms: C_12  and  N_13
REMARK    8  A    between atoms: C_18  and  C_19
REMARK                            x       y       z     vdW  Elec       q    Type
REMARK                         _______ _______ _______ _____ _____    ______ ____
ROOT
ATOM      1  C   UNL     1       3.522   6.254  19.033  0.00  0.00    +0.000 C 
ENDROOT
BRANCH   1   2
ATOM      2  N   UNL     1       2.247   7.021  19.122  0.00  0.00    +0.000 NA
ATOM      3  C   UNL     1       2.078   8.082  18.134  0.00  0.00    +0.000 C 
ATOM      4  C   UNL     1       1.622   9.480  18.560  0.00  0.00    +0.000 C 
ATOM      5  N   UNL     1       1.052   9.533  19.880  0.00  0.00    +0.000 N 
ATOM      6  N   UNL     1       0.491  10.676  20.342  0.00  0.00    +0.000 NA
ATOM      7  C   UNL     1       0.116  10.365  21.591  0.00  0.00    +0.000 A 
ATOM      8  C   UNL     1       0.435   9.024  21.902  0.00  0.00    +0.000 A 
ATOM      9  C   UNL     1       1.078   8.516  20.782  0.00  0.00    +0.000 A 
ATOM     10  C   UNL     1       1.731   7.205  20.482  0.00  0.00    +0.000 C 
BRANCH   7  11
ATOM     11  C   UNL     1      -0.517  11.364  22.435  0.00  0.00    +0.000 C 
ATOM     12  N   UNL     1      -1.037  12.174  23.072  0.00  0.00    +0.000 NA
ENDBRANCH   7  11
ENDBRANCH   1   2
BRANCH   1  18
ATOM     13  C   UNL     1       4.449   3.882  18.400  0.00  0.00    +0.000 A 
ATOM     14  C   UNL     1       4.152   2.616  17.882  0.00  0.00    +0.000 A 
ATOM     15  C   UNL     1       2.814   2.199  17.726  0.00  0.00    +0.000 A 
ATOM     16  C   UNL     1       1.756   3.022  18.096  0.00  0.00    +0.000 A 
ATOM     17  C   UNL     1       2.029   4.307  18.549  0.00  0.00    +0.000 A 
ATOM     18  C   UNL     1       3.361   4.773  18.659  0.00  0.00    +0.000 A 
BRANCH  13  19
ATOM     19  O   UNL     1       5.702   4.246  18.837  0.00  0.00    +0.000 OA
BRANCH  19  20
ATOM     20  C   UNL     1       6.838   4.667  18.027  0.00  0.00    +0.000 C 
ATOM     21  C   UNL     1       6.197   4.940  16.654  0.00  0.00    +0.000 C 
BRANCH  20  23
ATOM     22  C   UNL     1       7.482   7.202  17.588  0.00  0.00    +0.000 C 
ATOM     23  C   UNL     1       7.596   5.951  18.491  0.00  0.00    +0.000 C 
ENDBRANCH  20  23
ENDBRANCH  19  20
ENDBRANCH  13  19
ENDBRANCH   1  18
TORSDOF 6
ENDMDL
MODEL 3
REMARK VINA RESULT:      -7.0      4.011      7.437
REMARK  Name = 
REMARK  8 active torsions:
REMARK  status: ('A' for Active; 'I' for Inactive)
REMARK    1  A    between atoms: C_1  and  C_2
REMARK    2  A    between atoms: C_2  and  C_3
REMARK    3  A    between atoms: C_3  and  C_4
REMARK    4  A    between atoms: C_3  and  O_5
REMARK    5  A    between atoms: O_5  and  C_6
REMARK    6  A    between atoms: C_11  and  C_12
REMARK    7  A    between atoms: C_12  and  N_13
REMARK    8  A    between atoms: C_18  and  C_19
REMARK                            x       y       z     vdW  Elec       q    Type
REMARK                         _______ _______ _______ _____ _____    ______ ____
ROOT
ATOM      1  C   UNL     1       4.628   4.995  19.848  0.00  0.00    +0.000 C 
ENDROOT
BRANCH   1   2
ATOM      2  N   UNL     1       5.722   4.606  18.914  0.00  0.00    +0.000 NA
ATOM      3  C   UNL     1       6.870   5.507  18.875  0.00  0.00    +0.000 C 
ATOM      4  C   UNL     1       7.444   5.984  17.538  0.00  0.00    +0.000 C 
ATOM      5  N   UNL     1       7.011   5.209  16.406  0.00  0.00    +0.000 N 
ATOM      6  N   UNL     1       7.534   5.434  15.177  0.00  0.00    +0.000 NA
ATOM      7  C   UNL     1       6.875   4.575  14.387  0.00  0.00    +0.000 A 
ATOM      8  C   UNL     1       5.948   3.807  15.127  0.00  0.00    +0.000 A 
ATOM      9  C   UNL     1       6.031   4.268  16.434  0.00  0.00    +0.000 A 
ATOM     10  C   UNL     1       5.278   3.942  17.684  0.00  0.00    +0.000 C 
BRANCH   7  11
ATOM     11  C   UNL     1       7.150   4.534  12.961  0.00  0.00    +0.000 C 
ATOM     12  N   UNL     1       7.328   4.494  11.822  0.00  0.00    +0.000 NA
ENDBRANCH   7  11
ENDBRANCH   1   2
BRANCH   1  18
ATOM     13  C   UNL     1       2.219   4.737  18.839  0.00  0.00    +0.000 A 
ATOM     14  C   UNL     1       1.002   4.048  18.894  0.00  0.00    +0.000 A 
ATOM     15  C   UNL     1       0.886   2.850  19.629  0.00  0.00    +0.000 A 
ATOM     16  C   UNL     1       1.976   2.311  20.303  0.00  0.00    +0.000 A 
ATOM     17  C   UNL     1       3.175   3.015  20.317  0.00  0.00    +0.000 A 
ATOM     18  C   UNL     1       3.302   4.250  19.637  0.00  0.00    +0.000 A 
BRANCH  13  19
ATOM     19  O   UNL     1       2.482   5.739  17.934  0.00  0.00    +0.000 OA
BRANCH  19  20
ATOM     20  C   UNL     1       2.750   7.143  18.216  0.00  0.00    +0.000 C 
ATOM     21  C   UNL     1       3.990   7.436  17.350  0.00  0.00    +0.000 C 
BRANCH  20  23
ATOM     22  C   UNL     1       1.979   9.666  17.948  0.00  0.00    +0.000 C 
ATOM     23  C   UNL     1       1.626   8.163  17.846  0.00  0.00    +0.000 C 
ENDBRANCH  20  23
ENDBRANCH  19  20
ENDBRANCH  13  19
ENDBRANCH   1  18
TORSDOF 6
ENDMDL
MODEL 4
REMARK VINA RESULT:      -6.9      1.468      3.318
REMARK  Name = 
REMARK  8 active torsions:
REMARK  status: ('A' for Active; 'I' for Inactive)
REMARK    1  A    between atoms: C_1  and  C_2
REMARK    2  A    between atoms: C_2  and  C_3
REMARK    3  A    between atoms: C_3  and  C_4
REMARK    4  A    between atoms: C_3  and  O_5
REMARK    5  A    between atoms: O_5  and  C_6
REMARK    6  A    between atoms: C_11  and  C_12
REMARK    7  A    between atoms: C_12  and  N_13
REMARK    8  A    between atoms: C_18  and  C_19
REMARK                            x       y       z     vdW  Elec       q    Type
REMARK                         _______ _______ _______ _____ _____    ______ ____
ROOT
ATOM      1  C   UNL     1       3.753   5.880  19.358  0.00  0.00    +0.000 C 
ENDROOT
BRANCH   1   2
ATOM      2  N   UNL     1       2.471   6.638  19.307  0.00  0.00    +0.000 NA
ATOM      3  C   UNL     1       2.346   7.595  18.212  0.00  0.00    +0.000 C 
ATOM      4  C   UNL     1       1.861   9.023  18.475  0.00  0.00    +0.000 C 
ATOM      5  N   UNL     1       1.223   9.198  19.753  0.00  0.00    +0.000 N 
ATOM      6  N   UNL     1       0.632  10.375  20.071  0.00  0.00    +0.000 NA
ATOM      7  C   UNL     1       0.196  10.184  21.324  0.00  0.00    +0.000 A 
ATOM      8  C   UNL     1       0.507   8.884  21.782  0.00  0.00    +0.000 A 
ATOM      9  C   UNL     1       1.210   8.276  20.750  0.00  0.00    +0.000 A 
ATOM     10  C   UNL     1       1.885   6.949  20.614  0.00  0.00    +0.000 C 
BRANCH   7  11
ATOM     11  C   UNL     1      -0.486  11.254  22.032  0.00  0.00    +0.000 C 
ATOM     12  N   UNL     1      -0.998  12.102  22.624  0.00  0.00    +0.000 NA
ENDBRANCH   7  11
ENDBRANCH   1   2
BRANCH   1  18
ATOM     13  C   UNL     1       3.877   4.413  17.185  0.00  0.00    +0.000 A 
ATOM     14  C   UNL     1       4.626   4.069  16.055  0.00  0.00    +0.000 A 
ATOM     15  C   UNL     1       5.738   4.845  15.665  0.00  0.00    +0.000 A 
ATOM     16  C   UNL     1       6.109   5.980  16.378  0.00  0.00    +0.000 A 
ATOM     17  C   UNL     1       5.420   6.299  17.541  0.00  0.00    +0.000 A 
ATOM     18  C   UNL     1       4.337   5.504  17.988  0.00  0.00    +0.000 A 
BRANCH  13  19
ATOM     19  O   UNL     1       2.638   3.883  17.463  0.00  0.00    +0.000 OA
BRANCH  19  20
ATOM     20  C   UNL     1       2.324   2.512  17.842  0.00  0.00    +0.000 C 
ATOM     21  C   UNL     1       3.588   2.068  18.602  0.00  0.00    +0.000 C 
BRANCH  20  23
ATOM     22  C   UNL     1       0.897   3.302  19.933  0.00  0.00    +0.000 C 
ATOM     23  C   UNL     1       1.082   2.303  18.765  0.00  0.00    +0.000 C 
ENDBRANCH  20  23
ENDBRANCH  19  20
ENDBRANCH  13  19
ENDBRANCH   1  18
TORSDOF 6
ENDMDL
MODEL 5
REMARK VINA RESULT:      -6.9      1.525      3.294
REMARK  Name = 
REMARK  8 active torsions:
REMARK  status: ('A' for Active; 'I' for Inactive)
REMARK    1  A    between atoms: C_1  and  C_2
REMARK    2  A    between atoms: C_2  and  C_3
REMARK    3  A    between atoms: C_3  and  C_4
REMARK    4  A    between atoms: C_3  and  O_5
REMARK    5  A    between atoms: O_5  and  C_6
REMARK    6  A    between atoms: C_11  and  C_12
REMARK    7  A    between atoms: C_12  and  N_13
REMARK    8  A    between atoms: C_18  and  C_19
REMARK                            x       y       z     vdW  Elec       q    Type
REMARK                         _______ _______ _______ _____ _____    ______ ____
ROOT
ATOM      1  C   UNL     1       4.169   6.916  18.610  0.00  0.00    +0.000 C 
ENDROOT
BRANCH   1   2
ATOM      2  N   UNL     1       2.753   7.363  18.737  0.00  0.00    +0.000 NA
ATOM      3  C   UNL     1       2.339   8.418  17.817  0.00  0.00    +0.000 C 
ATOM      4  C   UNL     1       1.577   9.644  18.328  0.00  0.00    +0.000 C 
ATOM      5  N   UNL     1       1.018   9.479  19.643  0.00  0.00    +0.000 N 
ATOM      6  N   UNL     1       0.212  10.431  20.173  0.00  0.00    +0.000 NA
ATOM      7  C   UNL     1      -0.073   9.962  21.396  0.00  0.00    +0.000 A 
ATOM      8  C   UNL     1       0.547   8.713  21.624  0.00  0.00    +0.000 A 
ATOM      9  C   UNL     1       1.282   8.440  20.478  0.00  0.00    +0.000 A 
ATOM     10  C   UNL     1       2.217   7.336  20.101  0.00  0.00    +0.000 C 
BRANCH   7  11
ATOM     11  C   UNL     1      -0.914  10.733  22.296  0.00  0.00    +0.000 C 
ATOM     12  N   UNL     1      -1.548  11.358  23.031  0.00  0.00    +0.000 NA
ENDBRANCH   7  11
ENDBRANCH   1   2
BRANCH   1  18
ATOM     13  C   UNL     1       4.189   4.494  17.600  0.00  0.00    +0.000 A 
ATOM     14  C   UNL     1       4.653   3.665  16.572  0.00  0.00    +0.000 A 
ATOM     15  C   UNL     1       5.241   4.216  15.414  0.00  0.00    +0.000 A 
ATOM     16  C   UNL     1       5.360   5.592  15.253  0.00  0.00    +0.000 A 
ATOM     17  C   UNL     1       4.968   6.429  16.291  0.00  0.00    +0.000 A 
ATOM     18  C   UNL     1       4.429   5.899  17.489  0.00  0.00    +0.000 A 
BRANCH  13  19
ATOM     19  O   UNL     1       3.366   4.057  18.612  0.00  0.00    +0.000 OA
BRANCH  19  20
ATOM     20  C   UNL     1       1.952   3.715  18.522  0.00  0.00    +0.000 C 
ATOM     21  C   UNL     1       1.983   2.215  18.178  0.00  0.00    +0.000 C 
BRANCH  20  23
ATOM     22  C   UNL     1       1.619   3.269  21.115  0.00  0.00    +0.000 C 
ATOM     23  C   UNL     1       1.095   3.919  19.811  0.00  0.00    +0.000 C 
ENDBRANCH  20  23
ENDBRANCH  19  20
ENDBRANCH  13  19
ENDBRANCH   1  18
TORSDOF 6
ENDMDL
MODEL 6
REMARK VINA RESULT:      -6.9      1.173      1.711
REMARK  Name = 
REMARK  8 active torsions:
REMARK  status: ('A' for Active; 'I' for Inactive)
REMARK    1  A    between atoms: C_1  and  C_2
REMARK    2  A    between atoms: C_2  and  C_3
REMARK    3  A    between atoms: C_3  and  C_4
REMARK    4  A    between atoms: C_3  and  O_5
REMARK    5  A    between atoms: O_5  and  C_6
REMARK    6  A    between atoms: C_11  and  C_12
REMARK    7  A    between atoms: C_12  and  N_13
REMARK    8  A    between atoms: C_18  and  C_19
REMARK                            x       y       z     vdW  Elec       q    Type
REMARK                         _______ _______ _______ _____ _____    ______ ____
ROOT
ATOM      1  C   UNL     1       3.711   6.106  19.009  0.00  0.00    +0.000 C 
ENDROOT
BRANCH   1   2
ATOM      2  N   UNL     1       2.412   6.832  19.088  0.00  0.00    +0.000 NA
ATOM      3  C   UNL     1       2.210   7.874  18.085  0.00  0.00    +0.000 C 
ATOM      4  C   UNL     1       1.709   9.262  18.491  0.00  0.00    +0.000 C 
ATOM      5  N   UNL     1       1.137   9.316  19.810  0.00  0.00    +0.000 N 
ATOM      6  N   UNL     1       0.540  10.447  20.256  0.00  0.00    +0.000 NA
ATOM      7  C   UNL     1       0.175  10.142  21.509  0.00  0.00    +0.000 A 
ATOM      8  C   UNL     1       0.536   8.816  21.840  0.00  0.00    +0.000 A 
ATOM      9  C   UNL     1       1.196   8.313  20.726  0.00  0.00    +0.000 A 
ATOM     10  C   UNL     1       1.890   7.020  20.445  0.00  0.00    +0.000 C 
BRANCH   7  11
ATOM     11  C   UNL     1      -0.490  11.132  22.339  0.00  0.00    +0.000 C 
ATOM     12  N   UNL     1      -0.982  11.929  23.013  0.00  0.00    +0.000 NA
ENDBRANCH   7  11
ENDBRANCH   1   2
BRANCH   1  18
ATOM     13  C   UNL     1       3.815   3.890  17.607  0.00  0.00    +0.000 A 
ATOM     14  C   UNL     1       3.482   2.531  17.550  0.00  0.00    +0.000 A 
ATOM     15  C   UNL     1       3.042   1.850  18.704  0.00  0.00    +0.000 A 
ATOM     16  C   UNL     1       2.944   2.499  19.930  0.00  0.00    +0.000 A 
ATOM     17  C   UNL     1       3.205   3.863  19.992  0.00  0.00    +0.000 A 
ATOM     18  C   UNL     1       3.591   4.584  18.837  0.00  0.00    +0.000 A 
BRANCH  13  19
ATOM     19  O   UNL     1       4.506   4.542  16.612  0.00  0.00    +0.000 OA
BRANCH  19  20
ATOM     20  C   UNL     1       5.867   4.283  16.159  0.00  0.00    +0.000 C 
ATOM     21  C   UNL     1       5.955   5.099  14.857  0.00  0.00    +0.000 C 
BRANCH  20  23
ATOM     22  C   UNL     1       7.262   6.248  17.266  0.00  0.00    +0.000 C 
ATOM     23  C   UNL     1       7.022   4.727  17.111  0.00  0.00    +0.000 C 
ENDBRANCH  20  23
ENDBRANCH  19  20
ENDBRANCH  13  19
ENDBRANCH   1  18
TORSDOF 6
ENDMDL
MODEL 7
REMARK VINA RESULT:      -6.9      1.538      2.204
REMARK  Name = 
REMARK  8 active torsions:
REMARK  status: ('A' for Active; 'I' for Inactive)
REMARK    1  A    between atoms: C_1  and  C_2
REMARK    2  A    between atoms: C_2  and  C_3
REMARK    3  A    between atoms: C_3  and  C_4
REMARK    4  A    between atoms: C_3  and  O_5
REMARK    5  A    between atoms: O_5  and  C_6
REMARK    6  A    between atoms: C_11  and  C_12
REMARK    7  A    between atoms: C_12  and  N_13
REMARK    8  A    between atoms: C_18  and  C_19
REMARK                            x       y       z     vdW  Elec       q    Type
REMARK                         _______ _______ _______ _____ _____    ______ ____
ROOT
ATOM      1  C   UNL     1       2.477   7.159  19.864  0.00  0.00    +0.000 C 
ENDROOT
BRANCH   1   2
ATOM      2  N   UNL     1       1.318   8.095  19.855  0.00  0.00    +0.000 NA
ATOM      3  C   UNL     1       1.357   9.137  18.833  0.00  0.00    +0.000 C 
ATOM      4  C   UNL     1       1.075  10.597  19.196  0.00  0.00    +0.000 C 
ATOM      5  N   UNL     1       0.440  10.770  20.476  0.00  0.00    +0.000 N 
ATOM      6  N   UNL     1       0.017  11.994  20.875  0.00  0.00    +0.000 NA
ATOM      7  C   UNL     1      -0.470  11.777  22.105  0.00  0.00    +0.000 A 
ATOM      8  C   UNL     1      -0.359  10.416  22.468  0.00  0.00    +0.000 A 
ATOM      9  C   UNL     1       0.272   9.789  21.402  0.00  0.00    +0.000 A 
ATOM     10  C   UNL     1       0.754   8.392  21.175  0.00  0.00    +0.000 C 
BRANCH   7  11
ATOM     11  C   UNL     1      -1.007  12.880  22.883  0.00  0.00    +0.000 C 
ATOM     12  N   UNL     1      -1.405  13.749  23.530  0.00  0.00    +0.000 NA
ENDBRANCH   7  11
ENDBRANCH   1   2
BRANCH   1  18
ATOM     13  C   UNL     1       2.449   5.106  18.229  0.00  0.00    +0.000 A 
ATOM     14  C   UNL     1       1.911   3.843  17.956  0.00  0.00    +0.000 A 
ATOM     15  C   UNL     1       1.180   3.144  18.939  0.00  0.00    +0.000 A 
ATOM     16  C   UNL     1       0.987   3.679  20.208  0.00  0.00    +0.000 A 
ATOM     17  C   UNL     1       1.455   4.961  20.477  0.00  0.00    +0.000 A 
ATOM     18  C   UNL     1       2.140   5.708  19.489  0.00  0.00    +0.000 A 
BRANCH  13  19
ATOM     19  O   UNL     1       3.393   5.715  17.435  0.00  0.00    +0.000 OA
BRANCH  19  20
ATOM     20  C   UNL     1       4.584   5.112  16.851  0.00  0.00    +0.000 C 
ATOM     21  C   UNL     1       5.267   6.306  16.158  0.00  0.00    +0.000 C 
BRANCH  20  23
ATOM     22  C   UNL     1       5.887   5.216  19.158  0.00  0.00    +0.000 C 
ATOM     23  C   UNL     1       5.599   4.457  17.841  0.00  0.00    +0.000 C 
ENDBRANCH  20  23
ENDBRANCH  19  20
ENDBRANCH  13  19
ENDBRANCH   1  18
TORSDOF 6
ENDMDL
MODEL 8
REMARK VINA RESULT:      -6.8      1.575      3.606
REMARK  Name = 
REMARK  8 active torsions:
REMARK  status: ('A' for Active; 'I' for Inactive)
REMARK    1  A    between atoms: C_1  and  C_2
REMARK    2  A    between atoms: C_2  and  C_3
REMARK    3  A    between atoms: C_3  and  C_4
REMARK    4  A    between atoms: C_3  and  O_5
REMARK    5  A    between atoms: O_5  and  C_6
REMARK    6  A    between atoms: C_11  and  C_12
REMARK    7  A    between atoms: C_12  and  N_13
REMARK    8  A    between atoms: C_18  and  C_19
REMARK                            x       y       z     vdW  Elec       q    Type
REMARK                         _______ _______ _______ _____ _____    ______ ____
ROOT
ATOM      1  C   UNL     1       2.483   6.490  18.133  0.00  0.00    +0.000 C 
ENDROOT
BRANCH   1   2
ATOM      2  N   UNL     1       2.335   7.721  18.959  0.00  0.00    +0.000 NA
ATOM      3  C   UNL     1       2.020   7.502  20.367  0.00  0.00    +0.000 C 
ATOM      4  C   UNL     1       0.892   8.285  21.045  0.00  0.00    +0.000 C 
ATOM      5  N   UNL     1       0.461   9.445  20.311  0.00  0.00    +0.000 N 
ATOM      6  N   UNL     1      -0.440  10.303  20.847  0.00  0.00    +0.000 NA
ATOM      7  C   UNL     1      -0.627  11.213  19.881  0.00  0.00    +0.000 A 
ATOM      8  C   UNL     1       0.166  10.927  18.747  0.00  0.00    +0.000 A 
ATOM      9  C   UNL     1       0.837   9.748  19.041  0.00  0.00    +0.000 A 
ATOM     10  C   UNL     1       1.759   8.871  18.256  0.00  0.00    +0.000 C 
BRANCH   7  11
ATOM     11  C   UNL     1      -1.563  12.307  20.078  0.00  0.00    +0.000 C 
ATOM     12  N   UNL     1      -2.275  13.199  20.248  0.00  0.00    +0.000 NA
ENDBRANCH   7  11
ENDBRANCH   1   2
BRANCH   1  18
ATOM     13  C   UNL     1       4.474   4.841  18.588  0.00  0.00    +0.000 A 
ATOM     14  C   UNL     1       5.853   4.626  18.489  0.00  0.00    +0.000 A 
ATOM     15  C   UNL     1       6.657   5.471  17.695  0.00  0.00    +0.000 A 
ATOM     16  C   UNL     1       6.104   6.526  16.978  0.00  0.00    +0.000 A 
ATOM     17  C   UNL     1       4.748   6.797  17.117  0.00  0.00    +0.000 A 
ATOM     18  C   UNL     1       3.928   6.001  17.954  0.00  0.00    +0.000 A 
BRANCH  13  19
ATOM     19  O   UNL     1       3.598   3.914  19.104  0.00  0.00    +0.000 OA
BRANCH  19  20
ATOM     20  C   UNL     1       2.698   3.036  18.366  0.00  0.00    +0.000 C 
ATOM     21  C   UNL     1       3.443   1.689  18.384  0.00  0.00    +0.000 C 
BRANCH  20  23
ATOM     22  C   UNL     1       0.873   3.722  20.164  0.00  0.00    +0.000 C 
ATOM     23  C   UNL     1       1.270   2.830  18.964  0.00  0.00    +0.000 C 
ENDBRANCH  20  23
ENDBRANCH  19  20
ENDBRANCH  13  19
ENDBRANCH   1  18
TORSDOF 6
ENDMDL
MODEL 9
REMARK VINA RESULT:      -6.8      1.131      1.307
REMARK  Name = 
REMARK  8 active torsions:
REMARK  status: ('A' for Active; 'I' for Inactive)
REMARK    1  A    between atoms: C_1  and  C_2
REMARK    2  A    between atoms: C_2  and  C_3
REMARK    3  A    between atoms: C_3  and  C_4
REMARK    4  A    between atoms: C_3  and  O_5
REMARK    5  A    between atoms: O_5  and  C_6
REMARK    6  A    between atoms: C_11  and  C_12
REMARK    7  A    between atoms: C_12  and  N_13
REMARK    8  A    between atoms: C_18  and  C_19
REMARK                            x       y       z     vdW  Elec       q    Type
REMARK                         _______ _______ _______ _____ _____    ______ ____
ROOT
ATOM      1  C   UNL     1       3.343   5.928  19.413  0.00  0.00    +0.000 C 
ENDROOT
BRANCH   1   2
ATOM      2  N   UNL     1       2.202   6.873  19.253  0.00  0.00    +0.000 NA
ATOM      3  C   UNL     1       2.209   7.670  18.030  0.00  0.00    +0.000 C 
ATOM      4  C   UNL     1       1.972   9.182  18.082  0.00  0.00    +0.000 C 
ATOM      5  N   UNL     1       1.404   9.643  19.321  0.00  0.00    +0.000 N 
ATOM      6  N   UNL     1       1.023  10.935  19.465  0.00  0.00    +0.000 NA
ATOM      7  C   UNL     1       0.593  11.001  20.732  0.00  0.00    +0.000 A 
ATOM      8  C   UNL     1       0.697   9.747  21.375  0.00  0.00    +0.000 A 
ATOM      9  C   UNL     1       1.264   8.888  20.443  0.00  0.00    +0.000 A 
ATOM     10  C   UNL     1       1.709   7.462  20.501  0.00  0.00    +0.000 C 
BRANCH   7  11
ATOM     11  C   UNL     1       0.114  12.260  21.278  0.00  0.00    +0.000 C 
ATOM     12  N   UNL     1      -0.288  13.239  21.737  0.00  0.00    +0.000 NA
ENDBRANCH   7  11
ENDBRANCH   1   2
BRANCH   1  18
ATOM     13  C   UNL     1       3.944   3.627  18.304  0.00  0.00    +0.000 A 
ATOM     14  C   UNL     1       3.463   2.396  17.842  0.00  0.00    +0.000 A 
ATOM     15  C   UNL     1       2.159   1.965  18.169  0.00  0.00    +0.000 A 
ATOM     16  C   UNL     1       1.325   2.738  18.970  0.00  0.00    +0.000 A 
ATOM     17  C   UNL     1       1.760   3.993  19.381  0.00  0.00    +0.000 A 
ATOM     18  C   UNL     1       3.041   4.475  19.018  0.00  0.00    +0.000 A 
BRANCH  13  19
ATOM     19  O   UNL     1       5.272   3.983  18.265  0.00  0.00    +0.000 OA
BRANCH  19  20
ATOM     20  C   UNL     1       5.990   4.617  17.167  0.00  0.00    +0.000 C 
ATOM     21  C   UNL     1       7.432   4.696  17.701  0.00  0.00    +0.000 C 
BRANCH  20  23
ATOM     22  C   UNL     1       5.851   4.716  14.521  0.00  0.00    +0.000 C 
ATOM     23  C   UNL     1       6.000   3.860  15.802  0.00  0.00    +0.000 C 
ENDBRANCH  20  23
ENDBRANCH  19  20
ENDBRANCH  13  19
ENDBRANCH   1  18
TORSDOF 6
ENDMDL
