MODEL 1
REMARK VINA RESULT:      -8.3      0.000      0.000
REMARK  Name = 
REMARK  5 active torsions:
REMARK  status: ('A' for Active; 'I' for Inactive)
REMARK    1  A    between atoms: C_2  and  C_3
REMARK    2  A    between atoms: C_3  and  N_4
REMARK    3  A    between atoms: C_7  and  C_8
REMARK    4  A    between atoms: N_15  and  N_16
REMARK    5  A    between atoms: C_17  and  C_19
REMARK                            x       y       z     vdW  Elec       q    Type
REMARK                         _______ _______ _______ _____ _____    ______ ____
ROOT
ATOM      1  O   UNL     1       3.762   2.355  17.765  0.00  0.00    +0.000 OA
ATOM      2  C   UNL     1       4.398   3.142  18.470  0.00  0.00    +0.000 C 
ATOM      3  N   UNL     1       5.555   3.757  18.032  0.00  0.00    +0.000 N 
ATOM      4  H   UNL     1       5.960   4.563  18.523  0.00  0.00    +0.000 HD
ENDROOT
BRANCH   3   5
ATOM      5  N   UNL     1       5.947   3.601  16.696  0.00  0.00    +0.000 N 
ATOM      6  C   UNL     1       5.672   4.642  15.828  0.00  0.00    +0.000 C 
ATOM      7  O   UNL     1       5.053   5.646  16.177  0.00  0.00    +0.000 OA
ATOM      8  H   UNL     1       6.617   2.861  16.496  0.00  0.00    +0.000 HD
BRANCH   6   9
ATOM      9  C   UNL     1       6.189   4.518  14.440  0.00  0.00    +0.000 A 
ATOM     10  C   UNL     1       7.311   5.230  14.001  0.00  0.00    +0.000 A 
ATOM     11  C   UNL     1       7.775   5.061  12.694  0.00  0.00    +0.000 A 
ATOM     12  C   UNL     1       7.125   4.184  11.824  0.00  0.00    +0.000 A 
ATOM     13  C   UNL     1       6.015   3.463  12.262  0.00  0.00    +0.000 A 
ATOM     14  C   UNL     1       5.551   3.624  13.569  0.00  0.00    +0.000 A 
ENDBRANCH   6   9
ENDBRANCH   3   5
BRANCH   2  15
ATOM     15  C   UNL     1       4.042   3.410  19.911  0.00  0.00    +0.000 C 
BRANCH  15  16
ATOM     16  N   UNL     1       3.111   4.503  20.038  0.00  0.00    +0.000 N 
ATOM     17  N   UNL     1       2.106   4.488  20.927  0.00  0.00    +0.000 NA
ATOM     18  N   UNL     1       1.552   5.689  20.829  0.00  0.00    +0.000 NA
ATOM     19  C   UNL     1       2.276   6.392  19.893  0.00  0.00    +0.000 A 
ATOM     20  N   UNL     1       3.298   5.670  19.392  0.00  0.00    +0.000 NA
BRANCH  19  21
ATOM     21  C   UNL     1       1.951   7.753  19.485  0.00  0.00    +0.000 A 
ATOM     22  C   UNL     1       1.289   8.628  20.360  0.00  0.00    +0.000 A 
ATOM     23  C   UNL     1       0.948   9.921  19.949  0.00  0.00    +0.000 A 
ATOM     24  C   UNL     1       1.270  10.355  18.664  0.00  0.00    +0.000 A 
ATOM     25  C   UNL     1       1.937   9.500  17.789  0.00  0.00    +0.000 A 
ATOM     26  C   UNL     1       2.276   8.208  18.198  0.00  0.00    +0.000 A 
ENDBRANCH  19  21
ENDBRANCH  15  16
ENDBRANCH   2  15
TORSDOF 5
ENDMDL
MODEL 2
REMARK VINA RESULT:      -8.1      5.569      7.302
REMARK  Name = 
REMARK  5 active torsions:
REMARK  status: ('A' for Active; 'I' for Inactive)
REMARK    1  A    between atoms: C_2  and  C_3
REMARK    2  A    between atoms: C_3  and  N_4
REMARK    3  A    between atoms: C_7  and  C_8
REMARK    4  A    between atoms: N_15  and  N_16
REMARK    5  A    between atoms: C_17  and  C_19
REMARK                            x       y       z     vdW  Elec       q    Type
REMARK                         _______ _______ _______ _____ _____    ______ ____
ROOT
ATOM      1  O   UNL     1       7.566   7.604  17.103  0.00  0.00    +0.000 OA
ATOM      2  C   UNL     1       7.959   7.398  18.254  0.00  0.00    +0.000 C 
ATOM      3  N   UNL     1       8.687   8.333  18.963  0.00  0.00    +0.000 N 
ATOM      4  H   UNL     1       8.827   8.256  19.978  0.00  0.00    +0.000 HD
ENDROOT
BRANCH   3   5
ATOM      5  N   UNL     1       8.865   9.614  18.423  0.00  0.00    +0.000 N 
ATOM      6  C   UNL     1       9.304  10.608  19.278  0.00  0.00    +0.000 C 
ATOM      7  O   UNL     1       9.478  10.416  20.480  0.00  0.00    +0.000 OA
ATOM      8  H   UNL     1       8.902   9.685  17.408  0.00  0.00    +0.000 HD
BRANCH   6   9
ATOM      9  C   UNL     1       9.596  11.935  18.676  0.00  0.00    +0.000 A 
ATOM     10  C   UNL     1       8.963  13.103  19.117  0.00  0.00    +0.000 A 
ATOM     11  C   UNL     1       9.288  14.333  18.538  0.00  0.00    +0.000 A 
ATOM     12  C   UNL     1      10.243  14.401  17.522  0.00  0.00    +0.000 A 
ATOM     13  C   UNL     1      10.885  13.241  17.089  0.00  0.00    +0.000 A 
ATOM     14  C   UNL     1      10.568  12.011  17.670  0.00  0.00    +0.000 A 
ENDBRANCH   6   9
ENDBRANCH   3   5
BRANCH   2  15
ATOM     15  C   UNL     1       7.790   6.068  18.944  0.00  0.00    +0.000 C 
BRANCH  15  16
ATOM     16  N   UNL     1       6.555   5.425  18.570  0.00  0.00    +0.000 N 
ATOM     17  N   UNL     1       6.423   4.736  17.427  0.00  0.00    +0.000 NA
ATOM     18  N   UNL     1       5.209   4.205  17.491  0.00  0.00    +0.000 NA
ATOM     19  C   UNL     1       4.668   4.582  18.699  0.00  0.00    +0.000 A 
ATOM     20  N   UNL     1       5.517   5.337  19.425  0.00  0.00    +0.000 NA
BRANCH  19  21
ATOM     21  C   UNL     1       3.323   4.215  19.124  0.00  0.00    +0.000 A 
ATOM     22  C   UNL     1       2.529   3.359  18.345  0.00  0.00    +0.000 A 
ATOM     23  C   UNL     1       1.226   3.040  18.741  0.00  0.00    +0.000 A 
ATOM     24  C   UNL     1       0.704   3.568  19.921  0.00  0.00    +0.000 A 
ATOM     25  C   UNL     1       1.485   4.411  20.710  0.00  0.00    +0.000 A 
ATOM     26  C   UNL     1       2.785   4.731  20.314  0.00  0.00    +0.000 A 
ENDBRANCH  19  21
ENDBRANCH  15  16
ENDBRANCH   2  15
TORSDOF 5
ENDMDL
MODEL 3
REMARK VINA RESULT:      -8.1      5.609      7.172
REMARK  Name = 
REMARK  5 active torsions:
REMARK  status: ('A' for Active; 'I' for Inactive)
REMARK    1  A    between atoms: C_2  and  C_3
REMARK    2  A    between atoms: C_3  and  N_4
REMARK    3  A    between atoms: C_7  and  C_8
REMARK    4  A    between atoms: N_15  and  N_16
REMARK    5  A    between atoms: C_17  and  C_19
REMARK                            x       y       z     vdW  Elec       q    Type
REMARK                         _______ _______ _______ _____ _____    ______ ____
ROOT
ATOM      1  O   UNL     1       7.897   7.415  16.663  0.00  0.00    +0.000 OA
ATOM      2  C   UNL     1       7.877   7.312  17.892  0.00  0.00    +0.000 C 
ATOM      3  N   UNL     1       8.384   8.291  18.723  0.00  0.00    +0.000 N 
ATOM      4  H   UNL     1       8.178   8.310  19.729  0.00  0.00    +0.000 HD
ENDROOT
BRANCH   3   5
ATOM      5  N   UNL     1       8.804   9.508  18.168  0.00  0.00    +0.000 N 
ATOM      6  C   UNL     1       9.286  10.469  19.038  0.00  0.00    +0.000 C 
ATOM      7  O   UNL     1       9.296  10.311  20.257  0.00  0.00    +0.000 OA
ATOM      8  H   UNL     1       8.963   9.526  17.163  0.00  0.00    +0.000 HD
BRANCH   6   9
ATOM      9  C   UNL     1       9.831  11.713  18.434  0.00  0.00    +0.000 A 
ATOM     10  C   UNL     1      11.056  11.731  17.756  0.00  0.00    +0.000 A 
ATOM     11  C   UNL     1      11.516  12.919  17.182  0.00  0.00    +0.000 A 
ATOM     12  C   UNL     1      10.760  14.088  17.282  0.00  0.00    +0.000 A 
ATOM     13  C   UNL     1       9.533  14.071  17.945  0.00  0.00    +0.000 A 
ATOM     14  C   UNL     1       9.066  12.884  18.514  0.00  0.00    +0.000 A 
ENDBRANCH   6   9
ENDBRANCH   3   5
BRANCH   2  15
ATOM     15  C   UNL     1       7.413   6.060  18.594  0.00  0.00    +0.000 C 
BRANCH  15  16
ATOM     16  N   UNL     1       5.998   5.846  18.425  0.00  0.00    +0.000 N 
ATOM     17  N   UNL     1       5.308   6.382  17.407  0.00  0.00    +0.000 NA
ATOM     18  N   UNL     1       4.088   5.874  17.522  0.00  0.00    +0.000 NA
ATOM     19  C   UNL     1       4.106   5.023  18.603  0.00  0.00    +0.000 A 
ATOM     20  N   UNL     1       5.321   4.961  19.183  0.00  0.00    +0.000 NA
BRANCH  19  21
ATOM     21  C   UNL     1       2.933   4.294  19.069  0.00  0.00    +0.000 A 
ATOM     22  C   UNL     1       2.201   3.474  18.197  0.00  0.00    +0.000 A 
ATOM     23  C   UNL     1       1.055   2.806  18.642  0.00  0.00    +0.000 A 
ATOM     24  C   UNL     1       0.632   2.945  19.963  0.00  0.00    +0.000 A 
ATOM     25  C   UNL     1       1.356   3.748  20.842  0.00  0.00    +0.000 A 
ATOM     26  C   UNL     1       2.499   4.417  20.398  0.00  0.00    +0.000 A 
ENDBRANCH  19  21
ENDBRANCH  15  16
ENDBRANCH   2  15
TORSDOF 5
ENDMDL
MODEL 4
REMARK VINA RESULT:      -8.0      5.473      7.002
REMARK  Name = 
REMARK  5 active torsions:
REMARK  status: ('A' for Active; 'I' for Inactive)
REMARK    1  A    between atoms: C_2  and  C_3
REMARK    2  A    between atoms: C_3  and  N_4
REMARK    3  A    between atoms: C_7  and  C_8
REMARK    4  A    between atoms: N_15  and  N_16
REMARK    5  A    between atoms: C_17  and  C_19
REMARK                            x       y       z     vdW  Elec       q    Type
REMARK                         _______ _______ _______ _____ _____    ______ ____
ROOT
ATOM      1  O   UNL     1       7.919   6.317  18.220  0.00  0.00    +0.000 OA
ATOM      2  C   UNL     1       7.255   7.015  17.449  0.00  0.00    +0.000 C 
ATOM      3  N   UNL     1       7.418   8.384  17.368  0.00  0.00    +0.000 N 
ATOM      4  H   UNL     1       7.031   8.931  16.589  0.00  0.00    +0.000 HD
ENDROOT
BRANCH   3   5
ATOM      5  N   UNL     1       8.466   8.991  18.073  0.00  0.00    +0.000 N 
ATOM      6  C   UNL     1       8.567  10.368  17.997  0.00  0.00    +0.000 C 
ATOM      7  O   UNL     1       7.820  11.047  17.296  0.00  0.00    +0.000 OA
ATOM      8  H   UNL     1       8.930   8.429  18.783  0.00  0.00    +0.000 HD
BRANCH   6   9
ATOM      9  C   UNL     1       9.612  11.014  18.834  0.00  0.00    +0.000 A 
ATOM     10  C   UNL     1       9.416  11.269  20.196  0.00  0.00    +0.000 A 
ATOM     11  C   UNL     1      10.437  11.855  20.949  0.00  0.00    +0.000 A 
ATOM     12  C   UNL     1      11.652  12.188  20.348  0.00  0.00    +0.000 A 
ATOM     13  C   UNL     1      11.855  11.924  18.994  0.00  0.00    +0.000 A 
ATOM     14  C   UNL     1      10.840  11.332  18.239  0.00  0.00    +0.000 A 
ENDBRANCH   6   9
ENDBRANCH   3   5
BRANCH   2  15
ATOM     15  C   UNL     1       6.127   6.458  16.618  0.00  0.00    +0.000 C 
BRANCH  15  16
ATOM     16  N   UNL     1       4.913   6.325  17.384  0.00  0.00    +0.000 N 
ATOM     17  N   UNL     1       3.999   7.304  17.453  0.00  0.00    +0.000 NA
ATOM     18  N   UNL     1       2.992   6.778  18.138  0.00  0.00    +0.000 NA
ATOM     19  C   UNL     1       3.340   5.478  18.430  0.00  0.00    +0.000 A 
ATOM     20  N   UNL     1       4.550   5.150  17.935  0.00  0.00    +0.000 NA
BRANCH  19  21
ATOM     21  C   UNL     1       2.495   4.578  19.205  0.00  0.00    +0.000 A 
ATOM     22  C   UNL     1       2.541   4.575  20.608  0.00  0.00    +0.000 A 
ATOM     23  C   UNL     1       1.753   3.683  21.343  0.00  0.00    +0.000 A 
ATOM     24  C   UNL     1       0.908   2.790  20.687  0.00  0.00    +0.000 A 
ATOM     25  C   UNL     1       0.846   2.789  19.294  0.00  0.00    +0.000 A 
ATOM     26  C   UNL     1       1.633   3.678  18.560  0.00  0.00    +0.000 A 
ENDBRANCH  19  21
ENDBRANCH  15  16
ENDBRANCH   2  15
TORSDOF 5
ENDMDL
MODEL 5
REMARK VINA RESULT:      -8.0      4.886      7.754
REMARK  Name = 
REMARK  5 active torsions:
REMARK  status: ('A' for Active; 'I' for Inactive)
REMARK    1  A    between atoms: C_2  and  C_3
REMARK    2  A    between atoms: C_3  and  N_4
REMARK    3  A    between atoms: C_7  and  C_8
REMARK    4  A    between atoms: N_15  and  N_16
REMARK    5  A    between atoms: C_17  and  C_19
REMARK                            x       y       z     vdW  Elec       q    Type
REMARK                         _______ _______ _______ _____ _____    ______ ____
ROOT
ATOM      1  O   UNL     1       8.049   5.670  20.532  0.00  0.00    +0.000 OA
ATOM      2  C   UNL     1       7.492   5.723  19.432  0.00  0.00    +0.000 C 
ATOM      3  N   UNL     1       7.652   6.795  18.576  0.00  0.00    +0.000 N 
ATOM      4  H   UNL     1       7.371   6.747  17.589  0.00  0.00    +0.000 HD
ENDROOT
BRANCH   3   5
ATOM      5  N   UNL     1       8.586   7.790  18.893  0.00  0.00    +0.000 N 
ATOM      6  C   UNL     1       8.386   9.046  18.349  0.00  0.00    +0.000 C 
ATOM      7  O   UNL     1       7.469   9.287  17.566  0.00  0.00    +0.000 OA
ATOM      8  H   UNL     1       9.202   7.609  19.683  0.00  0.00    +0.000 HD
BRANCH   6   9
ATOM      9  C   UNL     1       9.317  10.122  18.777  0.00  0.00    +0.000 A 
ATOM     10  C   UNL     1      10.121  10.812  17.862  0.00  0.00    +0.000 A 
ATOM     11  C   UNL     1      10.963  11.835  18.307  0.00  0.00    +0.000 A 
ATOM     12  C   UNL     1      11.004  12.172  19.661  0.00  0.00    +0.000 A 
ATOM     13  C   UNL     1      10.194  11.496  20.573  0.00  0.00    +0.000 A 
ATOM     14  C   UNL     1       9.347  10.478  20.132  0.00  0.00    +0.000 A 
ENDBRANCH   6   9
ENDBRANCH   3   5
BRANCH   2  15
ATOM     15  C   UNL     1       6.495   4.688  18.977  0.00  0.00    +0.000 C 
BRANCH  15  16
ATOM     16  N   UNL     1       6.096   4.895  17.607  0.00  0.00    +0.000 N 
ATOM     17  N   UNL     1       5.180   5.811  17.259  0.00  0.00    +0.000 NA
ATOM     18  N   UNL     1       5.167   5.788  15.933  0.00  0.00    +0.000 NA
ATOM     19  C   UNL     1       6.109   4.867  15.537  0.00  0.00    +0.000 A 
ATOM     20  N   UNL     1       6.741   4.301  16.584  0.00  0.00    +0.000 NA
BRANCH  19  21
ATOM     21  C   UNL     1       6.369   4.535  14.141  0.00  0.00    +0.000 A 
ATOM     22  C   UNL     1       5.589   3.581  13.470  0.00  0.00    +0.000 A 
ATOM     23  C   UNL     1       5.867   3.243  12.142  0.00  0.00    +0.000 A 
ATOM     24  C   UNL     1       6.922   3.856  11.469  0.00  0.00    +0.000 A 
ATOM     25  C   UNL     1       7.698   4.813  12.120  0.00  0.00    +0.000 A 
ATOM     26  C   UNL     1       7.422   5.150  13.447  0.00  0.00    +0.000 A 
ENDBRANCH  19  21
ENDBRANCH  15  16
ENDBRANCH   2  15
TORSDOF 5
ENDMDL
MODEL 6
REMARK VINA RESULT:      -7.9      0.443      1.462
REMARK  Name = 
REMARK  5 active torsions:
REMARK  status: ('A' for Active; 'I' for Inactive)
REMARK    1  A    between atoms: C_2  and  C_3
REMARK    2  A    between atoms: C_3  and  N_4
REMARK    3  A    between atoms: C_7  and  C_8
REMARK    4  A    between atoms: N_15  and  N_16
REMARK    5  A    between atoms: C_17  and  C_19
REMARK                            x       y       z     vdW  Elec       q    Type
REMARK                         _______ _______ _______ _____ _____    ______ ____
ROOT
ATOM      1  O   UNL     1       2.873   2.606  17.321  0.00  0.00    +0.000 OA
ATOM      2  C   UNL     1       3.690   3.039  18.137  0.00  0.00    +0.000 C 
ATOM      3  N   UNL     1       4.995   3.328  17.791  0.00  0.00    +0.000 N 
ATOM      4  H   UNL     1       5.608   3.883  18.401  0.00  0.00    +0.000 HD
ENDROOT
BRANCH   3   5
ATOM      5  N   UNL     1       5.374   3.270  16.443  0.00  0.00    +0.000 N 
ATOM      6  C   UNL     1       5.733   4.458  15.833  0.00  0.00    +0.000 C 
ATOM      7  O   UNL     1       5.669   5.542  16.410  0.00  0.00    +0.000 OA
ATOM      8  H   UNL     1       5.601   2.352  16.067  0.00  0.00    +0.000 HD
BRANCH   6   9
ATOM      9  C   UNL     1       6.239   4.374  14.438  0.00  0.00    +0.000 A 
ATOM     10  C   UNL     1       5.647   3.536  13.485  0.00  0.00    +0.000 A 
ATOM     11  C   UNL     1       6.142   3.510  12.179  0.00  0.00    +0.000 A 
ATOM     12  C   UNL     1       7.223   4.316  11.819  0.00  0.00    +0.000 A 
ATOM     13  C   UNL     1       7.806   5.162  12.761  0.00  0.00    +0.000 A 
ATOM     14  C   UNL     1       7.311   5.197  14.067  0.00  0.00    +0.000 A 
ENDBRANCH   6   9
ENDBRANCH   3   5
BRANCH   2  15
ATOM     15  C   UNL     1       3.377   3.174  19.606  0.00  0.00    +0.000 C 
BRANCH  15  16
ATOM     16  N   UNL     1       2.685   4.405  19.894  0.00  0.00    +0.000 N 
ATOM     17  N   UNL     1       2.007   4.595  21.036  0.00  0.00    +0.000 NA
ATOM     18  N   UNL     1       1.616   5.862  20.989  0.00  0.00    +0.000 NA
ATOM     19  C   UNL     1       2.107   6.392  19.818  0.00  0.00    +0.000 A 
ATOM     20  N   UNL     1       2.821   5.493  19.111  0.00  0.00    +0.000 NA
BRANCH  19  21
ATOM     21  C   UNL     1       1.860   7.765  19.394  0.00  0.00    +0.000 A 
ATOM     22  C   UNL     1       2.258   8.209  18.123  0.00  0.00    +0.000 A 
ATOM     23  C   UNL     1       2.049   9.537  17.737  0.00  0.00    +0.000 A 
ATOM     24  C   UNL     1       1.436  10.433  18.612  0.00  0.00    +0.000 A 
ATOM     25  C   UNL     1       1.027  10.001  19.872  0.00  0.00    +0.000 A 
ATOM     26  C   UNL     1       1.237   8.676  20.259  0.00  0.00    +0.000 A 
ENDBRANCH  19  21
ENDBRANCH  15  16
ENDBRANCH   2  15
TORSDOF 5
ENDMDL
MODEL 7
REMARK VINA RESULT:      -7.9      4.894      5.731
REMARK  Name = 
REMARK  5 active torsions:
REMARK  status: ('A' for Active; 'I' for Inactive)
REMARK    1  A    between atoms: C_2  and  C_3
REMARK    2  A    between atoms: C_3  and  N_4
REMARK    3  A    between atoms: C_7  and  C_8
REMARK    4  A    between atoms: N_15  and  N_16
REMARK    5  A    between atoms: C_17  and  C_19
REMARK                            x       y       z     vdW  Elec       q    Type
REMARK                         _______ _______ _______ _____ _____    ______ ____
ROOT
ATOM      1  O   UNL     1       5.583   4.604  17.730  0.00  0.00    +0.000 OA
ATOM      2  C   UNL     1       6.765   4.890  17.525  0.00  0.00    +0.000 C 
ATOM      3  N   UNL     1       7.430   4.499  16.380  0.00  0.00    +0.000 N 
ATOM      4  H   UNL     1       8.332   4.910  16.109  0.00  0.00    +0.000 HD
ENDROOT
BRANCH   3   5
ATOM      5  N   UNL     1       6.710   3.883  15.347  0.00  0.00    +0.000 N 
ATOM      6  C   UNL     1       6.832   4.422  14.080  0.00  0.00    +0.000 C 
ATOM      7  O   UNL     1       7.488   5.438  13.855  0.00  0.00    +0.000 OA
ATOM      8  H   UNL     1       6.348   2.950  15.531  0.00  0.00    +0.000 HD
BRANCH   6   9
ATOM      9  C   UNL     1       6.155   3.700  12.972  0.00  0.00    +0.000 A 
ATOM     10  C   UNL     1       6.799   2.694  12.241  0.00  0.00    +0.000 A 
ATOM     11  C   UNL     1       6.113   2.025  11.224  0.00  0.00    +0.000 A 
ATOM     12  C   UNL     1       4.788   2.354  10.934  0.00  0.00    +0.000 A 
ATOM     13  C   UNL     1       4.139   3.346  11.668  0.00  0.00    +0.000 A 
ATOM     14  C   UNL     1       4.818   4.013  12.690  0.00  0.00    +0.000 A 
ENDBRANCH   6   9
ENDBRANCH   3   5
BRANCH   2  15
ATOM     15  C   UNL     1       7.622   5.582  18.554  0.00  0.00    +0.000 C 
BRANCH  15  16
ATOM     16  N   UNL     1       7.881   6.955  18.199  0.00  0.00    +0.000 N 
ATOM     17  N   UNL     1       7.276   7.553  17.162  0.00  0.00    +0.000 NA
ATOM     18  N   UNL     1       7.671   8.818  17.224  0.00  0.00    +0.000 NA
ATOM     19  C   UNL     1       8.486   8.931  18.328  0.00  0.00    +0.000 A 
ATOM     20  N   UNL     1       8.614   7.764  18.989  0.00  0.00    +0.000 NA
BRANCH  19  21
ATOM     21  C   UNL     1       9.144  10.174  18.714  0.00  0.00    +0.000 A 
ATOM     22  C   UNL     1       9.559  11.100  17.745  0.00  0.00    +0.000 A 
ATOM     23  C   UNL     1      10.222  12.273  18.122  0.00  0.00    +0.000 A 
ATOM     24  C   UNL     1      10.471  12.536  19.467  0.00  0.00    +0.000 A 
ATOM     25  C   UNL     1      10.054  11.629  20.440  0.00  0.00    +0.000 A 
ATOM     26  C   UNL     1       9.395  10.457  20.065  0.00  0.00    +0.000 A 
ENDBRANCH  19  21
ENDBRANCH  15  16
ENDBRANCH   2  15
TORSDOF 5
ENDMDL
MODEL 8
REMARK VINA RESULT:      -7.9      5.512      7.013
REMARK  Name = 
REMARK  5 active torsions:
REMARK  status: ('A' for Active; 'I' for Inactive)
REMARK    1  A    between atoms: C_2  and  C_3
REMARK    2  A    between atoms: C_3  and  N_4
REMARK    3  A    between atoms: C_7  and  C_8
REMARK    4  A    between atoms: N_15  and  N_16
REMARK    5  A    between atoms: C_17  and  C_19
REMARK                            x       y       z     vdW  Elec       q    Type
REMARK                         _______ _______ _______ _____ _____    ______ ____
ROOT
ATOM      1  O   UNL     1       8.012   7.233  16.497  0.00  0.00    +0.000 OA
ATOM      2  C   UNL     1       7.808   7.184  17.712  0.00  0.00    +0.000 C 
ATOM      3  N   UNL     1       8.120   8.232  18.555  0.00  0.00    +0.000 N 
ATOM      4  H   UNL     1       7.760   8.282  19.516  0.00  0.00    +0.000 HD
ENDROOT
BRANCH   3   5
ATOM      5  N   UNL     1       8.547   9.449  18.005  0.00  0.00    +0.000 N 
ATOM      6  C   UNL     1       9.162  10.349  18.856  0.00  0.00    +0.000 C 
ATOM      7  O   UNL     1       9.284  10.140  20.061  0.00  0.00    +0.000 OA
ATOM      8  H   UNL     1       8.607   9.499  16.990  0.00  0.00    +0.000 HD
BRANCH   6   9
ATOM      9  C   UNL     1       9.710  11.588  18.245  0.00  0.00    +0.000 A 
ATOM     10  C   UNL     1       8.941  12.749  18.109  0.00  0.00    +0.000 A 
ATOM     11  C   UNL     1       9.507  13.898  17.551  0.00  0.00    +0.000 A 
ATOM     12  C   UNL     1      10.838  13.893  17.129  0.00  0.00    +0.000 A 
ATOM     13  C   UNL     1      11.611  12.742  17.275  0.00  0.00    +0.000 A 
ATOM     14  C   UNL     1      11.051  11.593  17.838  0.00  0.00    +0.000 A 
ENDBRANCH   6   9
ENDBRANCH   3   5
BRANCH   2  15
ATOM     15  C   UNL     1       7.317   5.937  18.403  0.00  0.00    +0.000 C 
BRANCH  15  16
ATOM     16  N   UNL     1       5.879   5.840  18.374  0.00  0.00    +0.000 N 
ATOM     17  N   UNL     1       5.122   6.652  17.622  0.00  0.00    +0.000 NA
ATOM     18  N   UNL     1       3.887   6.190  17.765  0.00  0.00    +0.000 NA
ATOM     19  C   UNL     1       3.962   5.088  18.587  0.00  0.00    +0.000 A 
ATOM     20  N   UNL     1       5.227   4.821  18.967  0.00  0.00    +0.000 NA
BRANCH  19  21
ATOM     21  C   UNL     1       2.796   4.319  19.005  0.00  0.00    +0.000 A 
ATOM     22  C   UNL     1       2.235   4.497  20.279  0.00  0.00    +0.000 A 
ATOM     23  C   UNL     1       1.139   3.730  20.687  0.00  0.00    +0.000 A 
ATOM     24  C   UNL     1       0.588   2.783  19.825  0.00  0.00    +0.000 A 
ATOM     25  C   UNL     1       1.129   2.604  18.553  0.00  0.00    +0.000 A 
ATOM     26  C   UNL     1       2.225   3.367  18.147  0.00  0.00    +0.000 A 
ENDBRANCH  19  21
ENDBRANCH  15  16
ENDBRANCH   2  15
TORSDOF 5
ENDMDL
MODEL 9
REMARK VINA RESULT:      -7.8      1.871      7.787
REMARK  Name = 
REMARK  5 active torsions:
REMARK  status: ('A' for Active; 'I' for Inactive)
REMARK    1  A    between atoms: C_2  and  C_3
REMARK    2  A    between atoms: C_3  and  N_4
REMARK    3  A    between atoms: C_7  and  C_8
REMARK    4  A    between atoms: N_15  and  N_16
REMARK    5  A    between atoms: C_17  and  C_19
REMARK                            x       y       z     vdW  Elec       q    Type
REMARK                         _______ _______ _______ _____ _____    ______ ____
ROOT
ATOM      1  O   UNL     1       0.792   4.176  20.522  0.00  0.00    +0.000 OA
ATOM      2  C   UNL     1       2.003   4.273  20.307  0.00  0.00    +0.000 C 
ATOM      3  N   UNL     1       2.682   5.468  20.439  0.00  0.00    +0.000 N 
ATOM      4  H   UNL     1       3.708   5.508  20.472  0.00  0.00    +0.000 HD
ENDROOT
BRANCH   3   5
ATOM      5  N   UNL     1       2.015   6.578  20.974  0.00  0.00    +0.000 N 
ATOM      6  C   UNL     1       1.849   7.677  20.150  0.00  0.00    +0.000 C 
ATOM      7  O   UNL     1       2.314   7.724  19.013  0.00  0.00    +0.000 OA
ATOM      8  H   UNL     1       1.484   6.428  21.829  0.00  0.00    +0.000 HD
BRANCH   6   9
ATOM      9  C   UNL     1       1.046   8.806  20.685  0.00  0.00    +0.000 A 
ATOM     10  C   UNL     1       0.708   8.897  22.041  0.00  0.00    +0.000 A 
ATOM     11  C   UNL     1      -0.028   9.992  22.503  0.00  0.00    +0.000 A 
ATOM     12  C   UNL     1      -0.427  10.995  21.619  0.00  0.00    +0.000 A 
ATOM     13  C   UNL     1      -0.081  10.915  20.271  0.00  0.00    +0.000 A 
ATOM     14  C   UNL     1       0.660   9.826  19.805  0.00  0.00    +0.000 A 
ENDBRANCH   6   9
ENDBRANCH   3   5
BRANCH   2  15
ATOM     15  C   UNL     1       2.824   3.131  19.764  0.00  0.00    +0.000 C 
BRANCH  15  16
ATOM     16  N   UNL     1       3.970   3.599  19.026  0.00  0.00    +0.000 N 
ATOM     17  N   UNL     1       5.143   3.865  19.619  0.00  0.00    +0.000 NA
ATOM     18  N   UNL     1       5.968   4.152  18.621  0.00  0.00    +0.000 NA
ATOM     19  C   UNL     1       5.251   4.017  17.454  0.00  0.00    +0.000 A 
ATOM     20  N   UNL     1       3.978   3.635  17.679  0.00  0.00    +0.000 NA
BRANCH  19  21
ATOM     21  C   UNL     1       5.811   4.280  16.134  0.00  0.00    +0.000 A 
ATOM     22  C   UNL     1       5.232   3.724  14.982  0.00  0.00    +0.000 A 
ATOM     23  C   UNL     1       5.797   3.951  13.723  0.00  0.00    +0.000 A 
ATOM     24  C   UNL     1       6.939   4.740  13.599  0.00  0.00    +0.000 A 
ATOM     25  C   UNL     1       7.517   5.307  14.734  0.00  0.00    +0.000 A 
ATOM     26  C   UNL     1       6.956   5.078  15.992  0.00  0.00    +0.000 A 
ENDBRANCH  19  21
ENDBRANCH  15  16
ENDBRANCH   2  15
TORSDOF 5
ENDMDL
