MODEL 1
REMARK VINA RESULT:      -7.3      0.000      0.000
REMARK  Name = 
REMARK  4 active torsions:
REMARK  status: ('A' for Active; 'I' for Inactive)
REMARK    1  A    between atoms: C_1  and  C_2
REMARK    2  A    between atoms: C_2  and  N_3
REMARK    3  A    between atoms: C_2  and  C_4
REMARK    4  A    between atoms: C_8  and  N_9
REMARK                            x       y       z     vdW  Elec       q    Type
REMARK                         _______ _______ _______ _____ _____    ______ ____
ROOT
ATOM      1  C   UNL     1       6.622   4.885  18.098  0.00  0.00    +0.000 A 
ATOM      2  C   UNL     1       6.665   4.548  16.734  0.00  0.00    +0.000 A 
ATOM      3  C   UNL     1       5.585   3.917  16.120  0.00  0.00    +0.000 A 
ATOM      4  C   UNL     1       4.456   3.597  16.866  0.00  0.00    +0.000 A 
ATOM      5  C   UNL     1       4.413   3.881  18.230  0.00  0.00    +0.000 A 
ATOM      6  C   UNL     1       5.474   4.549  18.841  0.00  0.00    +0.000 A 
ENDROOT
BRANCH   5   7
ATOM      7  N   UNL     1       3.235   3.498  18.929  0.00  0.00    +0.000 N 
ATOM      8  C   UNL     1       3.292   2.963  20.293  0.00  0.00    +0.000 C 
ATOM      9  C   UNL     1       1.870   2.430  20.487  0.00  0.00    +0.000 C 
ATOM     10  C   UNL     1       0.908   3.499  19.958  0.00  0.00    +0.000 C 
ATOM     11  S   UNL     1       1.840   4.459  18.766  0.00  0.00    +0.000 S 
ATOM     12  O   UNL     1       2.105   5.759  19.345  0.00  0.00    +0.000 OA
ATOM     13  O   UNL     1       1.292   4.289  17.440  0.00  0.00    +0.000 OA
ENDBRANCH   5   7
BRANCH   1  15
ATOM     14  C   UNL     1       7.901   7.060  18.289  0.00  0.00    +0.000 C 
ATOM     15  C   UNL     1       7.808   5.596  18.725  0.00  0.00    +0.000 C 
BRANCH  15  16
ATOM     16  N   UNL     1       7.769   5.490  20.185  0.00  0.00    +0.000 NA
ATOM     17  H   UNL     1       7.669   6.419  20.588  0.00  0.00    +0.000 HD
ATOM     18  H   UNL     1       8.665   5.136  20.515  0.00  0.00    +0.000 HD
ENDBRANCH  15  16
ENDBRANCH   1  15
TORSDOF 3
ENDMDL
MODEL 2
REMARK VINA RESULT:      -7.2      2.233      2.923
REMARK  Name = 
REMARK  4 active torsions:
REMARK  status: ('A' for Active; 'I' for Inactive)
REMARK    1  A    between atoms: C_1  and  C_2
REMARK    2  A    between atoms: C_2  and  N_3
REMARK    3  A    between atoms: C_2  and  C_4
REMARK    4  A    between atoms: C_8  and  N_9
REMARK                            x       y       z     vdW  Elec       q    Type
REMARK                         _______ _______ _______ _____ _____    ______ ____
ROOT
ATOM      1  C   UNL     1       5.537   5.083  16.221  0.00  0.00    +0.000 A 
ATOM      2  C   UNL     1       5.413   6.484  16.204  0.00  0.00    +0.000 A 
ATOM      3  C   UNL     1       4.520   7.132  17.056  0.00  0.00    +0.000 A 
ATOM      4  C   UNL     1       3.727   6.388  17.921  0.00  0.00    +0.000 A 
ATOM      5  C   UNL     1       3.802   4.995  17.920  0.00  0.00    +0.000 A 
ATOM      6  C   UNL     1       4.723   4.344  17.100  0.00  0.00    +0.000 A 
ENDROOT
BRANCH   5   7
ATOM      7  N   UNL     1       2.939   4.304  18.815  0.00  0.00    +0.000 N 
ATOM      8  C   UNL     1       2.352   4.970  19.982  0.00  0.00    +0.000 C 
ATOM      9  C   UNL     1       1.780   3.788  20.769  0.00  0.00    +0.000 C 
ATOM     10  C   UNL     1       1.056   2.881  19.766  0.00  0.00    +0.000 C 
ATOM     11  S   UNL     1       1.808   3.206  18.173  0.00  0.00    +0.000 S 
ATOM     12  O   UNL     1       0.855   3.941  17.368  0.00  0.00    +0.000 OA
ATOM     13  O   UNL     1       2.499   2.032  17.691  0.00  0.00    +0.000 OA
ENDBRANCH   5   7
BRANCH   1  15
ATOM     14  C   UNL     1       5.893   3.927  13.999  0.00  0.00    +0.000 C 
ATOM     15  C   UNL     1       6.540   4.415  15.297  0.00  0.00    +0.000 C 
BRANCH  15  16
ATOM     16  N   UNL     1       7.664   5.309  15.013  0.00  0.00    +0.000 NA
ATOM     17  H   UNL     1       7.331   6.113  14.487  0.00  0.00    +0.000 HD
ATOM     18  H   UNL     1       8.323   4.829  14.403  0.00  0.00    +0.000 HD
ENDBRANCH  15  16
ENDBRANCH   1  15
TORSDOF 3
ENDMDL
MODEL 3
REMARK VINA RESULT:      -7.2      2.393      3.117
REMARK  Name = 
REMARK  4 active torsions:
REMARK  status: ('A' for Active; 'I' for Inactive)
REMARK    1  A    between atoms: C_1  and  C_2
REMARK    2  A    between atoms: C_2  and  N_3
REMARK    3  A    between atoms: C_2  and  C_4
REMARK    4  A    between atoms: C_8  and  N_9
REMARK                            x       y       z     vdW  Elec       q    Type
REMARK                         _______ _______ _______ _____ _____    ______ ____
ROOT
ATOM      1  C   UNL     1       5.475   4.936  16.146  0.00  0.00    +0.000 A 
ATOM      2  C   UNL     1       5.339   6.329  16.287  0.00  0.00    +0.000 A 
ATOM      3  C   UNL     1       4.371   6.870  17.131  0.00  0.00    +0.000 A 
ATOM      4  C   UNL     1       3.514   6.027  17.829  0.00  0.00    +0.000 A 
ATOM      5  C   UNL     1       3.602   4.645  17.665  0.00  0.00    +0.000 A 
ATOM      6  C   UNL     1       4.595   4.096  16.855  0.00  0.00    +0.000 A 
ENDROOT
BRANCH   5   7
ATOM      7  N   UNL     1       2.671   3.851  18.392  0.00  0.00    +0.000 N 
ATOM      8  C   UNL     1       2.037   2.672  17.795  0.00  0.00    +0.000 C 
ATOM      9  C   UNL     1       0.935   2.354  18.809  0.00  0.00    +0.000 C 
ATOM     10  C   UNL     1       1.560   2.454  20.205  0.00  0.00    +0.000 C 
ATOM     11  S   UNL     1       2.969   3.549  20.041  0.00  0.00    +0.000 S 
ATOM     12  O   UNL     1       4.172   2.751  20.154  0.00  0.00    +0.000 OA
ATOM     13  O   UNL     1       2.759   4.761  20.797  0.00  0.00    +0.000 OA
ENDBRANCH   5   7
BRANCH   1  15
ATOM     14  C   UNL     1       6.002   3.911  13.893  0.00  0.00    +0.000 C 
ATOM     15  C   UNL     1       6.559   4.384  15.237  0.00  0.00    +0.000 C 
BRANCH  15  16
ATOM     16  N   UNL     1       7.626   5.368  15.040  0.00  0.00    +0.000 NA
ATOM     17  H   UNL     1       8.466   5.055  15.520  0.00  0.00    +0.000 HD
ATOM     18  H   UNL     1       7.356   6.242  15.488  0.00  0.00    +0.000 HD
ENDBRANCH  15  16
ENDBRANCH   1  15
TORSDOF 3
ENDMDL
MODEL 4
REMARK VINA RESULT:      -7.2      1.686      2.014
REMARK  Name = 
REMARK  4 active torsions:
REMARK  status: ('A' for Active; 'I' for Inactive)
REMARK    1  A    between atoms: C_1  and  C_2
REMARK    2  A    between atoms: C_2  and  N_3
REMARK    3  A    between atoms: C_2  and  C_4
REMARK    4  A    between atoms: C_8  and  N_9
REMARK                            x       y       z     vdW  Elec       q    Type
REMARK                         _______ _______ _______ _____ _____    ______ ____
ROOT
ATOM      1  C   UNL     1       6.526   5.323  18.193  0.00  0.00    +0.000 A 
ATOM      2  C   UNL     1       6.360   5.285  16.797  0.00  0.00    +0.000 A 
ATOM      3  C   UNL     1       5.155   4.872  16.232  0.00  0.00    +0.000 A 
ATOM      4  C   UNL     1       4.107   4.474  17.054  0.00  0.00    +0.000 A 
ATOM      5  C   UNL     1       4.268   4.461  18.439  0.00  0.00    +0.000 A 
ATOM      6  C   UNL     1       5.457   4.912  19.012  0.00  0.00    +0.000 A 
ENDROOT
BRANCH   5   7
ATOM      7  N   UNL     1       3.159   4.014  19.211  0.00  0.00    +0.000 N 
ATOM      8  C   UNL     1       1.788   4.429  18.895  0.00  0.00    +0.000 C 
ATOM      9  C   UNL     1       1.021   3.965  20.136  0.00  0.00    +0.000 C 
ATOM     10  C   UNL     1       1.500   2.547  20.464  0.00  0.00    +0.000 C 
ATOM     11  S   UNL     1       3.141   2.402  19.758  0.00  0.00    +0.000 S 
ATOM     12  O   UNL     1       3.060   1.525  18.608  0.00  0.00    +0.000 OA
ATOM     13  O   UNL     1       4.127   2.238  20.800  0.00  0.00    +0.000 OA
ENDBRANCH   5   7
BRANCH   1  15
ATOM     14  C   UNL     1       8.110   7.278  18.459  0.00  0.00    +0.000 C 
ATOM     15  C   UNL     1       7.845   5.804  18.771  0.00  0.00    +0.000 C 
BRANCH  15  16
ATOM     16  N   UNL     1       7.903   5.560  20.214  0.00  0.00    +0.000 NA
ATOM     17  H   UNL     1       6.961   5.410  20.568  0.00  0.00    +0.000 HD
ATOM     18  H   UNL     1       8.246   6.399  20.678  0.00  0.00    +0.000 HD
ENDBRANCH  15  16
ENDBRANCH   1  15
TORSDOF 3
ENDMDL
MODEL 5
REMARK VINA RESULT:      -7.1      1.763      2.056
REMARK  Name = 
REMARK  4 active torsions:
REMARK  status: ('A' for Active; 'I' for Inactive)
REMARK    1  A    between atoms: C_1  and  C_2
REMARK    2  A    between atoms: C_2  and  N_3
REMARK    3  A    between atoms: C_2  and  C_4
REMARK    4  A    between atoms: C_8  and  N_9
REMARK                            x       y       z     vdW  Elec       q    Type
REMARK                         _______ _______ _______ _____ _____    ______ ____
ROOT
ATOM      1  C   UNL     1       6.170   5.844  18.438  0.00  0.00    +0.000 A 
ATOM      2  C   UNL     1       5.686   6.659  17.399  0.00  0.00    +0.000 A 
ATOM      3  C   UNL     1       4.336   6.652  17.056  0.00  0.00    +0.000 A 
ATOM      4  C   UNL     1       3.455   5.816  17.732  0.00  0.00    +0.000 A 
ATOM      5  C   UNL     1       3.924   4.966  18.733  0.00  0.00    +0.000 A 
ATOM      6  C   UNL     1       5.266   4.998  19.109  0.00  0.00    +0.000 A 
ENDROOT
BRANCH   5   7
ATOM      7  N   UNL     1       2.965   4.121  19.359  0.00  0.00    +0.000 N 
ATOM      8  C   UNL     1       1.718   4.655  19.914  0.00  0.00    +0.000 C 
ATOM      9  C   UNL     1       1.191   3.464  20.718  0.00  0.00    +0.000 C 
ATOM     10  C   UNL     1       1.347   2.217  19.841  0.00  0.00    +0.000 C 
ATOM     11  S   UNL     1       2.663   2.588  18.683  0.00  0.00    +0.000 S 
ATOM     12  O   UNL     1       2.071   2.770  17.374  0.00  0.00    +0.000 OA
ATOM     13  O   UNL     1       3.800   1.728  18.916  0.00  0.00    +0.000 OA
ENDBRANCH   5   7
BRANCH   1  15
ATOM     14  C   UNL     1       8.251   7.278  18.539  0.00  0.00    +0.000 C 
ATOM     15  C   UNL     1       7.643   5.899  18.801  0.00  0.00    +0.000 C 
BRANCH  15  16
ATOM     16  N   UNL     1       7.855   5.493  20.192  0.00  0.00    +0.000 NA
ATOM     17  H   UNL     1       7.182   4.771  20.438  0.00  0.00    +0.000 HD
ATOM     18  H   UNL     1       7.652   6.283  20.801  0.00  0.00    +0.000 HD
ENDBRANCH  15  16
ENDBRANCH   1  15
TORSDOF 3
ENDMDL
MODEL 6
REMARK VINA RESULT:      -7.1      2.367      3.284
REMARK  Name = 
REMARK  4 active torsions:
REMARK  status: ('A' for Active; 'I' for Inactive)
REMARK    1  A    between atoms: C_1  and  C_2
REMARK    2  A    between atoms: C_2  and  N_3
REMARK    3  A    between atoms: C_2  and  C_4
REMARK    4  A    between atoms: C_8  and  N_9
REMARK                            x       y       z     vdW  Elec       q    Type
REMARK                         _______ _______ _______ _____ _____    ______ ____
ROOT
ATOM      1  C   UNL     1       6.422   4.606  16.452  0.00  0.00    +0.000 A 
ATOM      2  C   UNL     1       7.272   5.304  17.329  0.00  0.00    +0.000 A 
ATOM      3  C   UNL     1       6.918   5.500  18.662  0.00  0.00    +0.000 A 
ATOM      4  C   UNL     1       5.701   5.019  19.131  0.00  0.00    +0.000 A 
ATOM      5  C   UNL     1       4.824   4.367  18.266  0.00  0.00    +0.000 A 
ATOM      6  C   UNL     1       5.191   4.131  16.942  0.00  0.00    +0.000 A 
ENDROOT
BRANCH   5   7
ATOM      7  N   UNL     1       3.586   3.929  18.815  0.00  0.00    +0.000 N 
ATOM      8  C   UNL     1       2.303   4.341  18.239  0.00  0.00    +0.000 C 
ATOM      9  C   UNL     1       1.311   3.891  19.315  0.00  0.00    +0.000 C 
ATOM     10  C   UNL     1       1.715   2.475  19.742  0.00  0.00    +0.000 C 
ATOM     11  S   UNL     1       3.460   2.323  19.365  0.00  0.00    +0.000 S 
ATOM     12  O   UNL     1       3.598   1.434  18.230  0.00  0.00    +0.000 OA
ATOM     13  O   UNL     1       4.228   2.169  20.579  0.00  0.00    +0.000 OA
ENDBRANCH   5   7
BRANCH   1  15
ATOM     14  C   UNL     1       5.665   4.172  14.077  0.00  0.00    +0.000 C 
ATOM     15  C   UNL     1       6.856   4.390  15.013  0.00  0.00    +0.000 C 
BRANCH  15  16
ATOM     16  N   UNL     1       7.687   5.501  14.546  0.00  0.00    +0.000 NA
ATOM     17  H   UNL     1       7.554   6.302  15.158  0.00  0.00    +0.000 HD
ATOM     18  H   UNL     1       7.361   5.794  13.627  0.00  0.00    +0.000 HD
ENDBRANCH  15  16
ENDBRANCH   1  15
TORSDOF 3
ENDMDL
MODEL 7
REMARK VINA RESULT:      -7.1      1.821      2.151
REMARK  Name = 
REMARK  4 active torsions:
REMARK  status: ('A' for Active; 'I' for Inactive)
REMARK    1  A    between atoms: C_1  and  C_2
REMARK    2  A    between atoms: C_2  and  N_3
REMARK    3  A    between atoms: C_2  and  C_4
REMARK    4  A    between atoms: C_8  and  N_9
REMARK                            x       y       z     vdW  Elec       q    Type
REMARK                         _______ _______ _______ _____ _____    ______ ____
ROOT
ATOM      1  C   UNL     1       6.024   5.763  17.964  0.00  0.00    +0.000 A 
ATOM      2  C   UNL     1       5.519   6.868  17.255  0.00  0.00    +0.000 A 
ATOM      3  C   UNL     1       4.152   7.136  17.230  0.00  0.00    +0.000 A 
ATOM      4  C   UNL     1       3.270   6.291  17.894  0.00  0.00    +0.000 A 
ATOM      5  C   UNL     1       3.747   5.164  18.562  0.00  0.00    +0.000 A 
ATOM      6  C   UNL     1       5.117   4.914  18.626  0.00  0.00    +0.000 A 
ENDROOT
BRANCH   5   7
ATOM      7  N   UNL     1       2.779   4.335  19.193  0.00  0.00    +0.000 N 
ATOM      8  C   UNL     1       1.893   4.851  20.241  0.00  0.00    +0.000 C 
ATOM      9  C   UNL     1       1.278   3.565  20.801  0.00  0.00    +0.000 C 
ATOM     10  C   UNL     1       0.878   2.694  19.605  0.00  0.00    +0.000 C 
ATOM     11  S   UNL     1       1.923   3.210  18.244  0.00  0.00    +0.000 S 
ATOM     12  O   UNL     1       1.102   3.935  17.297  0.00  0.00    +0.000 OA
ATOM     13  O   UNL     1       2.810   2.139  17.853  0.00  0.00    +0.000 OA
ENDBRANCH   5   7
BRANCH   1  15
ATOM     14  C   UNL     1       8.096   5.599  19.406  0.00  0.00    +0.000 C 
ATOM     15  C   UNL     1       7.523   5.520  17.990  0.00  0.00    +0.000 C 
BRANCH  15  16
ATOM     16  N   UNL     1       7.855   4.237  17.366  0.00  0.00    +0.000 NA
ATOM     17  H   UNL     1       8.603   3.791  17.891  0.00  0.00    +0.000 HD
ATOM     18  H   UNL     1       8.230   4.410  16.436  0.00  0.00    +0.000 HD
ENDBRANCH  15  16
ENDBRANCH   1  15
TORSDOF 3
ENDMDL
MODEL 8
REMARK VINA RESULT:      -7.0      2.000      2.966
REMARK  Name = 
REMARK  4 active torsions:
REMARK  status: ('A' for Active; 'I' for Inactive)
REMARK    1  A    between atoms: C_1  and  C_2
REMARK    2  A    between atoms: C_2  and  N_3
REMARK    3  A    between atoms: C_2  and  C_4
REMARK    4  A    between atoms: C_8  and  N_9
REMARK                            x       y       z     vdW  Elec       q    Type
REMARK                         _______ _______ _______ _____ _____    ______ ____
ROOT
ATOM      1  C   UNL     1       6.304   4.600  16.663  0.00  0.00    +0.000 A 
ATOM      2  C   UNL     1       7.144   5.292  17.554  0.00  0.00    +0.000 A 
ATOM      3  C   UNL     1       6.762   5.505  18.877  0.00  0.00    +0.000 A 
ATOM      4  C   UNL     1       5.526   5.048  19.320  0.00  0.00    +0.000 A 
ATOM      5  C   UNL     1       4.659   4.402  18.440  0.00  0.00    +0.000 A 
ATOM      6  C   UNL     1       5.054   4.149  17.127  0.00  0.00    +0.000 A 
ENDROOT
BRANCH   5   7
ATOM      7  N   UNL     1       3.403   3.988  18.963  0.00  0.00    +0.000 N 
ATOM      8  C   UNL     1       2.427   4.957  19.472  0.00  0.00    +0.000 C 
ATOM      9  C   UNL     1       1.417   4.051  20.180  0.00  0.00    +0.000 C 
ATOM     10  C   UNL     1       1.137   2.867  19.249  0.00  0.00    +0.000 C 
ATOM     11  S   UNL     1       2.575   2.717  18.190  0.00  0.00    +0.000 S 
ATOM     12  O   UNL     1       2.200   3.152  16.860  0.00  0.00    +0.000 OA
ATOM     13  O   UNL     1       3.262   1.473  18.443  0.00  0.00    +0.000 OA
ENDBRANCH   5   7
BRANCH   1  15
ATOM     14  C   UNL     1       5.595   4.219  14.264  0.00  0.00    +0.000 C 
ATOM     15  C   UNL     1       6.768   4.365  15.236  0.00  0.00    +0.000 C 
BRANCH  15  16
ATOM     16  N   UNL     1       7.675   5.428  14.800  0.00  0.00    +0.000 NA
ATOM     17  H   UNL     1       7.817   6.084  15.564  0.00  0.00    +0.000 HD
ATOM     18  H   UNL     1       7.230   5.958  14.053  0.00  0.00    +0.000 HD
ENDBRANCH  15  16
ENDBRANCH   1  15
TORSDOF 3
ENDMDL
MODEL 9
REMARK VINA RESULT:      -6.9      1.484      1.726
REMARK  Name = 
REMARK  4 active torsions:
REMARK  status: ('A' for Active; 'I' for Inactive)
REMARK    1  A    between atoms: C_1  and  C_2
REMARK    2  A    between atoms: C_2  and  N_3
REMARK    3  A    between atoms: C_2  and  C_4
REMARK    4  A    between atoms: C_8  and  N_9
REMARK                            x       y       z     vdW  Elec       q    Type
REMARK                         _______ _______ _______ _____ _____    ______ ____
ROOT
ATOM      1  C   UNL     1       6.664   4.936  17.956  0.00  0.00    +0.000 A 
ATOM      2  C   UNL     1       6.834   4.701  16.580  0.00  0.00    +0.000 A 
ATOM      3  C   UNL     1       5.823   4.107  15.827  0.00  0.00    +0.000 A 
ATOM      4  C   UNL     1       4.638   3.722  16.443  0.00  0.00    +0.000 A 
ATOM      5  C   UNL     1       4.469   3.903  17.815  0.00  0.00    +0.000 A 
ATOM      6  C   UNL     1       5.460   4.535  18.566  0.00  0.00    +0.000 A 
ENDROOT
BRANCH   5   7
ATOM      7  N   UNL     1       3.240   3.458  18.376  0.00  0.00    +0.000 N 
ATOM      8  C   UNL     1       2.488   2.344  17.789  0.00  0.00    +0.000 C 
ATOM      9  C   UNL     1       1.148   2.443  18.523  0.00  0.00    +0.000 C 
ATOM     10  C   UNL     1       1.457   2.662  20.008  0.00  0.00    +0.000 C 
ATOM     11  S   UNL     1       3.089   3.401  20.070  0.00  0.00    +0.000 S 
ATOM     12  O   UNL     1       4.011   2.409  20.583  0.00  0.00    +0.000 OA
ATOM     13  O   UNL     1       3.015   4.746  20.592  0.00  0.00    +0.000 OA
ENDBRANCH   5   7
BRANCH   1  15
ATOM     14  C   UNL     1       7.964   7.073  18.333  0.00  0.00    +0.000 C 
ATOM     15  C   UNL     1       7.778   5.610  18.738  0.00  0.00    +0.000 C 
BRANCH  15  16
ATOM     16  N   UNL     1       7.549   5.494  20.179  0.00  0.00    +0.000 NA
ATOM     17  H   UNL     1       7.469   6.424  20.583  0.00  0.00    +0.000 HD
ATOM     18  H   UNL     1       8.368   5.070  20.611  0.00  0.00    +0.000 HD
ENDBRANCH  15  16
ENDBRANCH   1  15
TORSDOF 3
ENDMDL
