MODEL 1
REMARK VINA RESULT:      -7.9      0.000      0.000
REMARK  Name = 
REMARK  5 active torsions:
REMARK  status: ('A' for Active; 'I' for Inactive)
REMARK    1  A    between atoms: C_1  and  C_2
REMARK    2  A    between atoms: C_6  and  N_7
REMARK    3  A    between atoms: C_8  and  C_10
REMARK    4  A    between atoms: C_10  and  S_11
REMARK    5  A    between atoms: S_11  and  C_12
REMARK                            x       y       z     vdW  Elec       q    Type
REMARK                         _______ _______ _______ _____ _____    ______ ____
ROOT
ATOM      1  C   UNL     1       2.512   3.500  21.490  0.00  0.00    +0.000 C 
ENDROOT
BRANCH   1   3
ATOM      2  N   UNL     1       2.607   5.747  20.524  0.00  0.00    +0.000 N 
ATOM      3  C   UNL     1       1.822   4.610  20.702  0.00  0.00    +0.000 C 
ATOM      4  O   UNL     1       0.678   4.451  20.282  0.00  0.00    +0.000 OA
ATOM      5  H   UNL     1       3.463   5.785  21.067  0.00  0.00    +0.000 HD
BRANCH   2  11
ATOM      6  C   UNL     1       0.384  10.156  20.772  0.00  0.00    +0.000 C 
ATOM      7  C   UNL     1       1.133   9.118  19.987  0.00  0.00    +0.000 A 
ATOM      8  C   UNL     1       1.383   9.313  18.625  0.00  0.00    +0.000 A 
ATOM      9  C   UNL     1       2.059   8.344  17.892  0.00  0.00    +0.000 A 
ATOM     10  C   UNL     1       2.480   7.164  18.507  0.00  0.00    +0.000 A 
ATOM     11  C   UNL     1       2.232   6.936  19.860  0.00  0.00    +0.000 A 
ATOM     12  C   UNL     1       1.572   7.931  20.601  0.00  0.00    +0.000 A 
ENDBRANCH   2  11
ENDBRANCH   1   3
BRANCH   1  13
ATOM     13  S   UNL     1       4.002   3.003  20.603  0.00  0.00    +0.000 S 
BRANCH  13  14
ATOM     14  C   UNL     1       3.460   2.820  18.968  0.00  0.00    +0.000 A 
ATOM     15  N   UNL     1       2.437   2.093  18.574  0.00  0.00    +0.000 NA
ATOM     16  N   UNL     1       2.241   2.338  17.234  0.00  0.00    +0.000 NA
ATOM     17  C   UNL     1       3.137   3.221  16.857  0.00  0.00    +0.000 A 
ATOM     18  N   UNL     1       3.950   3.564  17.912  0.00  0.00    +0.000 N 
ATOM     19  C   UNL     1       5.023   4.493  17.901  0.00  0.00    +0.000 A 
ATOM     20  C   UNL     1       5.020   5.548  17.000  0.00  0.00    +0.000 A 
ATOM     21  C   UNL     1       6.047   6.490  17.084  0.00  0.00    +0.000 A 
ATOM     22  C   UNL     1       7.060   6.329  18.024  0.00  0.00    +0.000 A 
ATOM     23  C   UNL     1       7.007   5.230  18.854  0.00  0.00    +0.000 A 
ATOM     24  N   UNL     1       6.012   4.323  18.813  0.00  0.00    +0.000 NA
ENDBRANCH  13  14
ENDBRANCH   1  13
TORSDOF 4
ENDMDL
MODEL 2
REMARK VINA RESULT:      -7.5      3.502      6.929
REMARK  Name = 
REMARK  5 active torsions:
REMARK  status: ('A' for Active; 'I' for Inactive)
REMARK    1  A    between atoms: C_1  and  C_2
REMARK    2  A    between atoms: C_6  and  N_7
REMARK    3  A    between atoms: C_8  and  C_10
REMARK    4  A    between atoms: C_10  and  S_11
REMARK    5  A    between atoms: S_11  and  C_12
REMARK                            x       y       z     vdW  Elec       q    Type
REMARK                         _______ _______ _______ _____ _____    ______ ____
ROOT
ATOM      1  C   UNL     1       7.035   5.547  18.317  0.00  0.00    +0.000 C 
ENDROOT
BRANCH   1   3
ATOM      2  N   UNL     1       6.879   4.715  16.020  0.00  0.00    +0.000 N 
ATOM      3  C   UNL     1       7.216   5.802  16.823  0.00  0.00    +0.000 C 
ATOM      4  O   UNL     1       7.621   6.893  16.426  0.00  0.00    +0.000 OA
ATOM      5  H   UNL     1       6.718   3.838  16.505  0.00  0.00    +0.000 HD
BRANCH   2  11
ATOM      6  C   UNL     1       5.332   2.595  11.829  0.00  0.00    +0.000 C 
ATOM      7  C   UNL     1       6.195   3.598  12.539  0.00  0.00    +0.000 A 
ATOM      8  C   UNL     1       7.097   4.385  11.817  0.00  0.00    +0.000 A 
ATOM      9  C   UNL     1       7.912   5.300  12.476  0.00  0.00    +0.000 A 
ATOM     10  C   UNL     1       7.845   5.429  13.864  0.00  0.00    +0.000 A 
ATOM     11  C   UNL     1       6.964   4.647  14.611  0.00  0.00    +0.000 A 
ATOM     12  C   UNL     1       6.126   3.744  13.937  0.00  0.00    +0.000 A 
ENDBRANCH   2  11
ENDBRANCH   1   3
BRANCH   1  13
ATOM     13  S   UNL     1       5.505   4.624  18.563  0.00  0.00    +0.000 S 
BRANCH  13  14
ATOM     14  C   UNL     1       4.273   5.833  18.420  0.00  0.00    +0.000 A 
ATOM     15  N   UNL     1       4.351   6.928  17.694  0.00  0.00    +0.000 NA
ATOM     16  N   UNL     1       3.117   7.537  17.721  0.00  0.00    +0.000 NA
ATOM     17  C   UNL     1       2.320   6.786  18.446  0.00  0.00    +0.000 A 
ATOM     18  N   UNL     1       2.997   5.689  18.927  0.00  0.00    +0.000 N 
ATOM     19  C   UNL     1       2.474   4.646  19.735  0.00  0.00    +0.000 A 
ATOM     20  C   UNL     1       1.125   4.326  19.669  0.00  0.00    +0.000 A 
ATOM     21  C   UNL     1       0.670   3.234  20.412  0.00  0.00    +0.000 A 
ATOM     22  C   UNL     1       1.554   2.531  21.223  0.00  0.00    +0.000 A 
ATOM     23  C   UNL     1       2.870   2.942  21.260  0.00  0.00    +0.000 A 
ATOM     24  N   UNL     1       3.339   3.972  20.531  0.00  0.00    +0.000 NA
ENDBRANCH  13  14
ENDBRANCH   1  13
TORSDOF 4
ENDMDL
MODEL 3
REMARK VINA RESULT:      -7.5      5.015      7.227
REMARK  Name = 
REMARK  5 active torsions:
REMARK  status: ('A' for Active; 'I' for Inactive)
REMARK    1  A    between atoms: C_1  and  C_2
REMARK    2  A    between atoms: C_6  and  N_7
REMARK    3  A    between atoms: C_8  and  C_10
REMARK    4  A    between atoms: C_10  and  S_11
REMARK    5  A    between atoms: S_11  and  C_12
REMARK                            x       y       z     vdW  Elec       q    Type
REMARK                         _______ _______ _______ _____ _____    ______ ____
ROOT
ATOM      1  C   UNL     1       8.091   7.521  18.083  0.00  0.00    +0.000 C 
ENDROOT
BRANCH   1   3
ATOM      2  N   UNL     1       9.259   9.306  19.284  0.00  0.00    +0.000 N 
ATOM      3  C   UNL     1       8.327   9.014  18.289  0.00  0.00    +0.000 C 
ATOM      4  O   UNL     1       7.724   9.837  17.603  0.00  0.00    +0.000 OA
ATOM      5  H   UNL     1       9.544   8.525  19.866  0.00  0.00    +0.000 HD
BRANCH   2  11
ATOM      6  C   UNL     1      12.065  13.296  18.479  0.00  0.00    +0.000 C 
ATOM      7  C   UNL     1      11.050  12.564  19.310  0.00  0.00    +0.000 A 
ATOM      8  C   UNL     1      10.581  13.126  20.501  0.00  0.00    +0.000 A 
ATOM      9  C   UNL     1       9.656  12.440  21.282  0.00  0.00    +0.000 A 
ATOM     10  C   UNL     1       9.201  11.181  20.888  0.00  0.00    +0.000 A 
ATOM     11  C   UNL     1       9.662  10.590  19.712  0.00  0.00    +0.000 A 
ATOM     12  C   UNL     1      10.576  11.299  18.915  0.00  0.00    +0.000 A 
ENDBRANCH   2  11
ENDBRANCH   1   3
BRANCH   1  13
ATOM     13  S   UNL     1       6.381   7.274  17.564  0.00  0.00    +0.000 S 
BRANCH  13  14
ATOM     14  C   UNL     1       6.488   5.986  16.410  0.00  0.00    +0.000 A 
ATOM     15  N   UNL     1       7.517   5.738  15.628  0.00  0.00    +0.000 NA
ATOM     16  N   UNL     1       7.274   4.547  14.982  0.00  0.00    +0.000 NA
ATOM     17  C   UNL     1       6.114   4.097  15.403  0.00  0.00    +0.000 A 
ATOM     18  N   UNL     1       5.558   4.971  16.309  0.00  0.00    +0.000 N 
ATOM     19  C   UNL     1       4.321   4.826  16.991  0.00  0.00    +0.000 A 
ATOM     20  C   UNL     1       3.811   3.560  17.243  0.00  0.00    +0.000 A 
ATOM     21  C   UNL     1       2.639   3.460  17.997  0.00  0.00    +0.000 A 
ATOM     22  C   UNL     1       1.995   4.614  18.432  0.00  0.00    +0.000 A 
ATOM     23  C   UNL     1       2.550   5.832  18.102  0.00  0.00    +0.000 A 
ATOM     24  N   UNL     1       3.693   5.955  17.402  0.00  0.00    +0.000 NA
ENDBRANCH  13  14
ENDBRANCH   1  13
TORSDOF 4
ENDMDL
MODEL 4
REMARK VINA RESULT:      -7.5      4.876      6.955
REMARK  Name = 
REMARK  5 active torsions:
REMARK  status: ('A' for Active; 'I' for Inactive)
REMARK    1  A    between atoms: C_1  and  C_2
REMARK    2  A    between atoms: C_6  and  N_7
REMARK    3  A    between atoms: C_8  and  C_10
REMARK    4  A    between atoms: C_10  and  S_11
REMARK    5  A    between atoms: S_11  and  C_12
REMARK                            x       y       z     vdW  Elec       q    Type
REMARK                         _______ _______ _______ _____ _____    ______ ____
ROOT
ATOM      1  C   UNL     1       7.280   8.017  17.302  0.00  0.00    +0.000 C 
ENDROOT
BRANCH   1   3
ATOM      2  N   UNL     1       8.556   9.996  17.970  0.00  0.00    +0.000 N 
ATOM      3  C   UNL     1       8.318   8.647  18.226  0.00  0.00    +0.000 C 
ATOM      4  O   UNL     1       8.855   7.974  19.103  0.00  0.00    +0.000 OA
ATOM      5  H   UNL     1       8.156  10.362  17.113  0.00  0.00    +0.000 HD
BRANCH   2  11
ATOM      6  C   UNL     1       9.616  12.660  21.999  0.00  0.00    +0.000 C 
ATOM      7  C   UNL     1       9.997  12.148  20.638  0.00  0.00    +0.000 A 
ATOM      8  C   UNL     1      11.196  12.553  20.047  0.00  0.00    +0.000 A 
ATOM      9  C   UNL     1      11.541  12.096  18.779  0.00  0.00    +0.000 A 
ATOM     10  C   UNL     1      10.684  11.242  18.083  0.00  0.00    +0.000 A 
ATOM     11  C   UNL     1       9.474  10.833  18.643  0.00  0.00    +0.000 A 
ATOM     12  C   UNL     1       9.145  11.277  19.934  0.00  0.00    +0.000 A 
ENDBRANCH   2  11
ENDBRANCH   1   3
BRANCH   1  13
ATOM     13  S   UNL     1       7.051   6.293  17.782  0.00  0.00    +0.000 S 
BRANCH  13  14
ATOM     14  C   UNL     1       6.625   5.511  16.297  0.00  0.00    +0.000 A 
ATOM     15  N   UNL     1       7.437   5.281  15.288  0.00  0.00    +0.000 NA
ATOM     16  N   UNL     1       6.762   4.504  14.374  0.00  0.00    +0.000 NA
ATOM     17  C   UNL     1       5.566   4.268  14.862  0.00  0.00    +0.000 A 
ATOM     18  N   UNL     1       5.412   4.887  16.081  0.00  0.00    +0.000 N 
ATOM     19  C   UNL     1       4.267   4.856  16.920  0.00  0.00    +0.000 A 
ATOM     20  C   UNL     1       3.402   3.771  16.875  0.00  0.00    +0.000 A 
ATOM     21  C   UNL     1       2.340   3.736  17.781  0.00  0.00    +0.000 A 
ATOM     22  C   UNL     1       2.147   4.794  18.663  0.00  0.00    +0.000 A 
ATOM     23  C   UNL     1       3.031   5.852  18.612  0.00  0.00    +0.000 A 
ATOM     24  N   UNL     1       4.079   5.895  17.769  0.00  0.00    +0.000 NA
ENDBRANCH  13  14
ENDBRANCH   1  13
TORSDOF 4
ENDMDL
MODEL 5
REMARK VINA RESULT:      -7.4      1.753      2.978
REMARK  Name = 
REMARK  5 active torsions:
REMARK  status: ('A' for Active; 'I' for Inactive)
REMARK    1  A    between atoms: C_1  and  C_2
REMARK    2  A    between atoms: C_6  and  N_7
REMARK    3  A    between atoms: C_8  and  C_10
REMARK    4  A    between atoms: C_10  and  S_11
REMARK    5  A    between atoms: S_11  and  C_12
REMARK                            x       y       z     vdW  Elec       q    Type
REMARK                         _______ _______ _______ _____ _____    ______ ____
ROOT
ATOM      1  C   UNL     1       3.357   3.534  20.060  0.00  0.00    +0.000 C 
ENDROOT
BRANCH   1   3
ATOM      2  N   UNL     1       2.982   5.939  19.795  0.00  0.00    +0.000 N 
ATOM      3  C   UNL     1       2.386   4.679  19.785  0.00  0.00    +0.000 C 
ATOM      4  O   UNL     1       1.198   4.446  19.575  0.00  0.00    +0.000 OA
ATOM      5  H   UNL     1       3.934   5.976  20.143  0.00  0.00    +0.000 HD
BRANCH   2  11
ATOM      6  C   UNL     1       0.171   9.543  21.681  0.00  0.00    +0.000 C 
ATOM      7  C   UNL     1       0.947   8.962  20.533  0.00  0.00    +0.000 A 
ATOM      8  C   UNL     1       0.962   9.612  19.296  0.00  0.00    +0.000 A 
ATOM      9  C   UNL     1       1.664   9.065  18.227  0.00  0.00    +0.000 A 
ATOM     10  C   UNL     1       2.346   7.857  18.378  0.00  0.00    +0.000 A 
ATOM     11  C   UNL     1       2.336   7.179  19.597  0.00  0.00    +0.000 A 
ATOM     12  C   UNL     1       1.647   7.750  20.680  0.00  0.00    +0.000 A 
ENDBRANCH   2  11
ENDBRANCH   1   3
BRANCH   1  13
ATOM     13  S   UNL     1       4.393   3.294  18.604  0.00  0.00    +0.000 S 
BRANCH  13  14
ATOM     14  C   UNL     1       5.682   4.429  18.831  0.00  0.00    +0.000 A 
ATOM     15  N   UNL     1       6.178   4.809  19.989  0.00  0.00    +0.000 NA
ATOM     16  N   UNL     1       7.283   5.589  19.737  0.00  0.00    +0.000 NA
ATOM     17  C   UNL     1       7.439   5.645  18.434  0.00  0.00    +0.000 A 
ATOM     18  N   UNL     1       6.448   4.934  17.799  0.00  0.00    +0.000 N 
ATOM     19  C   UNL     1       6.286   4.751  16.400  0.00  0.00    +0.000 A 
ATOM     20  C   UNL     1       7.391   4.796  15.561  0.00  0.00    +0.000 A 
ATOM     21  C   UNL     1       7.200   4.520  14.205  0.00  0.00    +0.000 A 
ATOM     22  C   UNL     1       5.922   4.257  13.725  0.00  0.00    +0.000 A 
ATOM     23  C   UNL     1       4.874   4.272  14.622  0.00  0.00    +0.000 A 
ATOM     24  N   UNL     1       5.036   4.505  15.938  0.00  0.00    +0.000 NA
ENDBRANCH  13  14
ENDBRANCH   1  13
TORSDOF 4
ENDMDL
MODEL 6
REMARK VINA RESULT:      -7.4      4.435      6.450
REMARK  Name = 
REMARK  5 active torsions:
REMARK  status: ('A' for Active; 'I' for Inactive)
REMARK    1  A    between atoms: C_1  and  C_2
REMARK    2  A    between atoms: C_6  and  N_7
REMARK    3  A    between atoms: C_8  and  C_10
REMARK    4  A    between atoms: C_10  and  S_11
REMARK    5  A    between atoms: S_11  and  C_12
REMARK                            x       y       z     vdW  Elec       q    Type
REMARK                         _______ _______ _______ _____ _____    ______ ____
ROOT
ATOM      1  C   UNL     1       8.159   6.502  18.651  0.00  0.00    +0.000 C 
ENDROOT
BRANCH   1   3
ATOM      2  N   UNL     1       8.946   8.762  19.165  0.00  0.00    +0.000 N 
ATOM      3  C   UNL     1       8.190   7.984  18.291  0.00  0.00    +0.000 C 
ATOM      4  O   UNL     1       7.587   8.393  17.301  0.00  0.00    +0.000 OA
ATOM      5  H   UNL     1       9.246   8.304  20.020  0.00  0.00    +0.000 HD
BRANCH   2  11
ATOM      6  C   UNL     1       9.733  12.996  21.594  0.00  0.00    +0.000 C 
ATOM      7  C   UNL     1       9.530  12.253  20.304  0.00  0.00    +0.000 A 
ATOM      8  C   UNL     1       9.470  12.950  19.094  0.00  0.00    +0.000 A 
ATOM      9  C   UNL     1       9.262  12.265  17.901  0.00  0.00    +0.000 A 
ATOM     10  C   UNL     1       9.098  10.880  17.906  0.00  0.00    +0.000 A 
ATOM     11  C   UNL     1       9.138  10.160  19.100  0.00  0.00    +0.000 A 
ATOM     12  C   UNL     1       9.375  10.855  20.298  0.00  0.00    +0.000 A 
ENDBRANCH   2  11
ENDBRANCH   1   3
BRANCH   1  13
ATOM     13  S   UNL     1       6.448   5.932  18.604  0.00  0.00    +0.000 S 
BRANCH  13  14
ATOM     14  C   UNL     1       6.323   5.150  17.063  0.00  0.00    +0.000 A 
ATOM     15  N   UNL     1       7.308   4.971  16.209  0.00  0.00    +0.000 NA
ATOM     16  N   UNL     1       6.839   4.175  15.189  0.00  0.00    +0.000 NA
ATOM     17  C   UNL     1       5.590   3.878  15.461  0.00  0.00    +0.000 A 
ATOM     18  N   UNL     1       5.197   4.473  16.638  0.00  0.00    +0.000 N 
ATOM     19  C   UNL     1       3.928   4.377  17.266  0.00  0.00    +0.000 A 
ATOM     20  C   UNL     1       3.137   3.253  17.067  0.00  0.00    +0.000 A 
ATOM     21  C   UNL     1       1.938   3.157  17.775  0.00  0.00    +0.000 A 
ATOM     22  C   UNL     1       1.545   4.194  18.615  0.00  0.00    +0.000 A 
ATOM     23  C   UNL     1       2.371   5.292  18.724  0.00  0.00    +0.000 A 
ATOM     24  N   UNL     1       3.546   5.395  18.075  0.00  0.00    +0.000 NA
ENDBRANCH  13  14
ENDBRANCH   1  13
TORSDOF 4
ENDMDL
MODEL 7
REMARK VINA RESULT:      -7.3      0.696      1.444
REMARK  Name = 
REMARK  5 active torsions:
REMARK  status: ('A' for Active; 'I' for Inactive)
REMARK    1  A    between atoms: C_1  and  C_2
REMARK    2  A    between atoms: C_6  and  N_7
REMARK    3  A    between atoms: C_8  and  C_10
REMARK    4  A    between atoms: C_10  and  S_11
REMARK    5  A    between atoms: S_11  and  C_12
REMARK                            x       y       z     vdW  Elec       q    Type
REMARK                         _______ _______ _______ _____ _____    ______ ____
ROOT
ATOM      1  C   UNL     1       2.600   3.033  21.151  0.00  0.00    +0.000 C 
ENDROOT
BRANCH   1   3
ATOM      2  N   UNL     1       2.473   5.446  20.754  0.00  0.00    +0.000 N 
ATOM      3  C   UNL     1       1.768   4.244  20.738  0.00  0.00    +0.000 C 
ATOM      4  O   UNL     1       0.588   4.105  20.423  0.00  0.00    +0.000 OA
ATOM      5  H   UNL     1       3.389   5.416  21.191  0.00  0.00    +0.000 HD
BRANCH   2  11
ATOM      6  C   UNL     1       2.304   9.226  17.572  0.00  0.00    +0.000 C 
ATOM      7  C   UNL     1       1.881   8.595  18.868  0.00  0.00    +0.000 A 
ATOM      8  C   UNL     1       1.062   9.297  19.756  0.00  0.00    +0.000 A 
ATOM      9  C   UNL     1       0.686   8.721  20.966  0.00  0.00    +0.000 A 
ATOM     10  C   UNL     1       1.135   7.444  21.306  0.00  0.00    +0.000 A 
ATOM     11  C   UNL     1       1.965   6.727  20.445  0.00  0.00    +0.000 A 
ATOM     12  C   UNL     1       2.319   7.303  19.214  0.00  0.00    +0.000 A 
ENDBRANCH   2  11
ENDBRANCH   1   3
BRANCH   1  13
ATOM     13  S   UNL     1       4.142   3.046  20.214  0.00  0.00    +0.000 S 
BRANCH  13  14
ATOM     14  C   UNL     1       3.616   3.175  18.568  0.00  0.00    +0.000 A 
ATOM     15  N   UNL     1       2.549   2.602  18.054  0.00  0.00    +0.000 NA
ATOM     16  N   UNL     1       2.394   3.077  16.772  0.00  0.00    +0.000 NA
ATOM     17  C   UNL     1       3.360   3.939  16.550  0.00  0.00    +0.000 A 
ATOM     18  N   UNL     1       4.177   4.041  17.652  0.00  0.00    +0.000 N 
ATOM     19  C   UNL     1       5.317   4.876  17.799  0.00  0.00    +0.000 A 
ATOM     20  C   UNL     1       5.407   6.061  17.083  0.00  0.00    +0.000 A 
ATOM     21  C   UNL     1       6.500   6.897  17.326  0.00  0.00    +0.000 A 
ATOM     22  C   UNL     1       7.481   6.507  18.231  0.00  0.00    +0.000 A 
ATOM     23  C   UNL     1       7.333   5.294  18.870  0.00  0.00    +0.000 A 
ATOM     24  N   UNL     1       6.274   4.485  18.675  0.00  0.00    +0.000 NA
ENDBRANCH  13  14
ENDBRANCH   1  13
TORSDOF 4
ENDMDL
MODEL 8
REMARK VINA RESULT:      -7.3      3.421      6.862
REMARK  Name = 
REMARK  5 active torsions:
REMARK  status: ('A' for Active; 'I' for Inactive)
REMARK    1  A    between atoms: C_1  and  C_2
REMARK    2  A    between atoms: C_6  and  N_7
REMARK    3  A    between atoms: C_8  and  C_10
REMARK    4  A    between atoms: C_10  and  S_11
REMARK    5  A    between atoms: S_11  and  C_12
REMARK                            x       y       z     vdW  Elec       q    Type
REMARK                         _______ _______ _______ _____ _____    ______ ____
ROOT
ATOM      1  C   UNL     1       5.854   4.482  18.342  0.00  0.00    +0.000 C 
ENDROOT
BRANCH   1   3
ATOM      2  N   UNL     1       5.851   4.408  15.895  0.00  0.00    +0.000 N 
ATOM      3  C   UNL     1       6.643   4.517  17.037  0.00  0.00    +0.000 C 
ATOM      4  O   UNL     1       7.866   4.637  17.055  0.00  0.00    +0.000 OA
ATOM      5  H   UNL     1       4.881   4.153  16.052  0.00  0.00    +0.000 HD
BRANCH   2  11
ATOM      6  C   UNL     1       5.478   2.406  11.390  0.00  0.00    +0.000 C 
ATOM      7  C   UNL     1       6.110   3.396  12.327  0.00  0.00    +0.000 A 
ATOM      8  C   UNL     1       7.153   4.215  11.885  0.00  0.00    +0.000 A 
ATOM      9  C   UNL     1       7.753   5.117  12.757  0.00  0.00    +0.000 A 
ATOM     10  C   UNL     1       7.327   5.202  14.083  0.00  0.00    +0.000 A 
ATOM     11  C   UNL     1       6.298   4.386  14.556  0.00  0.00    +0.000 A 
ATOM     12  C   UNL     1       5.680   3.496  13.663  0.00  0.00    +0.000 A 
ENDBRANCH   2  11
ENDBRANCH   1   3
BRANCH   1  13
ATOM     13  S   UNL     1       4.727   5.890  18.373  0.00  0.00    +0.000 S 
BRANCH  13  14
ATOM     14  C   UNL     1       3.456   5.370  19.428  0.00  0.00    +0.000 A 
ATOM     15  N   UNL     1       3.433   4.243  20.108  0.00  0.00    +0.000 NA
ATOM     16  N   UNL     1       2.338   4.279  20.941  0.00  0.00    +0.000 NA
ATOM     17  C   UNL     1       1.738   5.432  20.758  0.00  0.00    +0.000 A 
ATOM     18  N   UNL     1       2.395   6.172  19.802  0.00  0.00    +0.000 N 
ATOM     19  C   UNL     1       2.058   7.471  19.341  0.00  0.00    +0.000 A 
ATOM     20  C   UNL     1       1.380   8.350  20.175  0.00  0.00    +0.000 A 
ATOM     21  C   UNL     1       1.149   9.649  19.715  0.00  0.00    +0.000 A 
ATOM     22  C   UNL     1       1.555  10.013  18.436  0.00  0.00    +0.000 A 
ATOM     23  C   UNL     1       2.186   9.065  17.659  0.00  0.00    +0.000 A 
ATOM     24  N   UNL     1       2.447   7.816  18.089  0.00  0.00    +0.000 NA
ENDBRANCH  13  14
ENDBRANCH   1  13
TORSDOF 4
ENDMDL
MODEL 9
REMARK VINA RESULT:      -7.2      2.313      3.398
REMARK  Name = 
REMARK  5 active torsions:
REMARK  status: ('A' for Active; 'I' for Inactive)
REMARK    1  A    between atoms: C_1  and  C_2
REMARK    2  A    between atoms: C_6  and  N_7
REMARK    3  A    between atoms: C_8  and  C_10
REMARK    4  A    between atoms: C_10  and  S_11
REMARK    5  A    between atoms: S_11  and  C_12
REMARK                            x       y       z     vdW  Elec       q    Type
REMARK                         _______ _______ _______ _____ _____    ______ ____
ROOT
ATOM      1  C   UNL     1       2.934   7.662  17.904  0.00  0.00    +0.000 C 
ENDROOT
BRANCH   1   3
ATOM      2  N   UNL     1       1.400   8.868  19.384  0.00  0.00    +0.000 N 
ATOM      3  C   UNL     1       2.107   8.914  18.184  0.00  0.00    +0.000 C 
ATOM      4  O   UNL     1       2.111   9.849  17.385  0.00  0.00    +0.000 OA
ATOM      5  H   UNL     1       1.374   7.966  19.848  0.00  0.00    +0.000 HD
BRANCH   2  11
ATOM      6  C   UNL     1      -2.590  11.703  18.691  0.00  0.00    +0.000 C 
ATOM      7  C   UNL     1      -1.439  11.263  19.550  0.00  0.00    +0.000 A 
ATOM      8  C   UNL     1      -1.207  11.878  20.783  0.00  0.00    +0.000 A 
ATOM      9  C   UNL     1      -0.129  11.484  21.570  0.00  0.00    +0.000 A 
ATOM     10  C   UNL     1       0.736  10.483  21.127  0.00  0.00    +0.000 A 
ATOM     11  C   UNL     1       0.537   9.863  19.894  0.00  0.00    +0.000 A 
ATOM     12  C   UNL     1      -0.568  10.246  19.116  0.00  0.00    +0.000 A 
ENDBRANCH   2  11
ENDBRANCH   1   3
BRANCH   1  13
ATOM     13  S   UNL     1       2.666   6.483  19.243  0.00  0.00    +0.000 S 
BRANCH  13  14
ATOM     14  C   UNL     1       2.558   4.959  18.426  0.00  0.00    +0.000 A 
ATOM     15  N   UNL     1       1.445   4.365  18.050  0.00  0.00    +0.000 NA
ATOM     16  N   UNL     1       1.790   3.265  17.299  0.00  0.00    +0.000 NA
ATOM     17  C   UNL     1       3.101   3.232  17.224  0.00  0.00    +0.000 A 
ATOM     18  N   UNL     1       3.651   4.279  17.927  0.00  0.00    +0.000 N 
ATOM     19  C   UNL     1       5.030   4.586  18.069  0.00  0.00    +0.000 A 
ATOM     20  C   UNL     1       5.931   4.208  17.084  0.00  0.00    +0.000 A 
ATOM     21  C   UNL     1       7.262   4.610  17.219  0.00  0.00    +0.000 A 
ATOM     22  C   UNL     1       7.658   5.329  18.341  0.00  0.00    +0.000 A 
ATOM     23  C   UNL     1       6.705   5.628  19.291  0.00  0.00    +0.000 A 
ATOM     24  N   UNL     1       5.410   5.278  19.171  0.00  0.00    +0.000 NA
ENDBRANCH  13  14
ENDBRANCH   1  13
TORSDOF 4
ENDMDL
