MODEL 1
REMARK VINA RESULT:      -7.9      0.000      0.000
REMARK  Name = 
REMARK  7 active torsions:
REMARK  status: ('A' for Active; 'I' for Inactive)
REMARK    1  A    between atoms: C_1  and  O_2
REMARK    2  A    between atoms: O_2  and  C_3
REMARK    3  A    between atoms: C_7  and  O_8
REMARK    4  A    between atoms: O_8  and  C_9
REMARK    5  A    between atoms: C_9  and  C_10
REMARK    6  A    between atoms: C_10  and  C_11
REMARK    7  A    between atoms: C_18  and  C_19
REMARK                            x       y       z     vdW  Elec       q    Type
REMARK                         _______ _______ _______ _____ _____    ______ ____
ROOT
ATOM      1  C   UNL     1       5.644   4.516  15.681  0.00  0.00    +0.000 C 
ATOM      2  C   UNL     1       6.333   3.949  16.919  0.00  0.00    +0.000 C 
ATOM      3  C   UNL     1       5.139   3.225  16.341  0.00  0.00    +0.000 C 
ENDROOT
BRANCH   3   4
ATOM      4  C   UNL     1       3.891   3.177  17.188  0.00  0.00    +0.000 C 
ATOM      5  O   UNL     1       2.856   3.712  16.804  0.00  0.00    +0.000 OA
ATOM      6  N   UNL     1       4.063   2.625  18.437  0.00  0.00    +0.000 N 
ATOM      7  C   UNL     1       3.066   2.655  19.417  0.00  0.00    +0.000 A 
ATOM      8  C   UNL     1       1.729   2.396  19.133  0.00  0.00    +0.000 A 
ATOM      9  C   UNL     1       0.792   2.499  20.160  0.00  0.00    +0.000 A 
ATOM     10  C   UNL     1       1.217   2.884  21.425  0.00  0.00    +0.000 A 
ATOM     11  C   UNL     1       2.570   3.103  21.618  0.00  0.00    +0.000 A 
ATOM     12  N   UNL     1       3.508   2.954  20.657  0.00  0.00    +0.000 NA
ATOM     13  H   UNL     1       4.997   2.605  18.818  0.00  0.00    +0.000 HD
ENDBRANCH   3   4
BRANCH   1  14
ATOM     14  C   UNL     1       6.455   4.501  14.341  0.00  0.00    +0.000 A 
ATOM     15  C   UNL     1       7.503   5.390  14.056  0.00  0.00    +0.000 A 
ATOM     16  C   UNL     1       8.055   5.502  12.772  0.00  0.00    +0.000 A 
ATOM     17  C   UNL     1       7.591   4.705  11.729  0.00  0.00    +0.000 A 
ATOM     18  C   UNL     1       6.624   3.754  11.984  0.00  0.00    +0.000 A 
ATOM     19  C   UNL     1       6.088   3.650  13.271  0.00  0.00    +0.000 A 
ENDBRANCH   1  14
BRANCH   1  20
ATOM     20  C   UNL     1       4.848   5.800  15.906  0.00  0.00    +0.000 C 
BRANCH  20  21
ATOM     21  O   UNL     1       5.073   6.263  17.244  0.00  0.00    +0.000 OA
BRANCH  21  26
ATOM     22  C   UNL     1       2.287   8.541  18.113  0.00  0.00    +0.000 A 
ATOM     23  C   UNL     1       1.858   7.922  19.287  0.00  0.00    +0.000 A 
ATOM     24  C   UNL     1       2.480   6.758  19.741  0.00  0.00    +0.000 A 
ATOM     25  C   UNL     1       3.551   6.219  19.026  0.00  0.00    +0.000 A 
ATOM     26  C   UNL     1       3.994   6.840  17.859  0.00  0.00    +0.000 A 
ATOM     27  C   UNL     1       3.350   7.990  17.401  0.00  0.00    +0.000 A 
BRANCH  22  29
ATOM     28  C   UNL     1       0.420   9.961  18.484  0.00  0.00    +0.000 C 
ATOM     29  O   UNL     1       1.613   9.680  17.758  0.00  0.00    +0.000 OA
ENDBRANCH  22  29
ENDBRANCH  21  26
ENDBRANCH  20  21
ENDBRANCH   1  20
TORSDOF 6
ENDMDL
MODEL 2
REMARK VINA RESULT:      -7.8      1.981      6.566
REMARK  Name = 
REMARK  7 active torsions:
REMARK  status: ('A' for Active; 'I' for Inactive)
REMARK    1  A    between atoms: C_1  and  O_2
REMARK    2  A    between atoms: O_2  and  C_3
REMARK    3  A    between atoms: C_7  and  O_8
REMARK    4  A    between atoms: O_8  and  C_9
REMARK    5  A    between atoms: C_9  and  C_10
REMARK    6  A    between atoms: C_10  and  C_11
REMARK    7  A    between atoms: C_18  and  C_19
REMARK                            x       y       z     vdW  Elec       q    Type
REMARK                         _______ _______ _______ _____ _____    ______ ____
ROOT
ATOM      1  C   UNL     1       3.094   4.339  17.989  0.00  0.00    +0.000 C 
ATOM      2  C   UNL     1       2.691   3.514  16.768  0.00  0.00    +0.000 C 
ATOM      3  C   UNL     1       4.149   3.590  17.161  0.00  0.00    +0.000 C 
ENDROOT
BRANCH   3   4
ATOM      4  C   UNL     1       5.080   4.291  16.202  0.00  0.00    +0.000 C 
ATOM      5  O   UNL     1       5.203   5.511  16.232  0.00  0.00    +0.000 OA
ATOM      6  N   UNL     1       5.639   3.478  15.243  0.00  0.00    +0.000 N 
ATOM      7  C   UNL     1       6.385   3.980  14.172  0.00  0.00    +0.000 A 
ATOM      8  C   UNL     1       7.329   4.991  14.325  0.00  0.00    +0.000 A 
ATOM      9  C   UNL     1       7.990   5.469  13.195  0.00  0.00    +0.000 A 
ATOM     10  C   UNL     1       7.667   4.944  11.951  0.00  0.00    +0.000 A 
ATOM     11  C   UNL     1       6.729   3.927  11.897  0.00  0.00    +0.000 A 
ATOM     12  N   UNL     1       6.115   3.403  12.982  0.00  0.00    +0.000 NA
ATOM     13  H   UNL     1       5.171   2.609  15.032  0.00  0.00    +0.000 HD
ENDBRANCH   3   4
BRANCH   1  14
ATOM     14  C   UNL     1       2.620   3.823  19.389  0.00  0.00    +0.000 A 
ATOM     15  C   UNL     1       3.476   3.229  20.330  0.00  0.00    +0.000 A 
ATOM     16  C   UNL     1       2.988   2.577  21.471  0.00  0.00    +0.000 A 
ATOM     17  C   UNL     1       1.619   2.518  21.725  0.00  0.00    +0.000 A 
ATOM     18  C   UNL     1       0.747   3.166  20.874  0.00  0.00    +0.000 A 
ATOM     19  C   UNL     1       1.249   3.818  19.743  0.00  0.00    +0.000 A 
ENDBRANCH   1  14
BRANCH   1  20
ATOM     20  C   UNL     1       2.986   5.853  17.819  0.00  0.00    +0.000 C 
BRANCH  20  21
ATOM     21  O   UNL     1       2.936   6.468  19.113  0.00  0.00    +0.000 OA
BRANCH  21  26
ATOM     22  C   UNL     1       0.875   9.293  20.332  0.00  0.00    +0.000 A 
ATOM     23  C   UNL     1       0.723   9.985  19.131  0.00  0.00    +0.000 A 
ATOM     24  C   UNL     1       1.328   9.517  17.963  0.00  0.00    +0.000 A 
ATOM     25  C   UNL     1       2.075   8.338  17.992  0.00  0.00    +0.000 A 
ATOM     26  C   UNL     1       2.220   7.632  19.186  0.00  0.00    +0.000 A 
ATOM     27  C   UNL     1       1.631   8.122  20.353  0.00  0.00    +0.000 A 
BRANCH  22  29
ATOM     28  C   UNL     1       0.618   9.322  22.692  0.00  0.00    +0.000 C 
ATOM     29  O   UNL     1       0.238   9.833  21.417  0.00  0.00    +0.000 OA
ENDBRANCH  22  29
ENDBRANCH  21  26
ENDBRANCH  20  21
ENDBRANCH   1  20
TORSDOF 6
ENDMDL
MODEL 3
REMARK VINA RESULT:      -7.8      5.724      9.444
REMARK  Name = 
REMARK  7 active torsions:
REMARK  status: ('A' for Active; 'I' for Inactive)
REMARK    1  A    between atoms: C_1  and  O_2
REMARK    2  A    between atoms: O_2  and  C_3
REMARK    3  A    between atoms: C_7  and  O_8
REMARK    4  A    between atoms: O_8  and  C_9
REMARK    5  A    between atoms: C_9  and  C_10
REMARK    6  A    between atoms: C_10  and  C_11
REMARK    7  A    between atoms: C_18  and  C_19
REMARK                            x       y       z     vdW  Elec       q    Type
REMARK                         _______ _______ _______ _____ _____    ______ ____
ROOT
ATOM      1  C   UNL     1       0.269   9.986  20.123  0.00  0.00    +0.000 C 
ATOM      2  C   UNL     1       0.691  11.434  20.361  0.00  0.00    +0.000 C 
ATOM      3  C   UNL     1       0.399  10.544  21.548  0.00  0.00    +0.000 C 
ENDROOT
BRANCH   3   4
ATOM      4  C   UNL     1      -0.796  10.902  22.395  0.00  0.00    +0.000 C 
ATOM      5  O   UNL     1      -1.147  10.175  23.318  0.00  0.00    +0.000 OA
ATOM      6  N   UNL     1      -1.505  11.998  21.958  0.00  0.00    +0.000 N 
ATOM      7  C   UNL     1      -2.733  12.371  22.514  0.00  0.00    +0.000 A 
ATOM      8  C   UNL     1      -2.968  12.363  23.885  0.00  0.00    +0.000 A 
ATOM      9  C   UNL     1      -4.238  12.700  24.350  0.00  0.00    +0.000 A 
ATOM     10  C   UNL     1      -5.234  13.004  23.433  0.00  0.00    +0.000 A 
ATOM     11  C   UNL     1      -4.903  13.005  22.088  0.00  0.00    +0.000 A 
ATOM     12  N   UNL     1      -3.667  12.740  21.612  0.00  0.00    +0.000 NA
ATOM     13  H   UNL     1      -1.405  12.268  20.991  0.00  0.00    +0.000 HD
ENDBRANCH   3   4
BRANCH   1  14
ATOM     14  C   UNL     1       1.339   9.021  19.509  0.00  0.00    +0.000 A 
ATOM     15  C   UNL     1       1.872   9.171  18.219  0.00  0.00    +0.000 A 
ATOM     16  C   UNL     1       2.650   8.174  17.615  0.00  0.00    +0.000 A 
ATOM     17  C   UNL     1       2.945   6.995  18.296  0.00  0.00    +0.000 A 
ATOM     18  C   UNL     1       2.517   6.843  19.598  0.00  0.00    +0.000 A 
ATOM     19  C   UNL     1       1.747   7.849  20.190  0.00  0.00    +0.000 A 
ENDBRANCH   1  14
BRANCH   1  20
ATOM     20  C   UNL     1      -1.133   9.800  19.547  0.00  0.00    +0.000 C 
BRANCH  20  21
ATOM     21  O   UNL     1      -1.625  11.067  19.090  0.00  0.00    +0.000 OA
BRANCH  21  26
ATOM     22  C   UNL     1      -2.938  10.576  15.662  0.00  0.00    +0.000 A 
ATOM     23  C   UNL     1      -4.225  11.080  15.849  0.00  0.00    +0.000 A 
ATOM     24  C   UNL     1      -4.631  11.538  17.104  0.00  0.00    +0.000 A 
ATOM     25  C   UNL     1      -3.737  11.510  18.175  0.00  0.00    +0.000 A 
ATOM     26  C   UNL     1      -2.444  11.022  17.994  0.00  0.00    +0.000 A 
ATOM     27  C   UNL     1      -2.056  10.543  16.741  0.00  0.00    +0.000 A 
BRANCH  22  29
ATOM     28  C   UNL     1      -3.743   9.971  13.512  0.00  0.00    +0.000 C 
ATOM     29  O   UNL     1      -2.638  10.158  14.393  0.00  0.00    +0.000 OA
ENDBRANCH  22  29
ENDBRANCH  21  26
ENDBRANCH  20  21
ENDBRANCH   1  20
TORSDOF 6
ENDMDL
MODEL 4
REMARK VINA RESULT:      -7.7      1.786      6.442
REMARK  Name = 
REMARK  7 active torsions:
REMARK  status: ('A' for Active; 'I' for Inactive)
REMARK    1  A    between atoms: C_1  and  O_2
REMARK    2  A    between atoms: O_2  and  C_3
REMARK    3  A    between atoms: C_7  and  O_8
REMARK    4  A    between atoms: O_8  and  C_9
REMARK    5  A    between atoms: C_9  and  C_10
REMARK    6  A    between atoms: C_10  and  C_11
REMARK    7  A    between atoms: C_18  and  C_19
REMARK                            x       y       z     vdW  Elec       q    Type
REMARK                         _______ _______ _______ _____ _____    ______ ____
ROOT
ATOM      1  C   UNL     1       3.029   4.363  17.992  0.00  0.00    +0.000 C 
ATOM      2  C   UNL     1       2.635   3.539  16.768  0.00  0.00    +0.000 C 
ATOM      3  C   UNL     1       4.090   3.618  17.170  0.00  0.00    +0.000 C 
ENDROOT
BRANCH   3   4
ATOM      4  C   UNL     1       5.025   4.321  16.218  0.00  0.00    +0.000 C 
ATOM      5  O   UNL     1       5.136   5.543  16.241  0.00  0.00    +0.000 OA
ATOM      6  N   UNL     1       5.604   3.508  15.271  0.00  0.00    +0.000 N 
ATOM      7  C   UNL     1       6.357   4.010  14.205  0.00  0.00    +0.000 A 
ATOM      8  C   UNL     1       7.290   5.031  14.363  0.00  0.00    +0.000 A 
ATOM      9  C   UNL     1       7.959   5.508  13.237  0.00  0.00    +0.000 A 
ATOM     10  C   UNL     1       7.656   4.971  11.993  0.00  0.00    +0.000 A 
ATOM     11  C   UNL     1       6.729   3.945  11.935  0.00  0.00    +0.000 A 
ATOM     12  N   UNL     1       6.108   3.423  13.016  0.00  0.00    +0.000 NA
ATOM     13  H   UNL     1       5.147   2.633  15.060  0.00  0.00    +0.000 HD
ENDBRANCH   3   4
BRANCH   1  14
ATOM     14  C   UNL     1       2.546   3.845  19.389  0.00  0.00    +0.000 A 
ATOM     15  C   UNL     1       3.406   3.300  20.355  0.00  0.00    +0.000 A 
ATOM     16  C   UNL     1       2.922   2.642  21.494  0.00  0.00    +0.000 A 
ATOM     17  C   UNL     1       1.552   2.529  21.720  0.00  0.00    +0.000 A 
ATOM     18  C   UNL     1       0.672   3.128  20.843  0.00  0.00    +0.000 A 
ATOM     19  C   UNL     1       1.170   3.787  19.715  0.00  0.00    +0.000 A 
ENDBRANCH   1  14
BRANCH   1  20
ATOM     20  C   UNL     1       2.918   5.877  17.822  0.00  0.00    +0.000 C 
BRANCH  20  21
ATOM     21  O   UNL     1       3.170   6.511  19.084  0.00  0.00    +0.000 OA
BRANCH  21  26
ATOM     22  C   UNL     1       1.066   9.558  19.079  0.00  0.00    +0.000 A 
ATOM     23  C   UNL     1       0.521   9.448  20.358  0.00  0.00    +0.000 A 
ATOM     24  C   UNL     1       0.840   8.359  21.172  0.00  0.00    +0.000 A 
ATOM     25  C   UNL     1       1.725   7.383  20.711  0.00  0.00    +0.000 A 
ATOM     26  C   UNL     1       2.285   7.493  19.438  0.00  0.00    +0.000 A 
ATOM     27  C   UNL     1       1.940   8.573  18.624  0.00  0.00    +0.000 A 
BRANCH  22  29
ATOM     28  C   UNL     1       0.441  11.848  19.119  0.00  0.00    +0.000 C 
ATOM     29  O   UNL     1       0.694  10.666  18.365  0.00  0.00    +0.000 OA
ENDBRANCH  22  29
ENDBRANCH  21  26
ENDBRANCH  20  21
ENDBRANCH   1  20
TORSDOF 6
ENDMDL
MODEL 5
REMARK VINA RESULT:      -7.6      5.698      9.492
REMARK  Name = 
REMARK  7 active torsions:
REMARK  status: ('A' for Active; 'I' for Inactive)
REMARK    1  A    between atoms: C_1  and  O_2
REMARK    2  A    between atoms: O_2  and  C_3
REMARK    3  A    between atoms: C_7  and  O_8
REMARK    4  A    between atoms: O_8  and  C_9
REMARK    5  A    between atoms: C_9  and  C_10
REMARK    6  A    between atoms: C_10  and  C_11
REMARK    7  A    between atoms: C_18  and  C_19
REMARK                            x       y       z     vdW  Elec       q    Type
REMARK                         _______ _______ _______ _____ _____    ______ ____
ROOT
ATOM      1  C   UNL     1       0.337   9.999  20.121  0.00  0.00    +0.000 C 
ATOM      2  C   UNL     1       0.798  11.428  20.399  0.00  0.00    +0.000 C 
ATOM      3  C   UNL     1       0.451  10.523  21.560  0.00  0.00    +0.000 C 
ENDROOT
BRANCH   3   4
ATOM      4  C   UNL     1      -0.753  10.902  22.386  0.00  0.00    +0.000 C 
ATOM      5  O   UNL     1      -1.118  10.192  23.318  0.00  0.00    +0.000 OA
ATOM      6  N   UNL     1      -1.451  11.993  21.923  0.00  0.00    +0.000 N 
ATOM      7  C   UNL     1      -2.683  12.382  22.457  0.00  0.00    +0.000 A 
ATOM      8  C   UNL     1      -2.934  12.399  23.826  0.00  0.00    +0.000 A 
ATOM      9  C   UNL     1      -4.208  12.749  24.270  0.00  0.00    +0.000 A 
ATOM     10  C   UNL     1      -5.192  13.042  23.336  0.00  0.00    +0.000 A 
ATOM     11  C   UNL     1      -4.846  13.018  21.996  0.00  0.00    +0.000 A 
ATOM     12  N   UNL     1      -3.605  12.739  21.538  0.00  0.00    +0.000 NA
ATOM     13  H   UNL     1      -1.339  12.246  20.952  0.00  0.00    +0.000 HD
ENDBRANCH   3   4
BRANCH   1  14
ATOM     14  C   UNL     1       1.390   9.014  19.510  0.00  0.00    +0.000 A 
ATOM     15  C   UNL     1       1.949   9.167  18.232  0.00  0.00    +0.000 A 
ATOM     16  C   UNL     1       2.710   8.156  17.627  0.00  0.00    +0.000 A 
ATOM     17  C   UNL     1       2.961   6.961  18.296  0.00  0.00    +0.000 A 
ATOM     18  C   UNL     1       2.507   6.803  19.589  0.00  0.00    +0.000 A 
ATOM     19  C   UNL     1       1.755   7.822  20.182  0.00  0.00    +0.000 A 
ENDBRANCH   1  14
BRANCH   1  20
ATOM     20  C   UNL     1      -1.057   9.870  19.509  0.00  0.00    +0.000 C 
BRANCH  20  21
ATOM     21  O   UNL     1      -1.459  11.142  18.983  0.00  0.00    +0.000 OA
BRANCH  21  26
ATOM     22  C   UNL     1      -4.596  11.434  17.038  0.00  0.00    +0.000 A 
ATOM     23  C   UNL     1      -4.167  10.855  15.844  0.00  0.00    +0.000 A 
ATOM     24  C   UNL     1      -2.849  10.413  15.706  0.00  0.00    +0.000 A 
ATOM     25  C   UNL     1      -1.961  10.533  16.776  0.00  0.00    +0.000 A 
ATOM     26  C   UNL     1      -2.387  11.098  17.977  0.00  0.00    +0.000 A 
ATOM     27  C   UNL     1      -3.699  11.559  18.097  0.00  0.00    +0.000 A 
BRANCH  22  29
ATOM     28  C   UNL     1      -6.186  13.035  17.779  0.00  0.00    +0.000 C 
ATOM     29  O   UNL     1      -5.907  11.829  17.072  0.00  0.00    +0.000 OA
ENDBRANCH  22  29
ENDBRANCH  21  26
ENDBRANCH  20  21
ENDBRANCH   1  20
TORSDOF 6
ENDMDL
MODEL 6
REMARK VINA RESULT:      -7.6      4.028      8.928
REMARK  Name = 
REMARK  7 active torsions:
REMARK  status: ('A' for Active; 'I' for Inactive)
REMARK    1  A    between atoms: C_1  and  O_2
REMARK    2  A    between atoms: O_2  and  C_3
REMARK    3  A    between atoms: C_7  and  O_8
REMARK    4  A    between atoms: O_8  and  C_9
REMARK    5  A    between atoms: C_9  and  C_10
REMARK    6  A    between atoms: C_10  and  C_11
REMARK    7  A    between atoms: C_18  and  C_19
REMARK                            x       y       z     vdW  Elec       q    Type
REMARK                         _______ _______ _______ _____ _____    ______ ____
ROOT
ATOM      1  C   UNL     1      -0.152  10.114  20.977  0.00  0.00    +0.000 C 
ATOM      2  C   UNL     1      -0.248   8.990  22.007  0.00  0.00    +0.000 C 
ATOM      3  C   UNL     1       1.080   9.272  21.341  0.00  0.00    +0.000 C 
ENDROOT
BRANCH   3   4
ATOM      4  C   UNL     1       1.632   8.201  20.433  0.00  0.00    +0.000 C 
ATOM      5  O   UNL     1       1.908   8.455  19.265  0.00  0.00    +0.000 OA
ATOM      6  N   UNL     1       1.657   6.939  20.980  0.00  0.00    +0.000 N 
ATOM      7  C   UNL     1       1.972   5.800  20.231  0.00  0.00    +0.000 A 
ATOM      8  C   UNL     1       3.017   5.773  19.312  0.00  0.00    +0.000 A 
ATOM      9  C   UNL     1       3.228   4.612  18.570  0.00  0.00    +0.000 A 
ATOM     10  C   UNL     1       2.374   3.532  18.748  0.00  0.00    +0.000 A 
ATOM     11  C   UNL     1       1.373   3.643  19.699  0.00  0.00    +0.000 A 
ATOM     12  N   UNL     1       1.181   4.733  20.474  0.00  0.00    +0.000 NA
ATOM     13  H   UNL     1       1.040   6.749  21.755  0.00  0.00    +0.000 HD
ENDBRANCH   3   4
BRANCH   1  14
ATOM     14  C   UNL     1      -0.340  11.579  21.498  0.00  0.00    +0.000 A 
ATOM     15  C   UNL     1       0.484  12.650  21.120  0.00  0.00    +0.000 A 
ATOM     16  C   UNL     1       0.435  13.891  21.770  0.00  0.00    +0.000 A 
ATOM     17  C   UNL     1      -0.464  14.112  22.810  0.00  0.00    +0.000 A 
ATOM     18  C   UNL     1      -1.355  13.116  23.155  0.00  0.00    +0.000 A 
ATOM     19  C   UNL     1      -1.299  11.886  22.493  0.00  0.00    +0.000 A 
ENDBRANCH   1  14
BRANCH   1  20
ATOM     20  C   UNL     1      -0.845   9.838  19.644  0.00  0.00    +0.000 C 
BRANCH  20  21
ATOM     21  O   UNL     1      -1.298  11.078  19.085  0.00  0.00    +0.000 OA
BRANCH  21  26
ATOM     22  C   UNL     1      -2.947  10.319  15.858  0.00  0.00    +0.000 A 
ATOM     23  C   UNL     1      -4.184  10.916  16.100  0.00  0.00    +0.000 A 
ATOM     24  C   UNL     1      -4.447  11.525  17.328  0.00  0.00    +0.000 A 
ATOM     25  C   UNL     1      -3.461  11.553  18.315  0.00  0.00    +0.000 A 
ATOM     26  C   UNL     1      -2.217  10.971  18.076  0.00  0.00    +0.000 A 
ATOM     27  C   UNL     1      -1.972  10.343  16.853  0.00  0.00    +0.000 A 
BRANCH  22  29
ATOM     28  C   UNL     1      -3.796  10.051  13.656  0.00  0.00    +0.000 C 
ATOM     29  O   UNL     1      -2.788   9.755  14.620  0.00  0.00    +0.000 OA
ENDBRANCH  22  29
ENDBRANCH  21  26
ENDBRANCH  20  21
ENDBRANCH   1  20
TORSDOF 6
ENDMDL
MODEL 7
REMARK VINA RESULT:      -7.5      3.710      8.849
REMARK  Name = 
REMARK  7 active torsions:
REMARK  status: ('A' for Active; 'I' for Inactive)
REMARK    1  A    between atoms: C_1  and  O_2
REMARK    2  A    between atoms: O_2  and  C_3
REMARK    3  A    between atoms: C_7  and  O_8
REMARK    4  A    between atoms: O_8  and  C_9
REMARK    5  A    between atoms: C_9  and  C_10
REMARK    6  A    between atoms: C_10  and  C_11
REMARK    7  A    between atoms: C_18  and  C_19
REMARK                            x       y       z     vdW  Elec       q    Type
REMARK                         _______ _______ _______ _____ _____    ______ ____
ROOT
ATOM      1  C   UNL     1      -0.057   9.802  21.042  0.00  0.00    +0.000 C 
ATOM      2  C   UNL     1      -0.072   8.569  21.943  0.00  0.00    +0.000 C 
ATOM      3  C   UNL     1       1.210   8.956  21.242  0.00  0.00    +0.000 C 
ENDROOT
BRANCH   3   4
ATOM      4  C   UNL     1       1.729   8.007  20.191  0.00  0.00    +0.000 C 
ATOM      5  O   UNL     1       1.898   8.386  19.037  0.00  0.00    +0.000 OA
ATOM      6  N   UNL     1       1.851   6.700  20.604  0.00  0.00    +0.000 N 
ATOM      7  C   UNL     1       2.149   5.656  19.723  0.00  0.00    +0.000 A 
ATOM      8  C   UNL     1       3.116   5.769  18.728  0.00  0.00    +0.000 A 
ATOM      9  C   UNL     1       3.312   4.697  17.859  0.00  0.00    +0.000 A 
ATOM     10  C   UNL     1       2.522   3.564  17.994  0.00  0.00    +0.000 A 
ATOM     11  C   UNL     1       1.598   3.534  19.025  0.00  0.00    +0.000 A 
ATOM     12  N   UNL     1       1.426   4.533  19.918  0.00  0.00    +0.000 NA
ATOM     13  H   UNL     1       1.308   6.406  21.402  0.00  0.00    +0.000 HD
ENDBRANCH   3   4
BRANCH   1  14
ATOM     14  C   UNL     1      -0.243  11.195  21.733  0.00  0.00    +0.000 A 
ATOM     15  C   UNL     1      -1.210  11.452  22.718  0.00  0.00    +0.000 A 
ATOM     16  C   UNL     1      -1.501  12.753  23.151  0.00  0.00    +0.000 A 
ATOM     17  C   UNL     1      -0.814  13.846  22.630  0.00  0.00    +0.000 A 
ATOM     18  C   UNL     1       0.207  13.632  21.726  0.00  0.00    +0.000 A 
ATOM     19  C   UNL     1       0.491  12.328  21.308  0.00  0.00    +0.000 A 
ENDBRANCH   1  14
BRANCH   1  20
ATOM     20  C   UNL     1      -0.819   9.658  19.727  0.00  0.00    +0.000 C 
BRANCH  20  21
ATOM     21  O   UNL     1      -1.167  10.962  19.240  0.00  0.00    +0.000 OA
BRANCH  21  26
ATOM     22  C   UNL     1      -2.807  10.683  15.933  0.00  0.00    +0.000 A 
ATOM     23  C   UNL     1      -4.063  11.188  16.269  0.00  0.00    +0.000 A 
ATOM     24  C   UNL     1      -4.340  11.579  17.581  0.00  0.00    +0.000 A 
ATOM     25  C   UNL     1      -3.349  11.480  18.559  0.00  0.00    +0.000 A 
ATOM     26  C   UNL     1      -2.087  10.988  18.227  0.00  0.00    +0.000 A 
ATOM     27  C   UNL     1      -1.828  10.578  16.918  0.00  0.00    +0.000 A 
BRANCH  22  29
ATOM     28  C   UNL     1      -3.815   9.974  13.903  0.00  0.00    +0.000 C 
ATOM     29  O   UNL     1      -2.637  10.334  14.619  0.00  0.00    +0.000 OA
ENDBRANCH  22  29
ENDBRANCH  21  26
ENDBRANCH  20  21
ENDBRANCH   1  20
TORSDOF 6
ENDMDL
MODEL 8
REMARK VINA RESULT:      -7.5      0.920      1.389
REMARK  Name = 
REMARK  7 active torsions:
REMARK  status: ('A' for Active; 'I' for Inactive)
REMARK    1  A    between atoms: C_1  and  O_2
REMARK    2  A    between atoms: O_2  and  C_3
REMARK    3  A    between atoms: C_7  and  O_8
REMARK    4  A    between atoms: O_8  and  C_9
REMARK    5  A    between atoms: C_9  and  C_10
REMARK    6  A    between atoms: C_10  and  C_11
REMARK    7  A    between atoms: C_18  and  C_19
REMARK                            x       y       z     vdW  Elec       q    Type
REMARK                         _______ _______ _______ _____ _____    ______ ____
ROOT
ATOM      1  C   UNL     1       5.655   4.508  15.749  0.00  0.00    +0.000 C 
ATOM      2  C   UNL     1       6.328   3.855  16.953  0.00  0.00    +0.000 C 
ATOM      3  C   UNL     1       5.094   3.216  16.359  0.00  0.00    +0.000 C 
ENDROOT
BRANCH   3   4
ATOM      4  C   UNL     1       3.854   3.192  17.219  0.00  0.00    +0.000 C 
ATOM      5  O   UNL     1       2.814   3.709  16.827  0.00  0.00    +0.000 OA
ATOM      6  N   UNL     1       4.040   2.684  18.484  0.00  0.00    +0.000 N 
ATOM      7  C   UNL     1       3.051   2.743  19.471  0.00  0.00    +0.000 A 
ATOM      8  C   UNL     1       1.713   2.468  19.209  0.00  0.00    +0.000 A 
ATOM      9  C   UNL     1       0.785   2.603  20.240  0.00  0.00    +0.000 A 
ATOM     10  C   UNL     1       1.219   3.032  21.487  0.00  0.00    +0.000 A 
ATOM     11  C   UNL     1       2.573   3.263  21.661  0.00  0.00    +0.000 A 
ATOM     12  N   UNL     1       3.503   3.085  20.697  0.00  0.00    +0.000 NA
ATOM     13  H   UNL     1       4.977   2.680  18.857  0.00  0.00    +0.000 HD
ENDBRANCH   3   4
BRANCH   1  14
ATOM     14  C   UNL     1       6.450   4.512  14.399  0.00  0.00    +0.000 A 
ATOM     15  C   UNL     1       7.507   5.394  14.122  0.00  0.00    +0.000 A 
ATOM     16  C   UNL     1       8.045   5.526  12.835  0.00  0.00    +0.000 A 
ATOM     17  C   UNL     1       7.560   4.758  11.779  0.00  0.00    +0.000 A 
ATOM     18  C   UNL     1       6.583   3.815  12.025  0.00  0.00    +0.000 A 
ATOM     19  C   UNL     1       6.060   3.689  13.316  0.00  0.00    +0.000 A 
ENDBRANCH   1  14
BRANCH   1  20
ATOM     20  C   UNL     1       4.925   5.818  16.039  0.00  0.00    +0.000 C 
BRANCH  20  21
ATOM     21  O   UNL     1       5.036   6.118  17.437  0.00  0.00    +0.000 OA
BRANCH  21  26
ATOM     22  C   UNL     1       2.255   7.165  19.646  0.00  0.00    +0.000 A 
ATOM     23  C   UNL     1       1.778   8.242  18.899  0.00  0.00    +0.000 A 
ATOM     24  C   UNL     1       2.403   8.608  17.706  0.00  0.00    +0.000 A 
ATOM     25  C   UNL     1       3.503   7.881  17.247  0.00  0.00    +0.000 A 
ATOM     26  C   UNL     1       3.978   6.795  17.981  0.00  0.00    +0.000 A 
ATOM     27  C   UNL     1       3.360   6.452  19.185  0.00  0.00    +0.000 A 
BRANCH  22  29
ATOM     28  C   UNL     1       0.994   7.999  21.477  0.00  0.00    +0.000 C 
ATOM     29  O   UNL     1       1.568   6.886  20.797  0.00  0.00    +0.000 OA
ENDBRANCH  22  29
ENDBRANCH  21  26
ENDBRANCH  20  21
ENDBRANCH   1  20
TORSDOF 6
ENDMDL
MODEL 9
REMARK VINA RESULT:      -7.4      1.397      2.108
REMARK  Name = 
REMARK  7 active torsions:
REMARK  status: ('A' for Active; 'I' for Inactive)
REMARK    1  A    between atoms: C_1  and  O_2
REMARK    2  A    between atoms: O_2  and  C_3
REMARK    3  A    between atoms: C_7  and  O_8
REMARK    4  A    between atoms: O_8  and  C_9
REMARK    5  A    between atoms: C_9  and  C_10
REMARK    6  A    between atoms: C_10  and  C_11
REMARK    7  A    between atoms: C_18  and  C_19
REMARK                            x       y       z     vdW  Elec       q    Type
REMARK                         _______ _______ _______ _____ _____    ______ ____
ROOT
ATOM      1  C   UNL     1       6.051   5.083  16.267  0.00  0.00    +0.000 C 
ATOM      2  C   UNL     1       7.225   4.794  17.200  0.00  0.00    +0.000 C 
ATOM      3  C   UNL     1       6.004   3.903  17.250  0.00  0.00    +0.000 C 
ENDROOT
BRANCH   3   4
ATOM      4  C   UNL     1       5.187   3.931  18.518  0.00  0.00    +0.000 C 
ATOM      5  O   UNL     1       5.708   4.226  19.589  0.00  0.00    +0.000 OA
ATOM      6  N   UNL     1       3.896   3.476  18.383  0.00  0.00    +0.000 N 
ATOM      7  C   UNL     1       3.052   3.268  19.478  0.00  0.00    +0.000 A 
ATOM      8  C   UNL     1       2.966   4.165  20.538  0.00  0.00    +0.000 A 
ATOM      9  C   UNL     1       2.138   3.853  21.615  0.00  0.00    +0.000 A 
ATOM     10  C   UNL     1       1.449   2.648  21.611  0.00  0.00    +0.000 A 
ATOM     11  C   UNL     1       1.581   1.827  20.504  0.00  0.00    +0.000 A 
ATOM     12  N   UNL     1       2.329   2.129  19.421  0.00  0.00    +0.000 NA
ATOM     13  H   UNL     1       3.689   2.875  17.599  0.00  0.00    +0.000 HD
ENDBRANCH   3   4
BRANCH   1  14
ATOM     14  C   UNL     1       6.289   4.876  14.733  0.00  0.00    +0.000 A 
ATOM     15  C   UNL     1       5.487   4.054  13.926  0.00  0.00    +0.000 A 
ATOM     16  C   UNL     1       5.855   3.711  12.617  0.00  0.00    +0.000 A 
ATOM     17  C   UNL     1       7.032   4.204  12.059  0.00  0.00    +0.000 A 
ATOM     18  C   UNL     1       7.805   5.087  12.785  0.00  0.00    +0.000 A 
ATOM     19  C   UNL     1       7.422   5.425  14.086  0.00  0.00    +0.000 A 
ENDBRANCH   1  14
BRANCH   1  20
ATOM     20  C   UNL     1       5.241   6.334  16.604  0.00  0.00    +0.000 C 
BRANCH  20  21
ATOM     21  O   UNL     1       3.929   5.944  17.030  0.00  0.00    +0.000 OA
BRANCH  21  26
ATOM     22  C   UNL     1       2.014   7.687  19.677  0.00  0.00    +0.000 A 
ATOM     23  C   UNL     1       1.769   8.888  19.012  0.00  0.00    +0.000 A 
ATOM     24  C   UNL     1       2.266   9.099  17.724  0.00  0.00    +0.000 A 
ATOM     25  C   UNL     1       2.997   8.094  17.089  0.00  0.00    +0.000 A 
ATOM     26  C   UNL     1       3.235   6.885  17.742  0.00  0.00    +0.000 A 
ATOM     27  C   UNL     1       2.754   6.693  19.038  0.00  0.00    +0.000 A 
BRANCH  22  29
ATOM     28  C   UNL     1       0.912   8.765  21.482  0.00  0.00    +0.000 C 
ATOM     29  O   UNL     1       1.478   7.579  20.933  0.00  0.00    +0.000 OA
ENDBRANCH  22  29
ENDBRANCH  21  26
ENDBRANCH  20  21
ENDBRANCH   1  20
TORSDOF 6
ENDMDL
