MODEL 1
REMARK VINA RESULT:      -8.2      0.000      0.000
REMARK  Name = 
REMARK  6 active torsions:
REMARK  status: ('A' for Active; 'I' for Inactive)
REMARK    1  A    between atoms: C_2  and  O_3
REMARK    2  A    between atoms: C_2  and  C_4
REMARK    3  A    between atoms: C_4  and  C_5
REMARK    4  A    between atoms: C_5  and  O_6
REMARK    5  A    between atoms: C_8  and  C_9
REMARK    6  A    between atoms: C_9  and  C_11
REMARK                            x       y       z     vdW  Elec       q    Type
REMARK                         _______ _______ _______ _____ _____    ______ ____
ROOT
ATOM      1  C   UNL     1       4.857   5.642  17.655  0.00  0.00    +0.000 C 
ATOM      2  C   UNL     1       4.055   6.922  17.390  0.00  0.00    +0.000 C 
ATOM      3  C   UNL     1       2.951   7.068  18.430  0.00  0.00    +0.000 C 
ATOM      4  O   UNL     1       2.014   5.992  18.337  0.00  0.00    +0.000 OA
ATOM      5  C   UNL     1       2.542   4.741  18.173  0.00  0.00    +0.000 A 
ATOM      6  C   UNL     1       1.654   3.679  18.374  0.00  0.00    +0.000 A 
ATOM      7  C   UNL     1       2.093   2.362  18.243  0.00  0.00    +0.000 A 
ATOM      8  C   UNL     1       3.409   2.114  17.885  0.00  0.00    +0.000 A 
ATOM      9  F   UNL     1       3.839   0.850  17.772  0.00  0.00    +0.000 F 
ATOM     10  C   UNL     1       4.296   3.161  17.660  0.00  0.00    +0.000 A 
ATOM     11  C   UNL     1       3.874   4.494  17.811  0.00  0.00    +0.000 A 
ENDROOT
BRANCH   1  12
ATOM     12  O   UNL     1       5.682   5.375  16.518  0.00  0.00    +0.000 OA
ATOM     13  H   UNL     1       5.678   6.180  15.962  0.00  0.00    +0.000 HD
ENDBRANCH   1  12
BRANCH   3  14
ATOM     14  C   UNL     1       2.205   8.404  18.278  0.00  0.00    +0.000 C 
ATOM     15  O   UNL     1       2.283   9.096  17.263  0.00  0.00    +0.000 OA
BRANCH  14  16
ATOM     16  C   UNL     1       1.384   8.902  19.423  0.00  0.00    +0.000 A 
ATOM     17  C   UNL     1       1.492   8.355  20.708  0.00  0.00    +0.000 A 
ATOM     18  C   UNL     1       0.648   8.795  21.730  0.00  0.00    +0.000 A 
ATOM     19  C   UNL     1      -0.295   9.791  21.478  0.00  0.00    +0.000 A 
ATOM     20  C   UNL     1      -0.374  10.373  20.214  0.00  0.00    +0.000 A 
ATOM     21  C   UNL     1       0.469   9.936  19.190  0.00  0.00    +0.000 A 
ENDBRANCH  14  16
ENDBRANCH   3  14
BRANCH   1  22
ATOM     22  C   UNL     1       5.740   5.647  18.922  0.00  0.00    +0.000 C 
BRANCH  22  24
ATOM     23  O   UNL     1       7.981   6.528  18.652  0.00  0.00    +0.000 OA
ATOM     24  C   UNL     1       7.216   5.576  18.645  0.00  0.00    +0.000 C 
BRANCH  24  25
ATOM     25  O   UNL     1       7.632   4.318  18.359  0.00  0.00    +0.000 OA
ATOM     26  H   UNL     1       6.906   3.685  18.185  0.00  0.00    +0.000 HD
ENDBRANCH  24  25
ENDBRANCH  22  24
ENDBRANCH   1  22
TORSDOF 6
ENDMDL
MODEL 2
REMARK VINA RESULT:      -8.2      3.630      5.086
REMARK  Name = 
REMARK  6 active torsions:
REMARK  status: ('A' for Active; 'I' for Inactive)
REMARK    1  A    between atoms: C_2  and  O_3
REMARK    2  A    between atoms: C_2  and  C_4
REMARK    3  A    between atoms: C_4  and  C_5
REMARK    4  A    between atoms: C_5  and  O_6
REMARK    5  A    between atoms: C_8  and  C_9
REMARK    6  A    between atoms: C_9  and  C_11
REMARK                            x       y       z     vdW  Elec       q    Type
REMARK                         _______ _______ _______ _____ _____    ______ ____
ROOT
ATOM      1  C   UNL     1       6.203   5.702  16.829  0.00  0.00    +0.000 C 
ATOM      2  C   UNL     1       4.752   5.412  17.232  0.00  0.00    +0.000 C 
ATOM      3  C   UNL     1       4.410   3.959  16.928  0.00  0.00    +0.000 C 
ATOM      4  O   UNL     1       4.487   3.696  15.525  0.00  0.00    +0.000 OA
ATOM      5  C   UNL     1       5.565   4.223  14.869  0.00  0.00    +0.000 A 
ATOM      6  C   UNL     1       5.790   3.727  13.580  0.00  0.00    +0.000 A 
ATOM      7  C   UNL     1       6.869   4.188  12.828  0.00  0.00    +0.000 A 
ATOM      8  C   UNL     1       7.702   5.163  13.357  0.00  0.00    +0.000 A 
ATOM      9  F   UNL     1       8.749   5.599  12.643  0.00  0.00    +0.000 F 
ATOM     10  C   UNL     1       7.477   5.680  14.627  0.00  0.00    +0.000 A 
ATOM     11  C   UNL     1       6.405   5.208  15.407  0.00  0.00    +0.000 A 
ENDROOT
BRANCH   1  12
ATOM     12  O   UNL     1       6.410   7.118  16.846  0.00  0.00    +0.000 OA
ATOM     13  H   UNL     1       6.775   7.346  17.725  0.00  0.00    +0.000 HD
ENDBRANCH   1  12
BRANCH   3  14
ATOM     14  C   UNL     1       3.005   3.593  17.436  0.00  0.00    +0.000 C 
ATOM     15  O   UNL     1       2.067   3.351  16.676  0.00  0.00    +0.000 OA
BRANCH  14  16
ATOM     16  C   UNL     1       2.759   3.568  18.910  0.00  0.00    +0.000 A 
ATOM     17  C   UNL     1       3.469   2.719  19.767  0.00  0.00    +0.000 A 
ATOM     18  C   UNL     1       3.150   2.669  21.126  0.00  0.00    +0.000 A 
ATOM     19  C   UNL     1       2.134   3.476  21.636  0.00  0.00    +0.000 A 
ATOM     20  C   UNL     1       1.456   4.357  20.796  0.00  0.00    +0.000 A 
ATOM     21  C   UNL     1       1.773   4.411  19.437  0.00  0.00    +0.000 A 
ENDBRANCH  14  16
ENDBRANCH   3  14
BRANCH   1  22
ATOM     22  C   UNL     1       7.293   5.029  17.693  0.00  0.00    +0.000 C 
BRANCH  22  24
ATOM     23  O   UNL     1       7.108   5.329  20.091  0.00  0.00    +0.000 OA
ATOM     24  C   UNL     1       7.540   5.707  19.011  0.00  0.00    +0.000 C 
BRANCH  24  25
ATOM     25  O   UNL     1       8.298   6.823  18.889  0.00  0.00    +0.000 OA
ATOM     26  H   UNL     1       9.114   6.699  18.362  0.00  0.00    +0.000 HD
ENDBRANCH  24  25
ENDBRANCH  22  24
ENDBRANCH   1  22
TORSDOF 6
ENDMDL
MODEL 3
REMARK VINA RESULT:      -8.2      3.254      4.539
REMARK  Name = 
REMARK  6 active torsions:
REMARK  status: ('A' for Active; 'I' for Inactive)
REMARK    1  A    between atoms: C_2  and  O_3
REMARK    2  A    between atoms: C_2  and  C_4
REMARK    3  A    between atoms: C_4  and  C_5
REMARK    4  A    between atoms: C_5  and  O_6
REMARK    5  A    between atoms: C_8  and  C_9
REMARK    6  A    between atoms: C_9  and  C_11
REMARK                            x       y       z     vdW  Elec       q    Type
REMARK                         _______ _______ _______ _____ _____    ______ ____
ROOT
ATOM      1  C   UNL     1       6.673   6.173  17.004  0.00  0.00    +0.000 C 
ATOM      2  C   UNL     1       5.333   6.583  17.629  0.00  0.00    +0.000 C 
ATOM      3  C   UNL     1       4.403   5.378  17.701  0.00  0.00    +0.000 C 
ATOM      4  O   UNL     1       4.094   4.891  16.393  0.00  0.00    +0.000 OA
ATOM      5  C   UNL     1       5.138   4.809  15.514  0.00  0.00    +0.000 A 
ATOM      6  C   UNL     1       4.893   4.070  14.352  0.00  0.00    +0.000 A 
ATOM      7  C   UNL     1       5.894   3.912  13.394  0.00  0.00    +0.000 A 
ATOM      8  C   UNL     1       7.125   4.519  13.590  0.00  0.00    +0.000 A 
ATOM      9  F   UNL     1       8.096   4.360  12.680  0.00  0.00    +0.000 F 
ATOM     10  C   UNL     1       7.375   5.276  14.729  0.00  0.00    +0.000 A 
ATOM     11  C   UNL     1       6.381   5.423  15.715  0.00  0.00    +0.000 A 
ENDROOT
BRANCH   1  12
ATOM     12  O   UNL     1       7.409   7.356  16.679  0.00  0.00    +0.000 OA
ATOM     13  H   UNL     1       7.091   8.066  17.273  0.00  0.00    +0.000 HD
ENDBRANCH   1  12
BRANCH   3  14
ATOM     14  C   UNL     1       3.097   5.718  18.438  0.00  0.00    +0.000 C 
ATOM     15  O   UNL     1       2.589   6.838  18.406  0.00  0.00    +0.000 OA
BRANCH  14  16
ATOM     16  C   UNL     1       2.440   4.656  19.259  0.00  0.00    +0.000 A 
ATOM     17  C   UNL     1       1.564   3.719  18.697  0.00  0.00    +0.000 A 
ATOM     18  C   UNL     1       0.909   2.795  19.515  0.00  0.00    +0.000 A 
ATOM     19  C   UNL     1       1.137   2.793  20.890  0.00  0.00    +0.000 A 
ATOM     20  C   UNL     1       2.044   3.691  21.448  0.00  0.00    +0.000 A 
ATOM     21  C   UNL     1       2.702   4.615  20.634  0.00  0.00    +0.000 A 
ENDBRANCH  14  16
ENDBRANCH   3  14
BRANCH   1  22
ATOM     22  C   UNL     1       7.565   5.250  17.863  0.00  0.00    +0.000 C 
BRANCH  22  24
ATOM     23  O   UNL     1       7.607   5.272  20.286  0.00  0.00    +0.000 OA
ATOM     24  C   UNL     1       7.893   5.802  19.223  0.00  0.00    +0.000 C 
BRANCH  24  25
ATOM     25  O   UNL     1       8.542   6.989  19.160  0.00  0.00    +0.000 OA
ATOM     26  H   UNL     1       8.432   7.463  18.311  0.00  0.00    +0.000 HD
ENDBRANCH  24  25
ENDBRANCH  22  24
ENDBRANCH   1  22
TORSDOF 6
ENDMDL
MODEL 4
REMARK VINA RESULT:      -8.2      3.016      6.616
REMARK  Name = 
REMARK  6 active torsions:
REMARK  status: ('A' for Active; 'I' for Inactive)
REMARK    1  A    between atoms: C_2  and  O_3
REMARK    2  A    between atoms: C_2  and  C_4
REMARK    3  A    between atoms: C_4  and  C_5
REMARK    4  A    between atoms: C_5  and  O_6
REMARK    5  A    between atoms: C_8  and  C_9
REMARK    6  A    between atoms: C_9  and  C_11
REMARK                            x       y       z     vdW  Elec       q    Type
REMARK                         _______ _______ _______ _____ _____    ______ ____
ROOT
ATOM      1  C   UNL     1       3.796   5.813  18.471  0.00  0.00    +0.000 C 
ATOM      2  C   UNL     1       5.220   5.576  17.953  0.00  0.00    +0.000 C 
ATOM      3  C   UNL     1       5.177   4.729  16.687  0.00  0.00    +0.000 C 
ATOM      4  O   UNL     1       4.637   3.433  16.956  0.00  0.00    +0.000 OA
ATOM      5  C   UNL     1       3.531   3.392  17.759  0.00  0.00    +0.000 A 
ATOM      6  C   UNL     1       2.844   2.174  17.780  0.00  0.00    +0.000 A 
ATOM      7  C   UNL     1       1.695   2.028  18.557  0.00  0.00    +0.000 A 
ATOM      8  C   UNL     1       1.256   3.091  19.331  0.00  0.00    +0.000 A 
ATOM      9  F   UNL     1       0.146   2.961  20.069  0.00  0.00    +0.000 F 
ATOM     10  C   UNL     1       1.943   4.300  19.338  0.00  0.00    +0.000 A 
ATOM     11  C   UNL     1       3.090   4.469  18.540  0.00  0.00    +0.000 A 
ENDROOT
BRANCH   1  12
ATOM     12  O   UNL     1       3.873   6.348  19.796  0.00  0.00    +0.000 OA
ATOM     13  H   UNL     1       4.791   6.216  20.107  0.00  0.00    +0.000 HD
ENDBRANCH   1  12
BRANCH   3  14
ATOM     14  C   UNL     1       6.574   4.577  16.064  0.00  0.00    +0.000 C 
ATOM     15  O   UNL     1       7.604   4.560  16.738  0.00  0.00    +0.000 OA
BRANCH  14  16
ATOM     16  C   UNL     1       6.690   4.484  14.577  0.00  0.00    +0.000 A 
ATOM     17  C   UNL     1       5.919   3.589  13.826  0.00  0.00    +0.000 A 
ATOM     18  C   UNL     1       6.118   3.478  12.448  0.00  0.00    +0.000 A 
ATOM     19  C   UNL     1       7.074   4.269  11.813  0.00  0.00    +0.000 A 
ATOM     20  C   UNL     1       7.810   5.196  12.548  0.00  0.00    +0.000 A 
ATOM     21  C   UNL     1       7.614   5.311  13.925  0.00  0.00    +0.000 A 
ENDBRANCH  14  16
ENDBRANCH   3  14
BRANCH   1  22
ATOM     22  C   UNL     1       2.908   6.739  17.611  0.00  0.00    +0.000 C 
BRANCH  22  24
ATOM     23  O   UNL     1       1.910   7.968  19.446  0.00  0.00    +0.000 OA
ATOM     24  C   UNL     1       2.412   7.961  18.331  0.00  0.00    +0.000 C 
BRANCH  24  25
ATOM     25  O   UNL     1       2.561   9.092  17.600  0.00  0.00    +0.000 OA
ATOM     26  H   UNL     1       1.720   9.545  17.385  0.00  0.00    +0.000 HD
ENDBRANCH  24  25
ENDBRANCH  22  24
ENDBRANCH   1  22
TORSDOF 6
ENDMDL
MODEL 5
REMARK VINA RESULT:      -8.1      3.600      4.960
REMARK  Name = 
REMARK  6 active torsions:
REMARK  status: ('A' for Active; 'I' for Inactive)
REMARK    1  A    between atoms: C_2  and  O_3
REMARK    2  A    between atoms: C_2  and  C_4
REMARK    3  A    between atoms: C_4  and  C_5
REMARK    4  A    between atoms: C_5  and  O_6
REMARK    5  A    between atoms: C_8  and  C_9
REMARK    6  A    between atoms: C_9  and  C_11
REMARK                            x       y       z     vdW  Elec       q    Type
REMARK                         _______ _______ _______ _____ _____    ______ ____
ROOT
ATOM      1  C   UNL     1       6.355   5.982  16.921  0.00  0.00    +0.000 C 
ATOM      2  C   UNL     1       4.930   6.053  17.483  0.00  0.00    +0.000 C 
ATOM      3  C   UNL     1       4.270   4.682  17.399  0.00  0.00    +0.000 C 
ATOM      4  O   UNL     1       4.134   4.260  16.040  0.00  0.00    +0.000 OA
ATOM      5  C   UNL     1       5.215   4.471  15.230  0.00  0.00    +0.000 A 
ATOM      6  C   UNL     1       5.189   3.805  14.001  0.00  0.00    +0.000 A 
ATOM      7  C   UNL     1       6.247   3.941  13.103  0.00  0.00    +0.000 A 
ATOM      8  C   UNL     1       7.313   4.766  13.428  0.00  0.00    +0.000 A 
ATOM      9  F   UNL     1       8.340   4.891  12.575  0.00  0.00    +0.000 F 
ATOM     10  C   UNL     1       7.342   5.453  14.636  0.00  0.00    +0.000 A 
ATOM     11  C   UNL     1       6.292   5.306  15.561  0.00  0.00    +0.000 A 
ENDROOT
BRANCH   1  12
ATOM     12  O   UNL     1       6.843   7.314  16.738  0.00  0.00    +0.000 OA
ATOM     13  H   UNL     1       6.575   7.830  17.525  0.00  0.00    +0.000 HD
ENDBRANCH   1  12
BRANCH   3  14
ATOM     14  C   UNL     1       2.886   4.680  18.071  0.00  0.00    +0.000 C 
ATOM     15  O   UNL     1       1.939   5.339  17.641  0.00  0.00    +0.000 OA
BRANCH  14  16
ATOM     16  C   UNL     1       2.695   3.879  19.318  0.00  0.00    +0.000 A 
ATOM     17  C   UNL     1       1.542   3.991  20.103  0.00  0.00    +0.000 A 
ATOM     18  C   UNL     1       1.440   3.284  21.304  0.00  0.00    +0.000 A 
ATOM     19  C   UNL     1       2.480   2.453  21.716  0.00  0.00    +0.000 A 
ATOM     20  C   UNL     1       3.610   2.300  20.915  0.00  0.00    +0.000 A 
ATOM     21  C   UNL     1       3.715   3.004  19.713  0.00  0.00    +0.000 A 
ENDBRANCH  14  16
ENDBRANCH   3  14
BRANCH   1  22
ATOM     22  C   UNL     1       7.377   5.187  17.765  0.00  0.00    +0.000 C 
BRANCH  22  24
ATOM     23  O   UNL     1       7.344   5.363  20.181  0.00  0.00    +0.000 OA
ATOM     24  C   UNL     1       7.690   5.808  19.097  0.00  0.00    +0.000 C 
BRANCH  24  25
ATOM     25  O   UNL     1       8.403   6.955  18.983  0.00  0.00    +0.000 OA
ATOM     26  H   UNL     1       9.368   6.841  19.099  0.00  0.00    +0.000 HD
ENDBRANCH  24  25
ENDBRANCH  22  24
ENDBRANCH   1  22
TORSDOF 6
ENDMDL
MODEL 6
REMARK VINA RESULT:      -8.0      2.937      6.564
REMARK  Name = 
REMARK  6 active torsions:
REMARK  status: ('A' for Active; 'I' for Inactive)
REMARK    1  A    between atoms: C_2  and  O_3
REMARK    2  A    between atoms: C_2  and  C_4
REMARK    3  A    between atoms: C_4  and  C_5
REMARK    4  A    between atoms: C_5  and  O_6
REMARK    5  A    between atoms: C_8  and  C_9
REMARK    6  A    between atoms: C_9  and  C_11
REMARK                            x       y       z     vdW  Elec       q    Type
REMARK                         _______ _______ _______ _____ _____    ______ ____
ROOT
ATOM      1  C   UNL     1       3.665   5.822  18.521  0.00  0.00    +0.000 C 
ATOM      2  C   UNL     1       5.115   5.669  18.046  0.00  0.00    +0.000 C 
ATOM      3  C   UNL     1       5.160   4.831  16.774  0.00  0.00    +0.000 C 
ATOM      4  O   UNL     1       4.685   3.505  17.018  0.00  0.00    +0.000 OA
ATOM      5  C   UNL     1       3.559   3.396  17.786  0.00  0.00    +0.000 A 
ATOM      6  C   UNL     1       2.941   2.140  17.779  0.00  0.00    +0.000 A 
ATOM      7  C   UNL     1       1.780   1.924  18.519  0.00  0.00    +0.000 A 
ATOM      8  C   UNL     1       1.258   2.955  19.285  0.00  0.00    +0.000 A 
ATOM      9  F   UNL     1       0.134   2.757  19.987  0.00  0.00    +0.000 F 
ATOM     10  C   UNL     1       1.875   4.200  19.320  0.00  0.00    +0.000 A 
ATOM     11  C   UNL     1       3.034   4.440  18.560  0.00  0.00    +0.000 A 
ENDROOT
BRANCH   1  12
ATOM     12  O   UNL     1       3.671   6.350  19.850  0.00  0.00    +0.000 OA
ATOM     13  H   UNL     1       4.352   5.859  20.353  0.00  0.00    +0.000 HD
ENDBRANCH   1  12
BRANCH   3  14
ATOM     14  C   UNL     1       6.582   4.762  16.194  0.00  0.00    +0.000 C 
ATOM     15  O   UNL     1       7.589   4.892  16.889  0.00  0.00    +0.000 OA
BRANCH  14  16
ATOM     16  C   UNL     1       6.747   4.569  14.721  0.00  0.00    +0.000 A 
ATOM     17  C   UNL     1       7.687   5.292  13.978  0.00  0.00    +0.000 A 
ATOM     18  C   UNL     1       7.752   5.140  12.591  0.00  0.00    +0.000 A 
ATOM     19  C   UNL     1       6.890   4.255  11.944  0.00  0.00    +0.000 A 
ATOM     20  C   UNL     1       5.984   3.498  12.684  0.00  0.00    +0.000 A 
ATOM     21  C   UNL     1       5.918   3.646  14.071  0.00  0.00    +0.000 A 
ENDBRANCH  14  16
ENDBRANCH   3  14
BRANCH   1  22
ATOM     22  C   UNL     1       2.753   6.703  17.638  0.00  0.00    +0.000 C 
BRANCH  22  24
ATOM     23  O   UNL     1       1.800   8.112  19.365  0.00  0.00    +0.000 OA
ATOM     24  C   UNL     1       2.346   8.001  18.276  0.00  0.00    +0.000 C 
BRANCH  24  25
ATOM     25  O   UNL     1       2.634   9.074  17.502  0.00  0.00    +0.000 OA
ATOM     26  H   UNL     1       3.587   9.287  17.448  0.00  0.00    +0.000 HD
ENDBRANCH  24  25
ENDBRANCH  22  24
ENDBRANCH   1  22
TORSDOF 6
ENDMDL
MODEL 7
REMARK VINA RESULT:      -7.7      4.203      6.860
REMARK  Name = 
REMARK  6 active torsions:
REMARK  status: ('A' for Active; 'I' for Inactive)
REMARK    1  A    between atoms: C_2  and  O_3
REMARK    2  A    between atoms: C_2  and  C_4
REMARK    3  A    between atoms: C_4  and  C_5
REMARK    4  A    between atoms: C_5  and  O_6
REMARK    5  A    between atoms: C_8  and  C_9
REMARK    6  A    between atoms: C_9  and  C_11
REMARK                            x       y       z     vdW  Elec       q    Type
REMARK                         _______ _______ _______ _____ _____    ______ ____
ROOT
ATOM      1  C   UNL     1       6.855   5.080  17.654  0.00  0.00    +0.000 C 
ATOM      2  C   UNL     1       7.456   4.795  16.272  0.00  0.00    +0.000 C 
ATOM      3  C   UNL     1       6.403   5.015  15.193  0.00  0.00    +0.000 C 
ATOM      4  O   UNL     1       5.316   4.100  15.343  0.00  0.00    +0.000 OA
ATOM      5  C   UNL     1       4.858   3.907  16.617  0.00  0.00    +0.000 A 
ATOM      6  C   UNL     1       3.628   3.249  16.725  0.00  0.00    +0.000 A 
ATOM      7  C   UNL     1       3.064   3.012  17.978  0.00  0.00    +0.000 A 
ATOM      8  C   UNL     1       3.747   3.409  19.118  0.00  0.00    +0.000 A 
ATOM      9  F   UNL     1       3.204   3.196  20.324  0.00  0.00    +0.000 F 
ATOM     10  C   UNL     1       4.981   4.042  19.026  0.00  0.00    +0.000 A 
ATOM     11  C   UNL     1       5.551   4.309  17.768  0.00  0.00    +0.000 A 
ENDROOT
BRANCH   1  12
ATOM     12  O   UNL     1       7.754   4.592  18.654  0.00  0.00    +0.000 OA
ATOM     13  H   UNL     1       7.331   4.749  19.523  0.00  0.00    +0.000 HD
ENDBRANCH   1  12
BRANCH   3  14
ATOM     14  C   UNL     1       7.001   4.866  13.784  0.00  0.00    +0.000 C 
ATOM     15  O   UNL     1       7.986   5.502  13.410  0.00  0.00    +0.000 OA
BRANCH  14  16
ATOM     16  C   UNL     1       6.335   3.942  12.816  0.00  0.00    +0.000 A 
ATOM     17  C   UNL     1       4.970   4.035  12.519  0.00  0.00    +0.000 A 
ATOM     18  C   UNL     1       4.372   3.099  11.672  0.00  0.00    +0.000 A 
ATOM     19  C   UNL     1       5.135   2.079  11.107  0.00  0.00    +0.000 A 
ATOM     20  C   UNL     1       6.503   2.010  11.361  0.00  0.00    +0.000 A 
ATOM     21  C   UNL     1       7.105   2.944  12.207  0.00  0.00    +0.000 A 
ENDBRANCH  14  16
ENDBRANCH   3  14
BRANCH   1  22
ATOM     22  C   UNL     1       6.526   6.558  17.958  0.00  0.00    +0.000 C 
BRANCH  22  24
ATOM     23  O   UNL     1       7.970   8.330  17.151  0.00  0.00    +0.000 OA
ATOM     24  C   UNL     1       7.725   7.464  17.979  0.00  0.00    +0.000 C 
BRANCH  24  25
ATOM     25  O   UNL     1       8.547   7.216  19.027  0.00  0.00    +0.000 OA
ATOM     26  H   UNL     1       8.438   7.833  19.778  0.00  0.00    +0.000 HD
ENDBRANCH  24  25
ENDBRANCH  22  24
ENDBRANCH   1  22
TORSDOF 6
ENDMDL
MODEL 8
REMARK VINA RESULT:      -7.7      4.161      6.752
REMARK  Name = 
REMARK  6 active torsions:
REMARK  status: ('A' for Active; 'I' for Inactive)
REMARK    1  A    between atoms: C_2  and  O_3
REMARK    2  A    between atoms: C_2  and  C_4
REMARK    3  A    between atoms: C_4  and  C_5
REMARK    4  A    between atoms: C_5  and  O_6
REMARK    5  A    between atoms: C_8  and  C_9
REMARK    6  A    between atoms: C_9  and  C_11
REMARK                            x       y       z     vdW  Elec       q    Type
REMARK                         _______ _______ _______ _____ _____    ______ ____
ROOT
ATOM      1  C   UNL     1       6.692   4.942  17.618  0.00  0.00    +0.000 C 
ATOM      2  C   UNL     1       7.252   4.647  16.222  0.00  0.00    +0.000 C 
ATOM      3  C   UNL     1       6.189   4.928  15.166  0.00  0.00    +0.000 C 
ATOM      4  O   UNL     1       5.064   4.061  15.329  0.00  0.00    +0.000 OA
ATOM      5  C   UNL     1       4.623   3.874  16.610  0.00  0.00    +0.000 A 
ATOM      6  C   UNL     1       3.366   3.272  16.735  0.00  0.00    +0.000 A 
ATOM      7  C   UNL     1       2.817   3.046  17.997  0.00  0.00    +0.000 A 
ATOM      8  C   UNL     1       3.540   3.397  19.127  0.00  0.00    +0.000 A 
ATOM      9  F   UNL     1       3.012   3.195  20.342  0.00  0.00    +0.000 F 
ATOM     10  C   UNL     1       4.800   3.975  19.017  0.00  0.00    +0.000 A 
ATOM     11  C   UNL     1       5.356   4.230  17.750  0.00  0.00    +0.000 A 
ENDROOT
BRANCH   1  12
ATOM     12  O   UNL     1       7.587   4.400  18.595  0.00  0.00    +0.000 OA
ATOM     13  H   UNL     1       7.053   3.850  19.202  0.00  0.00    +0.000 HD
ENDBRANCH   1  12
BRANCH   3  14
ATOM     14  C   UNL     1       6.751   4.768  13.744  0.00  0.00    +0.000 C 
ATOM     15  O   UNL     1       7.707   5.425  13.330  0.00  0.00    +0.000 OA
BRANCH  14  16
ATOM     16  C   UNL     1       6.085   3.807  12.813  0.00  0.00    +0.000 A 
ATOM     17  C   UNL     1       6.744   2.674  12.320  0.00  0.00    +0.000 A 
ATOM     18  C   UNL     1       6.112   1.847  11.389  0.00  0.00    +0.000 A 
ATOM     19  C   UNL     1       4.818   2.138  10.959  0.00  0.00    +0.000 A 
ATOM     20  C   UNL     1       4.140   3.237  11.482  0.00  0.00    +0.000 A 
ATOM     21  C   UNL     1       4.768   4.066  12.414  0.00  0.00    +0.000 A 
ENDBRANCH  14  16
ENDBRANCH   3  14
BRANCH   1  22
ATOM     22  C   UNL     1       6.438   6.430  17.946  0.00  0.00    +0.000 C 
BRANCH  22  24
ATOM     23  O   UNL     1       7.948   8.070  16.996  0.00  0.00    +0.000 OA
ATOM     24  C   UNL     1       7.669   7.291  17.895  0.00  0.00    +0.000 C 
BRANCH  24  25
ATOM     25  O   UNL     1       8.478   7.106  18.966  0.00  0.00    +0.000 OA
ATOM     26  H   UNL     1       8.351   7.760  19.683  0.00  0.00    +0.000 HD
ENDBRANCH  24  25
ENDBRANCH  22  24
ENDBRANCH   1  22
TORSDOF 6
ENDMDL
MODEL 9
REMARK VINA RESULT:      -7.6      2.687      3.944
REMARK  Name = 
REMARK  6 active torsions:
REMARK  status: ('A' for Active; 'I' for Inactive)
REMARK    1  A    between atoms: C_2  and  O_3
REMARK    2  A    between atoms: C_2  and  C_4
REMARK    3  A    between atoms: C_4  and  C_5
REMARK    4  A    between atoms: C_5  and  O_6
REMARK    5  A    between atoms: C_8  and  C_9
REMARK    6  A    between atoms: C_9  and  C_11
REMARK                            x       y       z     vdW  Elec       q    Type
REMARK                         _______ _______ _______ _____ _____    ______ ____
ROOT
ATOM      1  C   UNL     1       6.520   6.069  17.072  0.00  0.00    +0.000 C 
ATOM      2  C   UNL     1       5.147   6.218  17.739  0.00  0.00    +0.000 C 
ATOM      3  C   UNL     1       4.434   4.872  17.764  0.00  0.00    +0.000 C 
ATOM      4  O   UNL     1       4.177   4.403  16.438  0.00  0.00    +0.000 OA
ATOM      5  C   UNL     1       5.197   4.540  15.539  0.00  0.00    +0.000 A 
ATOM      6  C   UNL     1       5.050   3.827  14.344  0.00  0.00    +0.000 A 
ATOM      7  C   UNL     1       6.039   3.887  13.363  0.00  0.00    +0.000 A 
ATOM      8  C   UNL     1       7.156   4.682  13.569  0.00  0.00    +0.000 A 
ATOM      9  F   UNL     1       8.116   4.733  12.636  0.00  0.00    +0.000 F 
ATOM     10  C   UNL     1       7.304   5.413  14.742  0.00  0.00    +0.000 A 
ATOM     11  C   UNL     1       6.326   5.344  15.750  0.00  0.00    +0.000 A 
ENDROOT
BRANCH   1  12
ATOM     12  O   UNL     1       7.040   7.373  16.796  0.00  0.00    +0.000 OA
ATOM     13  H   UNL     1       6.922   7.534  15.838  0.00  0.00    +0.000 HD
ENDBRANCH   1  12
BRANCH   3  14
ATOM     14  C   UNL     1       3.109   4.951  18.540  0.00  0.00    +0.000 C 
ATOM     15  O   UNL     1       2.500   3.949  18.918  0.00  0.00    +0.000 OA
BRANCH  14  16
ATOM     16  C   UNL     1       2.516   6.295  18.813  0.00  0.00    +0.000 A 
ATOM     17  C   UNL     1       2.310   7.236  17.796  0.00  0.00    +0.000 A 
ATOM     18  C   UNL     1       1.829   8.510  18.108  0.00  0.00    +0.000 A 
ATOM     19  C   UNL     1       1.539   8.843  19.430  0.00  0.00    +0.000 A 
ATOM     20  C   UNL     1       1.696   7.896  20.439  0.00  0.00    +0.000 A 
ATOM     21  C   UNL     1       2.175   6.621  20.131  0.00  0.00    +0.000 A 
ENDBRANCH  14  16
ENDBRANCH   3  14
BRANCH   1  22
ATOM     22  C   UNL     1       7.576   5.269  17.867  0.00  0.00    +0.000 C 
BRANCH  22  24
ATOM     23  O   UNL     1       7.627   5.326  20.289  0.00  0.00    +0.000 OA
ATOM     24  C   UNL     1       7.898   5.846  19.216  0.00  0.00    +0.000 C 
BRANCH  24  25
ATOM     25  O   UNL     1       8.524   7.045  19.134  0.00  0.00    +0.000 OA
ATOM     26  H   UNL     1       8.055   7.706  18.586  0.00  0.00    +0.000 HD
ENDBRANCH  24  25
ENDBRANCH  22  24
ENDBRANCH   1  22
TORSDOF 6
ENDMDL
