MODEL 1
REMARK VINA RESULT:      -6.5      0.000      0.000
REMARK  Name = 
REMARK  7 active torsions:
REMARK  status: ('A' for Active; 'I' for Inactive)
REMARK    1  A    between atoms: C_1  and  C_2
REMARK    2  A    between atoms: C_2  and  C_3
REMARK    3  A    between atoms: C_2  and  N_10
REMARK    4  A    between atoms: C_3  and  C_4
REMARK    5  A    between atoms: N_10  and  C_11
REMARK    6  A    between atoms: C_12  and  C_14
REMARK    7  A    between atoms: C_14  and  N_15
REMARK                            x       y       z     vdW  Elec       q    Type
REMARK                         _______ _______ _______ _____ _____    ______ ____
ROOT
ATOM      1  N   UNL     1       2.893   6.636  18.716  0.00  0.00    +0.000 N 
ATOM      2  C   UNL     1       2.114   7.544  17.877  0.00  0.00    +0.000 C 
ATOM      3  C   UNL     1       4.207   6.304  18.367  0.00  0.00    +0.000 C 
ATOM      4  O   UNL     1       4.964   5.729  19.157  0.00  0.00    +0.000 OA
ENDROOT
BRANCH   1   6
ATOM      5  C   UNL     1       1.654   7.292  20.848  0.00  0.00    +0.000 C 
ATOM      6  C   UNL     1       2.396   6.202  20.058  0.00  0.00    +0.000 C 
BRANCH   6   7
ATOM      7  C   UNL     1       1.511   4.930  19.938  0.00  0.00    +0.000 C 
BRANCH   7   8
ATOM      8  C   UNL     1       2.245   3.741  19.377  0.00  0.00    +0.000 A 
ATOM      9  C   UNL     1       3.231   3.086  20.113  0.00  0.00    +0.000 A 
ATOM     10  N   UNL     1       3.879   1.988  19.656  0.00  0.00    +0.000 NA
ATOM     11  C   UNL     1       3.503   1.564  18.429  0.00  0.00    +0.000 A 
ATOM     12  C   UNL     1       2.527   2.207  17.691  0.00  0.00    +0.000 A 
ATOM     13  N   UNL     1       1.882   3.305  18.145  0.00  0.00    +0.000 NA
ENDBRANCH   7   8
ENDBRANCH   6   7
ENDBRANCH   1   6
BRANCH   3  14
ATOM     14  C   UNL     1       4.746   6.734  16.992  0.00  0.00    +0.000 C 
BRANCH  14  15
ATOM     15  N   UNL     1       5.567   5.717  16.365  0.00  0.00    +0.000 N 
ATOM     16  C   UNL     1       5.071   4.416  16.027  0.00  0.00    +0.000 C 
ATOM     17  C   UNL     1       6.242   3.838  15.267  0.00  0.00    +0.000 C 
ATOM     18  O   UNL     1       7.380   4.583  15.718  0.00  0.00    +0.000 OA
ATOM     19  C   UNL     1       6.930   5.754  16.264  0.00  0.00    +0.000 C 
ATOM     20  O   UNL     1       7.657   6.669  16.614  0.00  0.00    +0.000 OA
ENDBRANCH  14  15
ENDBRANCH   3  14
TORSDOF 5
ENDMDL
MODEL 2
REMARK VINA RESULT:      -6.5      2.715      6.274
REMARK  Name = 
REMARK  7 active torsions:
REMARK  status: ('A' for Active; 'I' for Inactive)
REMARK    1  A    between atoms: C_1  and  C_2
REMARK    2  A    between atoms: C_2  and  C_3
REMARK    3  A    between atoms: C_2  and  N_10
REMARK    4  A    between atoms: C_3  and  C_4
REMARK    5  A    between atoms: N_10  and  C_11
REMARK    6  A    between atoms: C_12  and  C_14
REMARK    7  A    between atoms: C_14  and  N_15
REMARK                            x       y       z     vdW  Elec       q    Type
REMARK                         _______ _______ _______ _____ _____    ______ ____
ROOT
ATOM      1  N   UNL     1       5.188   4.564  17.859  0.00  0.00    +0.000 N 
ATOM      2  C   UNL     1       5.703   4.845  19.198  0.00  0.00    +0.000 C 
ATOM      3  C   UNL     1       4.248   3.546  17.663  0.00  0.00    +0.000 C 
ATOM      4  O   UNL     1       3.629   3.430  16.599  0.00  0.00    +0.000 OA
ENDROOT
BRANCH   1   6
ATOM      5  C   UNL     1       5.242   6.964  16.992  0.00  0.00    +0.000 C 
ATOM      6  C   UNL     1       5.485   5.472  16.708  0.00  0.00    +0.000 C 
BRANCH   6   7
ATOM      7  C   UNL     1       6.933   5.254  16.188  0.00  0.00    +0.000 C 
BRANCH   7   8
ATOM      8  C   UNL     1       6.994   4.861  14.735  0.00  0.00    +0.000 A 
ATOM      9  C   UNL     1       6.141   3.892  14.212  0.00  0.00    +0.000 A 
ATOM     10  N   UNL     1       6.140   3.547  12.902  0.00  0.00    +0.000 NA
ATOM     11  C   UNL     1       7.028   4.211  12.129  0.00  0.00    +0.000 A 
ATOM     12  C   UNL     1       7.878   5.174  12.639  0.00  0.00    +0.000 A 
ATOM     13  N   UNL     1       7.882   5.517  13.947  0.00  0.00    +0.000 NA
ENDBRANCH   7   8
ENDBRANCH   6   7
ENDBRANCH   1   6
BRANCH   3  14
ATOM     14  C   UNL     1       3.924   2.595  18.827  0.00  0.00    +0.000 C 
BRANCH  14  15
ATOM     15  N   UNL     1       2.727   2.978  19.551  0.00  0.00    +0.000 N 
ATOM     16  C   UNL     1       2.759   3.492  20.888  0.00  0.00    +0.000 C 
ATOM     17  C   UNL     1       1.313   3.883  21.092  0.00  0.00    +0.000 C 
ATOM     18  O   UNL     1       0.579   3.085  20.154  0.00  0.00    +0.000 OA
ATOM     19  C   UNL     1       1.448   2.663  19.186  0.00  0.00    +0.000 C 
ATOM     20  O   UNL     1       1.109   2.081  18.169  0.00  0.00    +0.000 OA
ENDBRANCH  14  15
ENDBRANCH   3  14
TORSDOF 5
ENDMDL
MODEL 3
REMARK VINA RESULT:      -6.4      2.488      5.375
REMARK  Name = 
REMARK  7 active torsions:
REMARK  status: ('A' for Active; 'I' for Inactive)
REMARK    1  A    between atoms: C_1  and  C_2
REMARK    2  A    between atoms: C_2  and  C_3
REMARK    3  A    between atoms: C_2  and  N_10
REMARK    4  A    between atoms: C_3  and  C_4
REMARK    5  A    between atoms: N_10  and  C_11
REMARK    6  A    between atoms: C_12  and  C_14
REMARK    7  A    between atoms: C_14  and  N_15
REMARK                            x       y       z     vdW  Elec       q    Type
REMARK                         _______ _______ _______ _____ _____    ______ ____
ROOT
ATOM      1  N   UNL     1       3.716   5.081  18.236  0.00  0.00    +0.000 N 
ATOM      2  C   UNL     1       4.613   5.044  19.389  0.00  0.00    +0.000 C 
ATOM      3  C   UNL     1       2.980   3.947  17.876  0.00  0.00    +0.000 C 
ATOM      4  O   UNL     1       2.055   4.005  17.057  0.00  0.00    +0.000 OA
ENDROOT
BRANCH   1   6
ATOM      5  C   UNL     1       2.606   7.375  18.382  0.00  0.00    +0.000 C 
ATOM      6  C   UNL     1       3.403   6.367  17.538  0.00  0.00    +0.000 C 
BRANCH   6   7
ATOM      7  C   UNL     1       4.698   7.031  16.991  0.00  0.00    +0.000 C 
BRANCH   7   8
ATOM      8  C   UNL     1       5.558   6.093  16.186  0.00  0.00    +0.000 A 
ATOM      9  C   UNL     1       6.856   5.782  16.585  0.00  0.00    +0.000 A 
ATOM     10  N   UNL     1       7.641   4.908  15.909  0.00  0.00    +0.000 NA
ATOM     11  C   UNL     1       7.076   4.352  14.814  0.00  0.00    +0.000 A 
ATOM     12  C   UNL     1       5.789   4.655  14.411  0.00  0.00    +0.000 A 
ATOM     13  N   UNL     1       5.006   5.529  15.083  0.00  0.00    +0.000 NA
ENDBRANCH   7   8
ENDBRANCH   6   7
ENDBRANCH   1   6
BRANCH   3  14
ATOM     14  C   UNL     1       3.281   2.609  18.573  0.00  0.00    +0.000 C 
BRANCH  14  15
ATOM     15  N   UNL     1       2.766   2.552  19.928  0.00  0.00    +0.000 N 
ATOM     16  C   UNL     1       1.478   3.062  20.293  0.00  0.00    +0.000 C 
ATOM     17  C   UNL     1       1.372   2.605  21.730  0.00  0.00    +0.000 C 
ATOM     18  O   UNL     1       2.727   2.413  22.157  0.00  0.00    +0.000 OA
ATOM     19  C   UNL     1       3.506   2.270  21.042  0.00  0.00    +0.000 C 
ATOM     20  O   UNL     1       4.684   1.954  21.067  0.00  0.00    +0.000 OA
ENDBRANCH  14  15
ENDBRANCH   3  14
TORSDOF 5
ENDMDL
MODEL 4
REMARK VINA RESULT:      -6.4      2.290      5.659
REMARK  Name = 
REMARK  7 active torsions:
REMARK  status: ('A' for Active; 'I' for Inactive)
REMARK    1  A    between atoms: C_1  and  C_2
REMARK    2  A    between atoms: C_2  and  C_3
REMARK    3  A    between atoms: C_2  and  N_10
REMARK    4  A    between atoms: C_3  and  C_4
REMARK    5  A    between atoms: N_10  and  C_11
REMARK    6  A    between atoms: C_12  and  C_14
REMARK    7  A    between atoms: C_14  and  N_15
REMARK                            x       y       z     vdW  Elec       q    Type
REMARK                         _______ _______ _______ _____ _____    ______ ____
ROOT
ATOM      1  N   UNL     1       5.333   6.186  17.881  0.00  0.00    +0.000 N 
ATOM      2  C   UNL     1       4.201   6.871  17.261  0.00  0.00    +0.000 C 
ATOM      3  C   UNL     1       5.130   5.316  18.959  0.00  0.00    +0.000 C 
ATOM      4  O   UNL     1       6.020   4.557  19.357  0.00  0.00    +0.000 OA
ENDROOT
BRANCH   1   6
ATOM      5  C   UNL     1       7.782   6.851  18.164  0.00  0.00    +0.000 C 
ATOM      6  C   UNL     1       6.697   6.231  17.267  0.00  0.00    +0.000 C 
BRANCH   6   7
ATOM      7  C   UNL     1       7.137   4.820  16.789  0.00  0.00    +0.000 C 
BRANCH   7   8
ATOM      8  C   UNL     1       7.028   4.631  15.299  0.00  0.00    +0.000 A 
ATOM      9  C   UNL     1       6.092   3.760  14.747  0.00  0.00    +0.000 A 
ATOM     10  N   UNL     1       5.938   3.600  13.410  0.00  0.00    +0.000 NA
ATOM     11  C   UNL     1       6.759   4.349  12.641  0.00  0.00    +0.000 A 
ATOM     12  C   UNL     1       7.691   5.216  13.179  0.00  0.00    +0.000 A 
ATOM     13  N   UNL     1       7.848   5.374  14.513  0.00  0.00    +0.000 NA
ENDBRANCH   7   8
ENDBRANCH   6   7
ENDBRANCH   1   6
BRANCH   3  14
ATOM     14  C   UNL     1       3.740   5.251  19.613  0.00  0.00    +0.000 C 
BRANCH  14  15
ATOM     15  N   UNL     1       3.071   3.983  19.390  0.00  0.00    +0.000 N 
ATOM     16  C   UNL     1       2.775   3.479  18.083  0.00  0.00    +0.000 C 
ATOM     17  C   UNL     1       2.256   2.097  18.406  0.00  0.00    +0.000 C 
ATOM     18  O   UNL     1       1.810   2.178  19.765  0.00  0.00    +0.000 OA
ATOM     19  C   UNL     1       2.417   3.257  20.346  0.00  0.00    +0.000 C 
ATOM     20  O   UNL     1       2.354   3.518  21.536  0.00  0.00    +0.000 OA
ENDBRANCH  14  15
ENDBRANCH   3  14
TORSDOF 5
ENDMDL
MODEL 5
REMARK VINA RESULT:      -6.4      2.389      5.832
REMARK  Name = 
REMARK  7 active torsions:
REMARK  status: ('A' for Active; 'I' for Inactive)
REMARK    1  A    between atoms: C_1  and  C_2
REMARK    2  A    between atoms: C_2  and  C_3
REMARK    3  A    between atoms: C_2  and  N_10
REMARK    4  A    between atoms: C_3  and  C_4
REMARK    5  A    between atoms: N_10  and  C_11
REMARK    6  A    between atoms: C_12  and  C_14
REMARK    7  A    between atoms: C_14  and  N_15
REMARK                            x       y       z     vdW  Elec       q    Type
REMARK                         _______ _______ _______ _____ _____    ______ ____
ROOT
ATOM      1  N   UNL     1       5.171   5.718  18.218  0.00  0.00    +0.000 N 
ATOM      2  C   UNL     1       5.636   4.869  19.313  0.00  0.00    +0.000 C 
ATOM      3  C   UNL     1       3.939   6.376  18.308  0.00  0.00    +0.000 C 
ATOM      4  O   UNL     1       3.620   7.267  17.513  0.00  0.00    +0.000 OA
ENDROOT
BRANCH   1   6
ATOM      5  C   UNL     1       7.002   7.263  17.338  0.00  0.00    +0.000 C 
ATOM      6  C   UNL     1       6.069   6.069  17.074  0.00  0.00    +0.000 C 
BRANCH   6   7
ATOM      7  C   UNL     1       6.894   4.835  16.616  0.00  0.00    +0.000 C 
BRANCH   7   8
ATOM      8  C   UNL     1       6.935   4.664  15.120  0.00  0.00    +0.000 A 
ATOM      9  C   UNL     1       6.037   3.824  14.464  0.00  0.00    +0.000 A 
ATOM     10  N   UNL     1       6.018   3.682  13.117  0.00  0.00    +0.000 NA
ATOM     11  C   UNL     1       6.934   4.414  12.445  0.00  0.00    +0.000 A 
ATOM     12  C   UNL     1       7.829   5.250  13.087  0.00  0.00    +0.000 A 
ATOM     13  N   UNL     1       7.851   5.391  14.432  0.00  0.00    +0.000 NA
ENDBRANCH   7   8
ENDBRANCH   6   7
ENDBRANCH   1   6
BRANCH   3  14
ATOM     14  C   UNL     1       2.993   6.033  19.471  0.00  0.00    +0.000 C 
BRANCH  14  15
ATOM     15  N   UNL     1       2.318   4.762  19.292  0.00  0.00    +0.000 N 
ATOM     16  C   UNL     1       1.737   4.359  18.046  0.00  0.00    +0.000 C 
ATOM     17  C   UNL     1       1.336   2.934  18.351  0.00  0.00    +0.000 C 
ATOM     18  O   UNL     1       1.216   2.881  19.778  0.00  0.00    +0.000 OA
ATOM     19  C   UNL     1       1.918   3.932  20.301  0.00  0.00    +0.000 C 
ATOM     20  O   UNL     1       2.127   4.089  21.493  0.00  0.00    +0.000 OA
ENDBRANCH  14  15
ENDBRANCH   3  14
TORSDOF 5
ENDMDL
MODEL 6
REMARK VINA RESULT:      -6.4      2.482      5.067
REMARK  Name = 
REMARK  7 active torsions:
REMARK  status: ('A' for Active; 'I' for Inactive)
REMARK    1  A    between atoms: C_1  and  C_2
REMARK    2  A    between atoms: C_2  and  C_3
REMARK    3  A    between atoms: C_2  and  N_10
REMARK    4  A    between atoms: C_3  and  C_4
REMARK    5  A    between atoms: N_10  and  C_11
REMARK    6  A    between atoms: C_12  and  C_14
REMARK    7  A    between atoms: C_14  and  N_15
REMARK                            x       y       z     vdW  Elec       q    Type
REMARK                         _______ _______ _______ _____ _____    ______ ____
ROOT
ATOM      1  N   UNL     1       2.323   5.862  18.823  0.00  0.00    +0.000 N 
ATOM      2  C   UNL     1       2.316   6.206  20.243  0.00  0.00    +0.000 C 
ATOM      3  C   UNL     1       1.804   4.637  18.390  0.00  0.00    +0.000 C 
ATOM      4  O   UNL     1       1.588   4.409  17.195  0.00  0.00    +0.000 OA
ENDROOT
BRANCH   1   6
ATOM      5  C   UNL     1       1.880   8.180  17.850  0.00  0.00    +0.000 C 
ATOM      6  C   UNL     1       2.688   6.873  17.782  0.00  0.00    +0.000 C 
BRANCH   6   7
ATOM      7  C   UNL     1       4.210   7.181  17.817  0.00  0.00    +0.000 C 
BRANCH   7   8
ATOM      8  C   UNL     1       5.038   6.195  17.036  0.00  0.00    +0.000 A 
ATOM      9  C   UNL     1       5.241   6.347  15.666  0.00  0.00    +0.000 A 
ATOM     10  N   UNL     1       6.016   5.503  14.942  0.00  0.00    +0.000 NA
ATOM     11  C   UNL     1       6.585   4.497  15.642  0.00  0.00    +0.000 A 
ATOM     12  C   UNL     1       6.390   4.338  17.001  0.00  0.00    +0.000 A 
ATOM     13  N   UNL     1       5.614   5.178  17.724  0.00  0.00    +0.000 NA
ENDBRANCH   7   8
ENDBRANCH   6   7
ENDBRANCH   1   6
BRANCH   3  14
ATOM     14  C   UNL     1       1.423   3.576  19.436  0.00  0.00    +0.000 C 
BRANCH  14  15
ATOM     15  N   UNL     1       2.578   2.931  20.031  0.00  0.00    +0.000 N 
ATOM     16  C   UNL     1       3.577   2.257  19.257  0.00  0.00    +0.000 C 
ATOM     17  C   UNL     1       4.606   1.933  20.315  0.00  0.00    +0.000 C 
ATOM     18  O   UNL     1       3.880   1.939  21.551  0.00  0.00    +0.000 OA
ATOM     19  C   UNL     1       2.727   2.650  21.361  0.00  0.00    +0.000 C 
ATOM     20  O   UNL     1       1.958   2.957  22.256  0.00  0.00    +0.000 OA
ENDBRANCH  14  15
ENDBRANCH   3  14
TORSDOF 5
ENDMDL
MODEL 7
REMARK VINA RESULT:      -6.3      2.301      5.615
REMARK  Name = 
REMARK  7 active torsions:
REMARK  status: ('A' for Active; 'I' for Inactive)
REMARK    1  A    between atoms: C_1  and  C_2
REMARK    2  A    between atoms: C_2  and  C_3
REMARK    3  A    between atoms: C_2  and  N_10
REMARK    4  A    between atoms: C_3  and  C_4
REMARK    5  A    between atoms: N_10  and  C_11
REMARK    6  A    between atoms: C_12  and  C_14
REMARK    7  A    between atoms: C_14  and  N_15
REMARK                            x       y       z     vdW  Elec       q    Type
REMARK                         _______ _______ _______ _____ _____    ______ ____
ROOT
ATOM      1  N   UNL     1       5.196   6.148  17.858  0.00  0.00    +0.000 N 
ATOM      2  C   UNL     1       4.082   6.955  17.363  0.00  0.00    +0.000 C 
ATOM      3  C   UNL     1       4.990   5.205  18.871  0.00  0.00    +0.000 C 
ATOM      4  O   UNL     1       5.846   4.359  19.154  0.00  0.00    +0.000 OA
ENDROOT
BRANCH   1   6
ATOM      5  C   UNL     1       7.672   6.753  18.003  0.00  0.00    +0.000 C 
ATOM      6  C   UNL     1       6.525   6.157  17.170  0.00  0.00    +0.000 C 
BRANCH   6   7
ATOM      7  C   UNL     1       6.903   4.733  16.677  0.00  0.00    +0.000 C 
BRANCH   7   8
ATOM      8  C   UNL     1       6.970   4.616  15.177  0.00  0.00    +0.000 A 
ATOM      9  C   UNL     1       6.139   3.739  14.482  0.00  0.00    +0.000 A 
ATOM     10  N   UNL     1       6.143   3.642  13.131  0.00  0.00    +0.000 NA
ATOM     11  C   UNL     1       7.011   4.459  12.495  0.00  0.00    +0.000 A 
ATOM     12  C   UNL     1       7.840   5.332  13.176  0.00  0.00    +0.000 A 
ATOM     13  N   UNL     1       7.839   5.428  14.524  0.00  0.00    +0.000 NA
ENDBRANCH   7   8
ENDBRANCH   6   7
ENDBRANCH   1   6
BRANCH   3  14
ATOM     14  C   UNL     1       3.636   5.175  19.599  0.00  0.00    +0.000 C 
BRANCH  14  15
ATOM     15  N   UNL     1       2.826   4.028  19.234  0.00  0.00    +0.000 N 
ATOM     16  C   UNL     1       3.133   2.694  19.656  0.00  0.00    +0.000 C 
ATOM     17  C   UNL     1       1.918   1.939  19.167  0.00  0.00    +0.000 C 
ATOM     18  O   UNL     1       1.383   2.746  18.110  0.00  0.00    +0.000 OA
ATOM     19  C   UNL     1       1.865   4.017  18.263  0.00  0.00    +0.000 C 
ATOM     20  O   UNL     1       1.489   4.974  17.606  0.00  0.00    +0.000 OA
ENDBRANCH  14  15
ENDBRANCH   3  14
TORSDOF 5
ENDMDL
MODEL 8
REMARK VINA RESULT:      -6.3      2.351      4.560
REMARK  Name = 
REMARK  7 active torsions:
REMARK  status: ('A' for Active; 'I' for Inactive)
REMARK    1  A    between atoms: C_1  and  C_2
REMARK    2  A    between atoms: C_2  and  C_3
REMARK    3  A    between atoms: C_2  and  N_10
REMARK    4  A    between atoms: C_3  and  C_4
REMARK    5  A    between atoms: N_10  and  C_11
REMARK    6  A    between atoms: C_12  and  C_14
REMARK    7  A    between atoms: C_14  and  N_15
REMARK                            x       y       z     vdW  Elec       q    Type
REMARK                         _______ _______ _______ _____ _____    ______ ____
ROOT
ATOM      1  N   UNL     1       4.670   4.902  16.959  0.00  0.00    +0.000 N 
ATOM      2  C   UNL     1       5.055   3.523  17.251  0.00  0.00    +0.000 C 
ATOM      3  C   UNL     1       5.438   5.680  16.084  0.00  0.00    +0.000 C 
ATOM      4  O   UNL     1       5.026   6.759  15.643  0.00  0.00    +0.000 OA
ENDROOT
BRANCH   1   6
ATOM      5  C   UNL     1       2.241   4.405  17.566  0.00  0.00    +0.000 C 
ATOM      6  C   UNL     1       3.356   5.454  17.414  0.00  0.00    +0.000 C 
BRANCH   6   7
ATOM      7  C   UNL     1       3.518   6.259  18.733  0.00  0.00    +0.000 C 
BRANCH   7   8
ATOM      8  C   UNL     1       2.688   7.514  18.774  0.00  0.00    +0.000 A 
ATOM      9  C   UNL     1       2.600   8.360  17.670  0.00  0.00    +0.000 A 
ATOM     10  N   UNL     1       1.828   9.473  17.658  0.00  0.00    +0.000 NA
ATOM     11  C   UNL     1       1.141   9.711  18.797  0.00  0.00    +0.000 A 
ATOM     12  C   UNL     1       1.222   8.879  19.898  0.00  0.00    +0.000 A 
ATOM     13  N   UNL     1       1.994   7.769  19.912  0.00  0.00    +0.000 NA
ENDBRANCH   7   8
ENDBRANCH   6   7
ENDBRANCH   1   6
BRANCH   3  14
ATOM     14  C   UNL     1       6.795   5.142  15.602  0.00  0.00    +0.000 C 
BRANCH  14  15
ATOM     15  N   UNL     1       6.768   4.703  14.219  0.00  0.00    +0.000 N 
ATOM     16  C   UNL     1       5.982   3.594  13.771  0.00  0.00    +0.000 C 
ATOM     17  C   UNL     1       6.174   3.677  12.274  0.00  0.00    +0.000 C 
ATOM     18  O   UNL     1       7.400   4.399  12.098  0.00  0.00    +0.000 OA
ATOM     19  C   UNL     1       7.652   5.091  13.251  0.00  0.00    +0.000 C 
ATOM     20  O   UNL     1       8.547   5.910  13.375  0.00  0.00    +0.000 OA
ENDBRANCH  14  15
ENDBRANCH   3  14
TORSDOF 5
ENDMDL
MODEL 9
REMARK VINA RESULT:      -6.2      1.746      4.101
REMARK  Name = 
REMARK  7 active torsions:
REMARK  status: ('A' for Active; 'I' for Inactive)
REMARK    1  A    between atoms: C_1  and  C_2
REMARK    2  A    between atoms: C_2  and  C_3
REMARK    3  A    between atoms: C_2  and  N_10
REMARK    4  A    between atoms: C_3  and  C_4
REMARK    5  A    between atoms: N_10  and  C_11
REMARK    6  A    between atoms: C_12  and  C_14
REMARK    7  A    between atoms: C_14  and  N_15
REMARK                            x       y       z     vdW  Elec       q    Type
REMARK                         _______ _______ _______ _____ _____    ______ ____
ROOT
ATOM      1  N   UNL     1       3.220   3.815  19.182  0.00  0.00    +0.000 N 
ATOM      2  C   UNL     1       3.815   2.772  20.014  0.00  0.00    +0.000 C 
ATOM      3  C   UNL     1       3.569   3.926  17.831  0.00  0.00    +0.000 C 
ATOM      4  O   UNL     1       2.928   4.640  17.052  0.00  0.00    +0.000 OA
ENDROOT
BRANCH   1   6
ATOM      5  C   UNL     1       1.067   3.896  20.551  0.00  0.00    +0.000 C 
ATOM      6  C   UNL     1       2.085   4.652  19.682  0.00  0.00    +0.000 C 
BRANCH   6   7
ATOM      7  C   UNL     1       2.611   5.904  20.438  0.00  0.00    +0.000 C 
BRANCH   7   8
ATOM      8  C   UNL     1       2.109   7.204  19.866  0.00  0.00    +0.000 A 
ATOM      9  C   UNL     1       1.410   8.118  20.652  0.00  0.00    +0.000 A 
ATOM     10  N   UNL     1       0.983   9.314  20.181  0.00  0.00    +0.000 NA
ATOM     11  C   UNL     1       1.283   9.566  18.888  0.00  0.00    +0.000 A 
ATOM     12  C   UNL     1       1.975   8.665  18.099  0.00  0.00    +0.000 A 
ATOM     13  N   UNL     1       2.399   7.470  18.568  0.00  0.00    +0.000 NA
ENDBRANCH   7   8
ENDBRANCH   6   7
ENDBRANCH   1   6
BRANCH   3  14
ATOM     14  C   UNL     1       4.733   3.081  17.288  0.00  0.00    +0.000 C 
BRANCH  14  15
ATOM     15  N   UNL     1       5.749   3.878  16.629  0.00  0.00    +0.000 N 
ATOM     16  C   UNL     1       5.937   3.878  15.209  0.00  0.00    +0.000 C 
ATOM     17  C   UNL     1       6.966   4.972  15.044  0.00  0.00    +0.000 C 
ATOM     18  O   UNL     1       7.617   5.063  16.318  0.00  0.00    +0.000 OA
ATOM     19  C   UNL     1       6.795   4.497  17.254  0.00  0.00    +0.000 C 
ATOM     20  O   UNL     1       6.998   4.539  18.456  0.00  0.00    +0.000 OA
ENDBRANCH  14  15
ENDBRANCH   3  14
TORSDOF 5
ENDMDL
