MODEL 1
REMARK VINA RESULT:      -7.9      0.000      0.000
REMARK  Name = 
REMARK  4 active torsions:
REMARK  status: ('A' for Active; 'I' for Inactive)
REMARK    1  A    between atoms: C_1  and  S_2
REMARK    2  A    between atoms: S_2  and  C_3
REMARK    3  A    between atoms: C_5  and  C_6
REMARK    4  A    between atoms: C_13  and  C_14
REMARK                            x       y       z     vdW  Elec       q    Type
REMARK                         _______ _______ _______ _____ _____    ______ ____
ROOT
ATOM      1  C   UNL     1       5.046   5.425  16.764  0.00  0.00    +0.000 A 
ATOM      2  N   UNL     1       4.621   4.438  17.512  0.00  0.00    +0.000 NA
ATOM      3  C   UNL     1       3.590   4.976  18.254  0.00  0.00    +0.000 A 
ATOM      4  C   UNL     1       3.426   6.335  17.978  0.00  0.00    +0.000 A 
ATOM      5  N   UNL     1       4.365   6.572  16.993  0.00  0.00    +0.000 N 
ATOM      6  H   UNL     1       4.547   7.455  16.539  0.00  0.00    +0.000 HD
ENDROOT
BRANCH   3   7
ATOM      7  C   UNL     1       2.844   4.181  19.222  0.00  0.00    +0.000 A 
ATOM      8  C   UNL     1       3.510   3.631  20.327  0.00  0.00    +0.000 A 
ATOM      9  C   UNL     1       2.795   2.965  21.326  0.00  0.00    +0.000 A 
ATOM     10  C   UNL     1       1.413   2.849  21.221  0.00  0.00    +0.000 A 
ATOM     11  F   UNL     1       0.722   2.254  22.201  0.00  0.00    +0.000 F 
ATOM     12  C   UNL     1       0.738   3.345  20.114  0.00  0.00    +0.000 A 
ATOM     13  C   UNL     1       1.457   3.984  19.101  0.00  0.00    +0.000 A 
ENDBRANCH   3   7
BRANCH   4  14
ATOM     14  C   UNL     1       2.543   7.376  18.511  0.00  0.00    +0.000 A 
ATOM     15  C   UNL     1       2.102   8.430  17.694  0.00  0.00    +0.000 A 
ATOM     16  C   UNL     1       1.378   9.497  18.227  0.00  0.00    +0.000 A 
ATOM     17  C   UNL     1       1.044   9.488  19.573  0.00  0.00    +0.000 A 
ATOM     18  F   UNL     1       0.362  10.517  20.091  0.00  0.00    +0.000 F 
ATOM     19  C   UNL     1       1.413   8.428  20.392  0.00  0.00    +0.000 A 
ATOM     20  C   UNL     1       2.166   7.374  19.864  0.00  0.00    +0.000 A 
ENDBRANCH   4  14
BRANCH   1  22
ATOM     21  C   UNL     1       5.998   3.796  14.805  0.00  0.00    +0.000 C 
ATOM     22  S   UNL     1       6.303   5.396  15.586  0.00  0.00    +0.000 S 
ENDBRANCH   1  22
TORSDOF 3
ENDMDL
MODEL 2
REMARK VINA RESULT:      -7.9      0.173      1.067
REMARK  Name = 
REMARK  4 active torsions:
REMARK  status: ('A' for Active; 'I' for Inactive)
REMARK    1  A    between atoms: C_1  and  S_2
REMARK    2  A    between atoms: S_2  and  C_3
REMARK    3  A    between atoms: C_5  and  C_6
REMARK    4  A    between atoms: C_13  and  C_14
REMARK                            x       y       z     vdW  Elec       q    Type
REMARK                         _______ _______ _______ _____ _____    ______ ____
ROOT
ATOM      1  C   UNL     1       4.973   5.462  16.570  0.00  0.00    +0.000 A 
ATOM      2  N   UNL     1       4.545   4.469  17.310  0.00  0.00    +0.000 NA
ATOM      3  C   UNL     1       3.576   5.024  18.119  0.00  0.00    +0.000 A 
ATOM      4  C   UNL     1       3.454   6.396  17.892  0.00  0.00    +0.000 A 
ATOM      5  N   UNL     1       4.352   6.627  16.868  0.00  0.00    +0.000 N 
ATOM      6  H   UNL     1       4.547   7.516  16.431  0.00  0.00    +0.000 HD
ENDROOT
BRANCH   3   7
ATOM      7  C   UNL     1       2.847   4.228  19.100  0.00  0.00    +0.000 A 
ATOM      8  C   UNL     1       3.535   3.666  20.185  0.00  0.00    +0.000 A 
ATOM      9  C   UNL     1       2.839   2.999  21.197  0.00  0.00    +0.000 A 
ATOM     10  C   UNL     1       1.454   2.896  21.125  0.00  0.00    +0.000 A 
ATOM     11  F   UNL     1       0.782   2.300  22.117  0.00  0.00    +0.000 F 
ATOM     12  C   UNL     1       0.756   3.405  20.038  0.00  0.00    +0.000 A 
ATOM     13  C   UNL     1       1.456   4.044  19.012  0.00  0.00    +0.000 A 
ENDBRANCH   3   7
BRANCH   4  14
ATOM     14  C   UNL     1       2.643   7.454  18.500  0.00  0.00    +0.000 A 
ATOM     15  C   UNL     1       2.278   7.388  19.855  0.00  0.00    +0.000 A 
ATOM     16  C   UNL     1       1.393   8.316  20.407  0.00  0.00    +0.000 A 
ATOM     17  C   UNL     1       0.909   9.348  19.616  0.00  0.00    +0.000 A 
ATOM     18  F   UNL     1       0.049  10.232  20.137  0.00  0.00    +0.000 F 
ATOM     19  C   UNL     1       1.303   9.474  18.289  0.00  0.00    +0.000 A 
ATOM     20  C   UNL     1       2.166   8.525  17.729  0.00  0.00    +0.000 A 
ENDBRANCH   4  14
BRANCH   1  22
ATOM     21  C   UNL     1       6.024   3.705  14.779  0.00  0.00    +0.000 C 
ATOM     22  S   UNL     1       6.168   5.420  15.330  0.00  0.00    +0.000 S 
ENDBRANCH   1  22
TORSDOF 3
ENDMDL
MODEL 3
REMARK VINA RESULT:      -7.8      0.505      4.915
REMARK  Name = 
REMARK  4 active torsions:
REMARK  status: ('A' for Active; 'I' for Inactive)
REMARK    1  A    between atoms: C_1  and  S_2
REMARK    2  A    between atoms: S_2  and  C_3
REMARK    3  A    between atoms: C_5  and  C_6
REMARK    4  A    between atoms: C_13  and  C_14
REMARK                            x       y       z     vdW  Elec       q    Type
REMARK                         _______ _______ _______ _____ _____    ______ ____
ROOT
ATOM      1  C   UNL     1       4.789   5.535  16.542  0.00  0.00    +0.000 A 
ATOM      2  N   UNL     1       4.229   6.683  16.831  0.00  0.00    +0.000 NA
ATOM      3  C   UNL     1       3.416   6.417  17.914  0.00  0.00    +0.000 A 
ATOM      4  C   UNL     1       3.452   5.063  18.251  0.00  0.00    +0.000 A 
ATOM      5  N   UNL     1       4.369   4.540  17.360  0.00  0.00    +0.000 N 
ATOM      6  H   UNL     1       4.660   3.576  17.296  0.00  0.00    +0.000 HD
ENDROOT
BRANCH   3   7
ATOM      7  C   UNL     1       2.612   7.457  18.542  0.00  0.00    +0.000 A 
ATOM      8  C   UNL     1       2.126   8.521  17.767  0.00  0.00    +0.000 A 
ATOM      9  C   UNL     1       1.257   9.464  18.324  0.00  0.00    +0.000 A 
ATOM     10  C   UNL     1       0.874   9.344  19.655  0.00  0.00    +0.000 A 
ATOM     11  F   UNL     1       0.004  10.219  20.175  0.00  0.00    +0.000 F 
ATOM     12  C   UNL     1       1.377   8.326  20.453  0.00  0.00    +0.000 A 
ATOM     13  C   UNL     1       2.269   7.402  19.905  0.00  0.00    +0.000 A 
ENDBRANCH   3   7
BRANCH   4  14
ATOM     14  C   UNL     1       2.755   4.251  19.251  0.00  0.00    +0.000 A 
ATOM     15  C   UNL     1       1.376   4.007  19.142  0.00  0.00    +0.000 A 
ATOM     16  C   UNL     1       0.679   3.354  20.160  0.00  0.00    +0.000 A 
ATOM     17  C   UNL     1       1.370   2.893  21.271  0.00  0.00    +0.000 A 
ATOM     18  F   UNL     1       0.704   2.280  22.256  0.00  0.00    +0.000 F 
ATOM     19  C   UNL     1       2.746   3.066  21.376  0.00  0.00    +0.000 A 
ATOM     20  C   UNL     1       3.438   3.748  20.370  0.00  0.00    +0.000 A 
ENDBRANCH   4  14
BRANCH   1  22
ATOM     21  C   UNL     1       7.290   4.499  16.280  0.00  0.00    +0.000 C 
ATOM     22  S   UNL     1       5.939   5.198  15.304  0.00  0.00    +0.000 S 
ENDBRANCH   1  22
TORSDOF 3
ENDMDL
MODEL 4
REMARK VINA RESULT:      -7.7      0.669      1.594
REMARK  Name = 
REMARK  4 active torsions:
REMARK  status: ('A' for Active; 'I' for Inactive)
REMARK    1  A    between atoms: C_1  and  S_2
REMARK    2  A    between atoms: S_2  and  C_3
REMARK    3  A    between atoms: C_5  and  C_6
REMARK    4  A    between atoms: C_13  and  C_14
REMARK                            x       y       z     vdW  Elec       q    Type
REMARK                         _______ _______ _______ _____ _____    ______ ____
ROOT
ATOM      1  C   UNL     1       4.688   5.640  16.744  0.00  0.00    +0.000 A 
ATOM      2  N   UNL     1       4.261   4.701  17.552  0.00  0.00    +0.000 NA
ATOM      3  C   UNL     1       3.302   5.315  18.331  0.00  0.00    +0.000 A 
ATOM      4  C   UNL     1       3.186   6.669  18.015  0.00  0.00    +0.000 A 
ATOM      5  N   UNL     1       4.076   6.826  16.970  0.00  0.00    +0.000 N 
ATOM      6  H   UNL     1       4.273   7.683  16.474  0.00  0.00    +0.000 HD
ENDROOT
BRANCH   3   7
ATOM      7  C   UNL     1       2.577   4.590  19.368  0.00  0.00    +0.000 A 
ATOM      8  C   UNL     1       1.411   3.886  19.034  0.00  0.00    +0.000 A 
ATOM      9  C   UNL     1       0.767   3.091  19.986  0.00  0.00    +0.000 A 
ATOM     10  C   UNL     1       1.289   2.999  21.272  0.00  0.00    +0.000 A 
ATOM     11  F   UNL     1       0.701   2.200  22.170  0.00  0.00    +0.000 F 
ATOM     12  C   UNL     1       2.416   3.723  21.637  0.00  0.00    +0.000 A 
ATOM     13  C   UNL     1       3.041   4.540  20.694  0.00  0.00    +0.000 A 
ENDBRANCH   3   7
BRANCH   4  14
ATOM     14  C   UNL     1       2.387   7.770  18.558  0.00  0.00    +0.000 A 
ATOM     15  C   UNL     1       2.014   7.785  19.912  0.00  0.00    +0.000 A 
ATOM     16  C   UNL     1       1.138   8.753  20.406  0.00  0.00    +0.000 A 
ATOM     17  C   UNL     1       0.674   9.747  19.557  0.00  0.00    +0.000 A 
ATOM     18  F   UNL     1      -0.177  10.670  20.023  0.00  0.00    +0.000 F 
ATOM     19  C   UNL     1       1.077   9.794  18.227  0.00  0.00    +0.000 A 
ATOM     20  C   UNL     1       1.929   8.804  17.726  0.00  0.00    +0.000 A 
ENDBRANCH   4  14
BRANCH   1  22
ATOM     21  C   UNL     1       7.174   4.604  16.365  0.00  0.00    +0.000 C 
ATOM     22  S   UNL     1       5.871   5.509  15.499  0.00  0.00    +0.000 S 
ENDBRANCH   1  22
TORSDOF 3
ENDMDL
MODEL 5
REMARK VINA RESULT:      -7.7      0.257      4.871
REMARK  Name = 
REMARK  4 active torsions:
REMARK  status: ('A' for Active; 'I' for Inactive)
REMARK    1  A    between atoms: C_1  and  S_2
REMARK    2  A    between atoms: S_2  and  C_3
REMARK    3  A    between atoms: C_5  and  C_6
REMARK    4  A    between atoms: C_13  and  C_14
REMARK                            x       y       z     vdW  Elec       q    Type
REMARK                         _______ _______ _______ _____ _____    ______ ____
ROOT
ATOM      1  C   UNL     1       4.840   5.746  16.639  0.00  0.00    +0.000 A 
ATOM      2  N   UNL     1       4.195   6.856  16.897  0.00  0.00    +0.000 NA
ATOM      3  C   UNL     1       3.353   6.541  17.943  0.00  0.00    +0.000 A 
ATOM      4  C   UNL     1       3.462   5.192  18.288  0.00  0.00    +0.000 A 
ATOM      5  N   UNL     1       4.450   4.729  17.442  0.00  0.00    +0.000 N 
ATOM      6  H   UNL     1       4.806   3.785  17.396  0.00  0.00    +0.000 HD
ENDROOT
BRANCH   3   7
ATOM      7  C   UNL     1       2.455   7.527  18.530  0.00  0.00    +0.000 A 
ATOM      8  C   UNL     1       2.140   7.451  19.895  0.00  0.00    +0.000 A 
ATOM      9  C   UNL     1       1.376   8.452  20.503  0.00  0.00    +0.000 A 
ATOM     10  C   UNL     1       0.929   9.529  19.746  0.00  0.00    +0.000 A 
ATOM     11  F   UNL     1       0.239  10.512  20.337  0.00  0.00    +0.000 F 
ATOM     12  C   UNL     1       1.191   9.603  18.384  0.00  0.00    +0.000 A 
ATOM     13  C   UNL     1       1.928   8.587  17.772  0.00  0.00    +0.000 A 
ENDBRANCH   3   7
BRANCH   4  14
ATOM     14  C   UNL     1       2.775   4.339  19.261  0.00  0.00    +0.000 A 
ATOM     15  C   UNL     1       1.411   4.038  19.113  0.00  0.00    +0.000 A 
ATOM     16  C   UNL     1       0.717   3.343  20.105  0.00  0.00    +0.000 A 
ATOM     17  C   UNL     1       1.399   2.898  21.228  0.00  0.00    +0.000 A 
ATOM     18  F   UNL     1       0.734   2.244  22.188  0.00  0.00    +0.000 F 
ATOM     19  C   UNL     1       2.762   3.126  21.371  0.00  0.00    +0.000 A 
ATOM     20  C   UNL     1       3.450   3.850  20.390  0.00  0.00    +0.000 A 
ENDBRANCH   4  14
BRANCH   1  22
ATOM     21  C   UNL     1       6.084   3.677  15.386  0.00  0.00    +0.000 C 
ATOM     22  S   UNL     1       6.064   5.483  15.455  0.00  0.00    +0.000 S 
ENDBRANCH   1  22
TORSDOF 3
ENDMDL
MODEL 6
REMARK VINA RESULT:      -7.7      0.722      5.084
REMARK  Name = 
REMARK  4 active torsions:
REMARK  status: ('A' for Active; 'I' for Inactive)
REMARK    1  A    between atoms: C_1  and  S_2
REMARK    2  A    between atoms: S_2  and  C_3
REMARK    3  A    between atoms: C_5  and  C_6
REMARK    4  A    between atoms: C_13  and  C_14
REMARK                            x       y       z     vdW  Elec       q    Type
REMARK                         _______ _______ _______ _____ _____    ______ ____
ROOT
ATOM      1  C   UNL     1       4.680   5.838  16.739  0.00  0.00    +0.000 A 
ATOM      2  N   UNL     1       4.098   6.990  16.962  0.00  0.00    +0.000 NA
ATOM      3  C   UNL     1       3.241   6.755  18.016  0.00  0.00    +0.000 A 
ATOM      4  C   UNL     1       3.274   5.414  18.404  0.00  0.00    +0.000 A 
ATOM      5  N   UNL     1       4.234   4.870  17.573  0.00  0.00    +0.000 N 
ATOM      6  H   UNL     1       4.536   3.907  17.557  0.00  0.00    +0.000 HD
ENDROOT
BRANCH   3   7
ATOM      7  C   UNL     1       2.400   7.808  18.571  0.00  0.00    +0.000 A 
ATOM      8  C   UNL     1       1.896   8.809  17.727  0.00  0.00    +0.000 A 
ATOM      9  C   UNL     1       0.995   9.760  18.215  0.00  0.00    +0.000 A 
ATOM     10  C   UNL     1       0.596   9.710  19.546  0.00  0.00    +0.000 A 
ATOM     11  F   UNL     1      -0.303  10.590  20.001  0.00  0.00    +0.000 F 
ATOM     12  C   UNL     1       1.116   8.756  20.411  0.00  0.00    +0.000 A 
ATOM     13  C   UNL     1       2.040   7.825  19.930  0.00  0.00    +0.000 A 
ENDBRANCH   3   7
BRANCH   4  14
ATOM     14  C   UNL     1       2.540   4.631  19.402  0.00  0.00    +0.000 A 
ATOM     15  C   UNL     1       2.977   4.581  20.735  0.00  0.00    +0.000 A 
ATOM     16  C   UNL     1       2.369   3.729  21.659  0.00  0.00    +0.000 A 
ATOM     17  C   UNL     1       1.282   2.963  21.265  0.00  0.00    +0.000 A 
ATOM     18  F   UNL     1       0.704   2.135  22.143  0.00  0.00    +0.000 F 
ATOM     19  C   UNL     1       0.788   3.040  19.968  0.00  0.00    +0.000 A 
ATOM     20  C   UNL     1       1.419   3.870  19.034  0.00  0.00    +0.000 A 
ENDBRANCH   4  14
BRANCH   1  22
ATOM     21  C   UNL     1       7.073   4.555  16.577  0.00  0.00    +0.000 C 
ATOM     22  S   UNL     1       5.886   5.470  15.566  0.00  0.00    +0.000 S 
ENDBRANCH   1  22
TORSDOF 3
ENDMDL
MODEL 7
REMARK VINA RESULT:      -7.6      0.678      1.194
REMARK  Name = 
REMARK  4 active torsions:
REMARK  status: ('A' for Active; 'I' for Inactive)
REMARK    1  A    between atoms: C_1  and  S_2
REMARK    2  A    between atoms: S_2  and  C_3
REMARK    3  A    between atoms: C_5  and  C_6
REMARK    4  A    between atoms: C_13  and  C_14
REMARK                            x       y       z     vdW  Elec       q    Type
REMARK                         _______ _______ _______ _____ _____    ______ ____
ROOT
ATOM      1  C   UNL     1       4.689   5.632  16.776  0.00  0.00    +0.000 A 
ATOM      2  N   UNL     1       4.266   4.691  17.582  0.00  0.00    +0.000 NA
ATOM      3  C   UNL     1       3.284   5.292  18.343  0.00  0.00    +0.000 A 
ATOM      4  C   UNL     1       3.151   6.643  18.018  0.00  0.00    +0.000 A 
ATOM      5  N   UNL     1       4.054   6.810  16.986  0.00  0.00    +0.000 N 
ATOM      6  H   UNL     1       4.243   7.667  16.488  0.00  0.00    +0.000 HD
ENDROOT
BRANCH   3   7
ATOM      7  C   UNL     1       2.556   4.561  19.373  0.00  0.00    +0.000 A 
ATOM      8  C   UNL     1       1.412   3.828  19.024  0.00  0.00    +0.000 A 
ATOM      9  C   UNL     1       0.767   3.027  19.971  0.00  0.00    +0.000 A 
ATOM     10  C   UNL     1       1.267   2.958  21.266  0.00  0.00    +0.000 A 
ATOM     11  F   UNL     1       0.679   2.154  22.161  0.00  0.00    +0.000 F 
ATOM     12  C   UNL     1       2.371   3.709  21.647  0.00  0.00    +0.000 A 
ATOM     13  C   UNL     1       2.996   4.532  20.707  0.00  0.00    +0.000 A 
ENDBRANCH   3   7
BRANCH   4  14
ATOM     14  C   UNL     1       2.324   7.733  18.543  0.00  0.00    +0.000 A 
ATOM     15  C   UNL     1       1.941   8.803  17.719  0.00  0.00    +0.000 A 
ATOM     16  C   UNL     1       1.274   9.911  18.244  0.00  0.00    +0.000 A 
ATOM     17  C   UNL     1       0.938   9.929  19.590  0.00  0.00    +0.000 A 
ATOM     18  F   UNL     1       0.311  10.995  20.101  0.00  0.00    +0.000 F 
ATOM     19  C   UNL     1       1.249   8.855  20.416  0.00  0.00    +0.000 A 
ATOM     20  C   UNL     1       1.946   7.759  19.895  0.00  0.00    +0.000 A 
ENDBRANCH   4  14
BRANCH   1  22
ATOM     21  C   UNL     1       7.183   4.604  16.429  0.00  0.00    +0.000 C 
ATOM     22  S   UNL     1       5.893   5.516  15.550  0.00  0.00    +0.000 S 
ENDBRANCH   1  22
TORSDOF 3
ENDMDL
MODEL 8
REMARK VINA RESULT:      -7.6      0.727      5.067
REMARK  Name = 
REMARK  4 active torsions:
REMARK  status: ('A' for Active; 'I' for Inactive)
REMARK    1  A    between atoms: C_1  and  S_2
REMARK    2  A    between atoms: S_2  and  C_3
REMARK    3  A    between atoms: C_5  and  C_6
REMARK    4  A    between atoms: C_13  and  C_14
REMARK                            x       y       z     vdW  Elec       q    Type
REMARK                         _______ _______ _______ _____ _____    ______ ____
ROOT
ATOM      1  C   UNL     1       4.753   5.752  16.824  0.00  0.00    +0.000 A 
ATOM      2  N   UNL     1       4.141   6.897  16.997  0.00  0.00    +0.000 NA
ATOM      3  C   UNL     1       3.254   6.671  18.029  0.00  0.00    +0.000 A 
ATOM      4  C   UNL     1       3.302   5.341  18.453  0.00  0.00    +0.000 A 
ATOM      5  N   UNL     1       4.300   4.796  17.669  0.00  0.00    +0.000 N 
ATOM      6  H   UNL     1       4.622   3.840  17.688  0.00  0.00    +0.000 HD
ENDROOT
BRANCH   3   7
ATOM      7  C   UNL     1       2.374   7.720  18.529  0.00  0.00    +0.000 A 
ATOM      8  C   UNL     1       2.016   7.736  19.885  0.00  0.00    +0.000 A 
ATOM      9  C   UNL     1       1.270   8.796  20.408  0.00  0.00    +0.000 A 
ATOM     10  C   UNL     1       0.882   9.840  19.575  0.00  0.00    +0.000 A 
ATOM     11  F   UNL     1       0.210  10.879  20.085  0.00  0.00    +0.000 F 
ATOM     12  C   UNL     1       1.186   9.823  18.221  0.00  0.00    +0.000 A 
ATOM     13  C   UNL     1       1.905   8.748  17.693  0.00  0.00    +0.000 A 
ENDBRANCH   3   7
BRANCH   4  14
ATOM     14  C   UNL     1       2.553   4.569  19.447  0.00  0.00    +0.000 A 
ATOM     15  C   UNL     1       2.985   4.508  20.782  0.00  0.00    +0.000 A 
ATOM     16  C   UNL     1       2.359   3.666  21.703  0.00  0.00    +0.000 A 
ATOM     17  C   UNL     1       1.260   2.918  21.303  0.00  0.00    +0.000 A 
ATOM     18  F   UNL     1       0.666   2.098  22.178  0.00  0.00    +0.000 F 
ATOM     19  C   UNL     1       0.772   3.006  20.005  0.00  0.00    +0.000 A 
ATOM     20  C   UNL     1       1.420   3.827  19.075  0.00  0.00    +0.000 A 
ENDBRANCH   4  14
BRANCH   1  22
ATOM     21  C   UNL     1       7.252   4.680  16.804  0.00  0.00    +0.000 C 
ATOM     22  S   UNL     1       6.005   5.379  15.700  0.00  0.00    +0.000 S 
ENDBRANCH   1  22
TORSDOF 3
ENDMDL
MODEL 9
REMARK VINA RESULT:      -7.4      3.241      5.754
REMARK  Name = 
REMARK  4 active torsions:
REMARK  status: ('A' for Active; 'I' for Inactive)
REMARK    1  A    between atoms: C_1  and  S_2
REMARK    2  A    between atoms: S_2  and  C_3
REMARK    3  A    between atoms: C_5  and  C_6
REMARK    4  A    between atoms: C_13  and  C_14
REMARK                            x       y       z     vdW  Elec       q    Type
REMARK                         _______ _______ _______ _____ _____    ______ ____
ROOT
ATOM      1  C   UNL     1       6.150   3.971  13.992  0.00  0.00    +0.000 A 
ATOM      2  N   UNL     1       6.936   4.826  14.598  0.00  0.00    +0.000 NA
ATOM      3  C   UNL     1       6.352   5.031  15.831  0.00  0.00    +0.000 A 
ATOM      4  C   UNL     1       5.158   4.317  15.948  0.00  0.00    +0.000 A 
ATOM      5  N   UNL     1       5.084   3.628  14.753  0.00  0.00    +0.000 N 
ATOM      6  H   UNL     1       4.347   3.000  14.468  0.00  0.00    +0.000 HD
ENDROOT
BRANCH   3   7
ATOM      7  C   UNL     1       6.937   5.932  16.816  0.00  0.00    +0.000 A 
ATOM      8  C   UNL     1       7.489   5.407  17.993  0.00  0.00    +0.000 A 
ATOM      9  C   UNL     1       8.157   6.239  18.896  0.00  0.00    +0.000 A 
ATOM     10  C   UNL     1       8.275   7.597  18.621  0.00  0.00    +0.000 A 
ATOM     11  F   UNL     1       8.956   8.386  19.460  0.00  0.00    +0.000 F 
ATOM     12  C   UNL     1       7.697   8.147  17.485  0.00  0.00    +0.000 A 
ATOM     13  C   UNL     1       7.003   7.320  16.599  0.00  0.00    +0.000 A 
ENDBRANCH   3   7
BRANCH   4  14
ATOM     14  C   UNL     1       4.135   4.223  16.992  0.00  0.00    +0.000 A 
ATOM     15  C   UNL     1       3.717   2.972  17.475  0.00  0.00    +0.000 A 
ATOM     16  C   UNL     1       2.647   2.867  18.366  0.00  0.00    +0.000 A 
ATOM     17  C   UNL     1       2.025   4.020  18.821  0.00  0.00    +0.000 A 
ATOM     18  F   UNL     1       0.990   3.923  19.665  0.00  0.00    +0.000 F 
ATOM     19  C   UNL     1       2.459   5.274  18.409  0.00  0.00    +0.000 A 
ATOM     20  C   UNL     1       3.510   5.377  17.491  0.00  0.00    +0.000 A 
ENDBRANCH   4  14
BRANCH   1  22
ATOM     21  C   UNL     1       4.640   3.350  11.817  0.00  0.00    +0.000 C 
ATOM     22  S   UNL     1       6.341   3.282  12.425  0.00  0.00    +0.000 S 
ENDBRANCH   1  22
TORSDOF 3
ENDMDL
