MODEL 1
REMARK VINA RESULT:      -6.8      0.000      0.000
REMARK  Name = 
REMARK  6 active torsions:
REMARK  status: ('A' for Active; 'I' for Inactive)
REMARK    1  A    between atoms: C_1  and  C_2
REMARK    2  A    between atoms: C_2  and  O_3
REMARK    3  A    between atoms: O_3  and  C_4
REMARK    4  A    between atoms: C_4  and  C_6
REMARK    5  A    between atoms: C_6  and  C_7
REMARK    6  A    between atoms: N_15  and  C_16
REMARK                            x       y       z     vdW  Elec       q    Type
REMARK                         _______ _______ _______ _____ _____    ______ ____
ROOT
ATOM      1  C   UNL     1       3.314   5.003  18.261  0.00  0.00    +0.000 C 
ATOM      2  C   UNL     1       4.110   5.034  16.922  0.00  0.00    +0.000 C 
ATOM      3  C   UNL     1       5.399   5.843  17.034  0.00  0.00    +0.000 C 
ATOM      4  N   UNL     1       6.284   5.288  18.063  0.00  0.00    +0.000 NA
ATOM      5  C   UNL     1       7.496   6.103  18.168  0.00  0.00    +0.000 C 
ATOM      6  C   UNL     1       5.622   5.203  19.369  0.00  0.00    +0.000 C 
ATOM      7  C   UNL     1       4.320   4.407  19.291  0.00  0.00    +0.000 C 
ENDROOT
BRANCH   1   8
ATOM      8  C   UNL     1       2.737   6.378  18.665  0.00  0.00    +0.000 A 
ATOM      9  C   UNL     1       2.648   7.440  17.746  0.00  0.00    +0.000 A 
ATOM     10  C   UNL     1       2.061   8.660  18.098  0.00  0.00    +0.000 A 
ATOM     11  C   UNL     1       1.574   8.858  19.384  0.00  0.00    +0.000 A 
ATOM     12  C   UNL     1       1.699   7.845  20.327  0.00  0.00    +0.000 A 
ATOM     13  C   UNL     1       2.287   6.627  19.975  0.00  0.00    +0.000 A 
ENDBRANCH   1   8
BRANCH   1  14
ATOM     14  C   UNL     1       2.167   3.982  18.150  0.00  0.00    +0.000 C 
ATOM     15  O   UNL     1       1.289   4.015  17.295  0.00  0.00    +0.000 OA
BRANCH  14  16
ATOM     16  O   UNL     1       2.223   3.063  19.158  0.00  0.00    +0.000 OA
BRANCH  16  18
ATOM     17  C   UNL     1       1.520   2.892  21.435  0.00  0.00    +0.000 C 
ATOM     18  C   UNL     1       1.058   2.988  19.991  0.00  0.00    +0.000 C 
ENDBRANCH  16  18
ENDBRANCH  14  16
ENDBRANCH   1  14
TORSDOF 4
ENDMDL
MODEL 2
REMARK VINA RESULT:      -6.8      0.134      1.139
REMARK  Name = 
REMARK  6 active torsions:
REMARK  status: ('A' for Active; 'I' for Inactive)
REMARK    1  A    between atoms: C_1  and  C_2
REMARK    2  A    between atoms: C_2  and  O_3
REMARK    3  A    between atoms: O_3  and  C_4
REMARK    4  A    between atoms: C_4  and  C_6
REMARK    5  A    between atoms: C_6  and  C_7
REMARK    6  A    between atoms: N_15  and  C_16
REMARK                            x       y       z     vdW  Elec       q    Type
REMARK                         _______ _______ _______ _____ _____    ______ ____
ROOT
ATOM      1  C   UNL     1       3.372   4.928  18.239  0.00  0.00    +0.000 C 
ATOM      2  C   UNL     1       4.167   5.013  16.901  0.00  0.00    +0.000 C 
ATOM      3  C   UNL     1       5.411   5.888  17.024  0.00  0.00    +0.000 C 
ATOM      4  N   UNL     1       6.324   5.371  18.049  0.00  0.00    +0.000 NA
ATOM      5  C   UNL     1       7.491   6.248  18.163  0.00  0.00    +0.000 C 
ATOM      6  C   UNL     1       5.665   5.239  19.353  0.00  0.00    +0.000 C 
ATOM      7  C   UNL     1       4.407   4.376  19.265  0.00  0.00    +0.000 C 
ENDROOT
BRANCH   1   8
ATOM      8  C   UNL     1       2.723   6.266  18.654  0.00  0.00    +0.000 A 
ATOM      9  C   UNL     1       2.267   6.491  19.967  0.00  0.00    +0.000 A 
ATOM     10  C   UNL     1       1.744   7.729  20.355  0.00  0.00    +0.000 A 
ATOM     11  C   UNL     1       1.638   8.764  19.434  0.00  0.00    +0.000 A 
ATOM     12  C   UNL     1       2.030   8.552  18.118  0.00  0.00    +0.000 A 
ATOM     13  C   UNL     1       2.552   7.314  17.730  0.00  0.00    +0.000 A 
ENDBRANCH   1   8
BRANCH   1  14
ATOM     14  C   UNL     1       2.281   3.849  18.117  0.00  0.00    +0.000 C 
ATOM     15  O   UNL     1       1.430   3.819  17.234  0.00  0.00    +0.000 OA
BRANCH  14  16
ATOM     16  O   UNL     1       2.349   2.956  19.147  0.00  0.00    +0.000 OA
BRANCH  16  18
ATOM     17  C   UNL     1       1.543   2.925  21.396  0.00  0.00    +0.000 C 
ATOM     18  C   UNL     1       1.156   2.826  19.931  0.00  0.00    +0.000 C 
ENDBRANCH  16  18
ENDBRANCH  14  16
ENDBRANCH   1  14
TORSDOF 4
ENDMDL
MODEL 3
REMARK VINA RESULT:      -6.4      0.849      1.058
REMARK  Name = 
REMARK  6 active torsions:
REMARK  status: ('A' for Active; 'I' for Inactive)
REMARK    1  A    between atoms: C_1  and  C_2
REMARK    2  A    between atoms: C_2  and  O_3
REMARK    3  A    between atoms: O_3  and  C_4
REMARK    4  A    between atoms: C_4  and  C_6
REMARK    5  A    between atoms: C_6  and  C_7
REMARK    6  A    between atoms: N_15  and  C_16
REMARK                            x       y       z     vdW  Elec       q    Type
REMARK                         _______ _______ _______ _____ _____    ______ ____
ROOT
ATOM      1  C   UNL     1       3.363   5.280  18.264  0.00  0.00    +0.000 C 
ATOM      2  C   UNL     1       4.146   5.265  16.917  0.00  0.00    +0.000 C 
ATOM      3  C   UNL     1       5.408   6.120  16.974  0.00  0.00    +0.000 C 
ATOM      4  N   UNL     1       6.320   5.650  18.022  0.00  0.00    +0.000 NA
ATOM      5  C   UNL     1       7.506   6.508  18.071  0.00  0.00    +0.000 C 
ATOM      6  C   UNL     1       5.672   5.614  19.337  0.00  0.00    +0.000 C 
ATOM      7  C   UNL     1       4.396   4.773  19.314  0.00  0.00    +0.000 C 
ENDROOT
BRANCH   1   8
ATOM      8  C   UNL     1       2.745   6.655  18.600  0.00  0.00    +0.000 A 
ATOM      9  C   UNL     1       2.644   7.676  17.636  0.00  0.00    +0.000 A 
ATOM     10  C   UNL     1       2.021   8.893  17.927  0.00  0.00    +0.000 A 
ATOM     11  C   UNL     1       1.506   9.132  19.195  0.00  0.00    +0.000 A 
ATOM     12  C   UNL     1       1.640   8.162  20.182  0.00  0.00    +0.000 A 
ATOM     13  C   UNL     1       2.265   6.946  19.891  0.00  0.00    +0.000 A 
ENDBRANCH   1   8
BRANCH   1  14
ATOM     14  C   UNL     1       2.249   4.218  18.219  0.00  0.00    +0.000 C 
ATOM     15  O   UNL     1       1.368   4.172  17.368  0.00  0.00    +0.000 OA
BRANCH  14  16
ATOM     16  O   UNL     1       2.338   3.362  19.278  0.00  0.00    +0.000 OA
BRANCH  16  18
ATOM     17  C   UNL     1       3.446   1.457  18.356  0.00  0.00    +0.000 C 
ATOM     18  C   UNL     1       2.156   1.974  18.968  0.00  0.00    +0.000 C 
ENDBRANCH  16  18
ENDBRANCH  14  16
ENDBRANCH   1  14
TORSDOF 4
ENDMDL
MODEL 4
REMARK VINA RESULT:      -6.3      2.238      4.306
REMARK  Name = 
REMARK  6 active torsions:
REMARK  status: ('A' for Active; 'I' for Inactive)
REMARK    1  A    between atoms: C_1  and  C_2
REMARK    2  A    between atoms: C_2  and  O_3
REMARK    3  A    between atoms: O_3  and  C_4
REMARK    4  A    between atoms: C_4  and  C_6
REMARK    5  A    between atoms: C_6  and  C_7
REMARK    6  A    between atoms: N_15  and  C_16
REMARK                            x       y       z     vdW  Elec       q    Type
REMARK                         _______ _______ _______ _____ _____    ______ ____
ROOT
ATOM      1  C   UNL     1       4.173   4.573  18.904  0.00  0.00    +0.000 C 
ATOM      2  C   UNL     1       3.707   3.720  20.122  0.00  0.00    +0.000 C 
ATOM      3  C   UNL     1       2.251   3.280  19.996  0.00  0.00    +0.000 C 
ATOM      4  N   UNL     1       2.044   2.476  18.786  0.00  0.00    +0.000 NA
ATOM      5  C   UNL     1       0.634   2.096  18.678  0.00  0.00    +0.000 C 
ATOM      6  C   UNL     1       2.467   3.187  17.575  0.00  0.00    +0.000 C 
ATOM      7  C   UNL     1       3.919   3.653  17.673  0.00  0.00    +0.000 C 
ENDROOT
BRANCH   1   8
ATOM      8  C   UNL     1       3.479   5.950  18.817  0.00  0.00    +0.000 A 
ATOM      9  C   UNL     1       3.639   6.788  17.698  0.00  0.00    +0.000 A 
ATOM     10  C   UNL     1       2.953   8.003  17.594  0.00  0.00    +0.000 A 
ATOM     11  C   UNL     1       2.113   8.423  18.618  0.00  0.00    +0.000 A 
ATOM     12  C   UNL     1       1.980   7.641  19.759  0.00  0.00    +0.000 A 
ATOM     13  C   UNL     1       2.667   6.427  19.863  0.00  0.00    +0.000 A 
ENDBRANCH   1   8
BRANCH   1  14
ATOM     14  C   UNL     1       5.697   4.773  18.975  0.00  0.00    +0.000 C 
ATOM     15  O   UNL     1       6.262   5.540  19.749  0.00  0.00    +0.000 OA
BRANCH  14  16
ATOM     16  O   UNL     1       6.340   4.027  18.030  0.00  0.00    +0.000 OA
BRANCH  16  18
ATOM     17  C   UNL     1       6.898   5.496  16.230  0.00  0.00    +0.000 C 
ATOM     18  C   UNL     1       7.445   4.671  17.382  0.00  0.00    +0.000 C 
ENDBRANCH  16  18
ENDBRANCH  14  16
ENDBRANCH   1  14
TORSDOF 4
ENDMDL
MODEL 5
REMARK VINA RESULT:      -6.3      2.353      4.335
REMARK  Name = 
REMARK  6 active torsions:
REMARK  status: ('A' for Active; 'I' for Inactive)
REMARK    1  A    between atoms: C_1  and  C_2
REMARK    2  A    between atoms: C_2  and  O_3
REMARK    3  A    between atoms: O_3  and  C_4
REMARK    4  A    between atoms: C_4  and  C_6
REMARK    5  A    between atoms: C_6  and  C_7
REMARK    6  A    between atoms: N_15  and  C_16
REMARK                            x       y       z     vdW  Elec       q    Type
REMARK                         _______ _______ _______ _____ _____    ______ ____
ROOT
ATOM      1  C   UNL     1       4.454   4.438  18.392  0.00  0.00    +0.000 C 
ATOM      2  C   UNL     1       4.250   3.532  19.643  0.00  0.00    +0.000 C 
ATOM      3  C   UNL     1       2.805   3.064  19.787  0.00  0.00    +0.000 C 
ATOM      4  N   UNL     1       2.377   2.298  18.612  0.00  0.00    +0.000 NA
ATOM      5  C   UNL     1       0.979   1.891  18.766  0.00  0.00    +0.000 C 
ATOM      6  C   UNL     1       2.542   3.061  17.370  0.00  0.00    +0.000 C 
ATOM      7  C   UNL     1       3.979   3.556  17.199  0.00  0.00    +0.000 C 
ENDROOT
BRANCH   1   8
ATOM      8  C   UNL     1       3.736   5.801  18.495  0.00  0.00    +0.000 A 
ATOM      9  C   UNL     1       3.850   6.775  17.486  0.00  0.00    +0.000 A 
ATOM     10  C   UNL     1       3.142   7.979  17.552  0.00  0.00    +0.000 A 
ATOM     11  C   UNL     1       2.325   8.252  18.642  0.00  0.00    +0.000 A 
ATOM     12  C   UNL     1       2.237   7.332  19.679  0.00  0.00    +0.000 A 
ATOM     13  C   UNL     1       2.946   6.129  19.613  0.00  0.00    +0.000 A 
ENDBRANCH   1   8
BRANCH   1  14
ATOM     14  C   UNL     1       5.960   4.670  18.171  0.00  0.00    +0.000 C 
ATOM     15  O   UNL     1       6.576   4.325  17.168  0.00  0.00    +0.000 OA
BRANCH  14  16
ATOM     16  O   UNL     1       6.535   5.265  19.257  0.00  0.00    +0.000 OA
BRANCH  16  18
ATOM     17  C   UNL     1       7.854   7.030  18.334  0.00  0.00    +0.000 C 
ATOM     18  C   UNL     1       7.887   5.706  19.077  0.00  0.00    +0.000 C 
ENDBRANCH  16  18
ENDBRANCH  14  16
ENDBRANCH   1  14
TORSDOF 4
ENDMDL
MODEL 6
REMARK VINA RESULT:      -6.2      2.168      4.490
REMARK  Name = 
REMARK  6 active torsions:
REMARK  status: ('A' for Active; 'I' for Inactive)
REMARK    1  A    between atoms: C_1  and  C_2
REMARK    2  A    between atoms: C_2  and  O_3
REMARK    3  A    between atoms: O_3  and  C_4
REMARK    4  A    between atoms: C_4  and  C_6
REMARK    5  A    between atoms: C_6  and  C_7
REMARK    6  A    between atoms: N_15  and  C_16
REMARK                            x       y       z     vdW  Elec       q    Type
REMARK                         _______ _______ _______ _____ _____    ______ ____
ROOT
ATOM      1  C   UNL     1       4.018   4.984  18.798  0.00  0.00    +0.000 C 
ATOM      2  C   UNL     1       3.720   4.015  19.981  0.00  0.00    +0.000 C 
ATOM      3  C   UNL     1       2.305   3.448  19.920  0.00  0.00    +0.000 C 
ATOM      4  N   UNL     1       2.085   2.706  18.673  0.00  0.00    +0.000 NA
ATOM      5  C   UNL     1       0.711   2.202  18.631  0.00  0.00    +0.000 C 
ATOM      6  C   UNL     1       2.354   3.531  17.490  0.00  0.00    +0.000 C 
ATOM      7  C   UNL     1       3.762   4.125  17.525  0.00  0.00    +0.000 C 
ENDROOT
BRANCH   1   8
ATOM      8  C   UNL     1       3.199   6.292  18.854  0.00  0.00    +0.000 A 
ATOM      9  C   UNL     1       2.470   6.660  20.000  0.00  0.00    +0.000 A 
ATOM     10  C   UNL     1       1.786   7.878  20.069  0.00  0.00    +0.000 A 
ATOM     11  C   UNL     1       1.792   8.747  18.985  0.00  0.00    +0.000 A 
ATOM     12  C   UNL     1       2.459   8.385  17.821  0.00  0.00    +0.000 A 
ATOM     13  C   UNL     1       3.140   7.166  17.751  0.00  0.00    +0.000 A 
ENDBRANCH   1   8
BRANCH   1  14
ATOM     14  C   UNL     1       5.520   5.324  18.784  0.00  0.00    +0.000 C 
ATOM     15  O   UNL     1       6.257   5.254  19.762  0.00  0.00    +0.000 OA
BRANCH  14  16
ATOM     16  O   UNL     1       5.917   5.763  17.554  0.00  0.00    +0.000 OA
BRANCH  16  18
ATOM     17  C   UNL     1       7.507   7.546  17.500  0.00  0.00    +0.000 C 
ATOM     18  C   UNL     1       7.317   6.041  17.419  0.00  0.00    +0.000 C 
ENDBRANCH  16  18
ENDBRANCH  14  16
ENDBRANCH   1  14
TORSDOF 4
ENDMDL
MODEL 7
REMARK VINA RESULT:      -6.2      0.884      1.562
REMARK  Name = 
REMARK  6 active torsions:
REMARK  status: ('A' for Active; 'I' for Inactive)
REMARK    1  A    between atoms: C_1  and  C_2
REMARK    2  A    between atoms: C_2  and  O_3
REMARK    3  A    between atoms: O_3  and  C_4
REMARK    4  A    between atoms: C_4  and  C_6
REMARK    5  A    between atoms: C_6  and  C_7
REMARK    6  A    between atoms: N_15  and  C_16
REMARK                            x       y       z     vdW  Elec       q    Type
REMARK                         _______ _______ _______ _____ _____    ______ ____
ROOT
ATOM      1  C   UNL     1       3.350   5.263  18.256  0.00  0.00    +0.000 C 
ATOM      2  C   UNL     1       4.108   5.297  16.895  0.00  0.00    +0.000 C 
ATOM      3  C   UNL     1       5.339   6.198  16.943  0.00  0.00    +0.000 C 
ATOM      4  N   UNL     1       6.286   5.747  17.967  0.00  0.00    +0.000 NA
ATOM      5  C   UNL     1       7.439   6.649  18.008  0.00  0.00    +0.000 C 
ATOM      6  C   UNL     1       5.664   5.668  19.293  0.00  0.00    +0.000 C 
ATOM      7  C   UNL     1       4.419   4.780  19.279  0.00  0.00    +0.000 C 
ENDROOT
BRANCH   1   8
ATOM      8  C   UNL     1       2.687   6.609  18.623  0.00  0.00    +0.000 A 
ATOM      9  C   UNL     1       2.210   6.868  19.922  0.00  0.00    +0.000 A 
ATOM     10  C   UNL     1       1.673   8.113  20.266  0.00  0.00    +0.000 A 
ATOM     11  C   UNL     1       1.576   9.121  19.315  0.00  0.00    +0.000 A 
ATOM     12  C   UNL     1       1.989   8.875  18.012  0.00  0.00    +0.000 A 
ATOM     13  C   UNL     1       2.523   7.629  17.667  0.00  0.00    +0.000 A 
ENDBRANCH   1   8
BRANCH   1  14
ATOM     14  C   UNL     1       2.276   4.161  18.214  0.00  0.00    +0.000 C 
ATOM     15  O   UNL     1       1.385   4.091  17.374  0.00  0.00    +0.000 OA
BRANCH  14  16
ATOM     16  O   UNL     1       2.410   3.298  19.263  0.00  0.00    +0.000 OA
BRANCH  16  18
ATOM     17  C   UNL     1       3.520   1.365  18.402  0.00  0.00    +0.000 C 
ATOM     18  C   UNL     1       2.214   1.912  18.953  0.00  0.00    +0.000 C 
ENDBRANCH  16  18
ENDBRANCH  14  16
ENDBRANCH   1  14
TORSDOF 4
ENDMDL
MODEL 8
REMARK VINA RESULT:      -6.1      2.327      4.486
REMARK  Name = 
REMARK  6 active torsions:
REMARK  status: ('A' for Active; 'I' for Inactive)
REMARK    1  A    between atoms: C_1  and  C_2
REMARK    2  A    between atoms: C_2  and  O_3
REMARK    3  A    between atoms: O_3  and  C_4
REMARK    4  A    between atoms: C_4  and  C_6
REMARK    5  A    between atoms: C_6  and  C_7
REMARK    6  A    between atoms: N_15  and  C_16
REMARK                            x       y       z     vdW  Elec       q    Type
REMARK                         _______ _______ _______ _____ _____    ______ ____
ROOT
ATOM      1  C   UNL     1       4.419   4.586  18.274  0.00  0.00    +0.000 C 
ATOM      2  C   UNL     1       4.344   3.672  19.534  0.00  0.00    +0.000 C 
ATOM      3  C   UNL     1       2.941   3.117  19.762  0.00  0.00    +0.000 C 
ATOM      4  N   UNL     1       2.492   2.325  18.612  0.00  0.00    +0.000 NA
ATOM      5  C   UNL     1       1.133   1.833  18.849  0.00  0.00    +0.000 C 
ATOM      6  C   UNL     1       2.536   3.095  17.365  0.00  0.00    +0.000 C 
ATOM      7  C   UNL     1       3.927   3.676  17.110  0.00  0.00    +0.000 C 
ENDROOT
BRANCH   1   8
ATOM      8  C   UNL     1       3.627   5.904  18.424  0.00  0.00    +0.000 A 
ATOM      9  C   UNL     1       2.852   6.174  19.567  0.00  0.00    +0.000 A 
ATOM     10  C   UNL     1       2.193   7.397  19.728  0.00  0.00    +0.000 A 
ATOM     11  C   UNL     1       2.270   8.370  18.739  0.00  0.00    +0.000 A 
ATOM     12  C   UNL     1       2.983   8.108  17.575  0.00  0.00    +0.000 A 
ATOM     13  C   UNL     1       3.640   6.884  17.414  0.00  0.00    +0.000 A 
ENDBRANCH   1   8
BRANCH   1  14
ATOM     14  C   UNL     1       5.892   4.910  17.965  0.00  0.00    +0.000 C 
ATOM     15  O   UNL     1       6.523   4.440  17.024  0.00  0.00    +0.000 OA
BRANCH  14  16
ATOM     16  O   UNL     1       6.423   5.748  18.902  0.00  0.00    +0.000 OA
BRANCH  16  18
ATOM     17  C   UNL     1       7.563   7.479  17.714  0.00  0.00    +0.000 C 
ATOM     18  C   UNL     1       7.728   6.259  18.605  0.00  0.00    +0.000 C 
ENDBRANCH  16  18
ENDBRANCH  14  16
ENDBRANCH   1  14
TORSDOF 4
ENDMDL
MODEL 9
REMARK VINA RESULT:      -6.0      2.116      4.597
REMARK  Name = 
REMARK  6 active torsions:
REMARK  status: ('A' for Active; 'I' for Inactive)
REMARK    1  A    between atoms: C_1  and  C_2
REMARK    2  A    between atoms: C_2  and  O_3
REMARK    3  A    between atoms: O_3  and  C_4
REMARK    4  A    between atoms: C_4  and  C_6
REMARK    5  A    between atoms: C_6  and  C_7
REMARK    6  A    between atoms: N_15  and  C_16
REMARK                            x       y       z     vdW  Elec       q    Type
REMARK                         _______ _______ _______ _____ _____    ______ ____
ROOT
ATOM      1  C   UNL     1       3.279   5.490  18.789  0.00  0.00    +0.000 C 
ATOM      2  C   UNL     1       2.516   4.715  17.673  0.00  0.00    +0.000 C 
ATOM      3  C   UNL     1       3.065   3.306  17.470  0.00  0.00    +0.000 C 
ATOM      4  N   UNL     1       2.969   2.518  18.703  0.00  0.00    +0.000 NA
ATOM      5  C   UNL     1       3.531   1.183  18.485  0.00  0.00    +0.000 C 
ATOM      6  C   UNL     1       3.649   3.171  19.827  0.00  0.00    +0.000 C 
ATOM      7  C   UNL     1       3.130   4.591  20.051  0.00  0.00    +0.000 C 
ENDROOT
BRANCH   1   8
ATOM      8  C   UNL     1       4.741   5.820  18.417  0.00  0.00    +0.000 A 
ATOM      9  C   UNL     1       5.806   5.555  19.299  0.00  0.00    +0.000 A 
ATOM     10  C   UNL     1       7.134   5.792  18.930  0.00  0.00    +0.000 A 
ATOM     11  C   UNL     1       7.430   6.323  17.681  0.00  0.00    +0.000 A 
ATOM     12  C   UNL     1       6.395   6.645  16.811  0.00  0.00    +0.000 A 
ATOM     13  C   UNL     1       5.067   6.411  17.182  0.00  0.00    +0.000 A 
ENDBRANCH   1   8
BRANCH   1  14
ATOM     14  C   UNL     1       2.528   6.796  19.108  0.00  0.00    +0.000 C 
ATOM     15  O   UNL     1       2.331   7.224  20.240  0.00  0.00    +0.000 OA
BRANCH  14  16
ATOM     16  O   UNL     1       2.063   7.391  17.971  0.00  0.00    +0.000 OA
BRANCH  16  18
ATOM     17  C   UNL     1       0.995   9.528  17.993  0.00  0.00    +0.000 C 
ATOM     18  C   UNL     1       2.320   8.797  17.861  0.00  0.00    +0.000 C 
ENDBRANCH  16  18
ENDBRANCH  14  16
ENDBRANCH   1  14
TORSDOF 4
ENDMDL
