MODEL 1
REMARK VINA RESULT:      -7.8      0.000      0.000
REMARK  Name = 
REMARK  8 active torsions:
REMARK  status: ('A' for Active; 'I' for Inactive)
REMARK    1  A    between atoms: C_1  and  O_2
REMARK    2  A    between atoms: O_2  and  C_3
REMARK    3  A    between atoms: C_5  and  C_6
REMARK    4  A    between atoms: N_7  and  N_8
REMARK    5  A    between atoms: C_12  and  C_13
REMARK    6  A    between atoms: C_16  and  N_17
REMARK    7  A    between atoms: N_20  and  C_21
REMARK    8  A    between atoms: C_25  and  O_26
REMARK                            x       y       z     vdW  Elec       q    Type
REMARK                         _______ _______ _______ _____ _____    ______ ____
ROOT
ATOM      1  N   UNL     1       8.110   7.493  18.311  0.00  0.00    +0.000 N 
ATOM      2  C   UNL     1       7.026   6.744  17.960  0.00  0.00    +0.000 A 
ATOM      3  N   UNL     1       6.264   6.928  16.899  0.00  0.00    +0.000 NA
ATOM      4  N   UNL     1       5.219   6.038  16.822  0.00  0.00    +0.000 NA
ATOM      5  C   UNL     1       5.194   5.202  17.837  0.00  0.00    +0.000 A 
ATOM      6  S   UNL     1       6.496   5.422  18.939  0.00  0.00    +0.000 S 
ATOM      7  H   UNL     1       8.589   7.216  19.165  0.00  0.00    +0.000 HD
ENDROOT
BRANCH   5   8
ATOM      8  C   UNL     1       4.170   4.199  18.004  0.00  0.00    +0.000 A 
ATOM      9  N   UNL     1       4.138   3.059  17.331  0.00  0.00    +0.000 NA
ATOM     10  C   UNL     1       3.036   2.383  17.776  0.00  0.00    +0.000 A 
ATOM     11  C   UNL     1       2.380   3.111  18.738  0.00  0.00    +0.000 A 
ATOM     12  N   UNL     1       3.089   4.280  18.884  0.00  0.00    +0.000 N 
ATOM     13  C   UNL     1       2.830   5.421  19.735  0.00  0.00    +0.000 C 
BRANCH  11  14
ATOM     14  N   UNL     1       1.197   2.716  19.432  0.00  0.00    +0.000 N 
ATOM     15  O   UNL     1       1.292   2.625  20.660  0.00  0.00    +0.000 OA
ATOM     16  O   UNL     1       0.173   2.499  18.776  0.00  0.00    +0.000 OA
ENDBRANCH  11  14
ENDBRANCH   5   8
BRANCH   1  18
ATOM     17  C   UNL     1       9.099   9.525  18.496  0.00  0.00    +0.000 C 
ATOM     18  N   UNL     1       8.199   8.799  17.916  0.00  0.00    +0.000 NA
BRANCH  17  21
ATOM     19  C   UNL     1       8.220  13.111  17.594  0.00  0.00    +0.000 A 
ATOM     20  C   UNL     1       8.103  11.735  17.845  0.00  0.00    +0.000 A 
ATOM     21  C   UNL     1       9.223  10.970  18.199  0.00  0.00    +0.000 A 
ATOM     22  C   UNL     1      10.474  11.577  18.306  0.00  0.00    +0.000 A 
ATOM     23  C   UNL     1      10.602  12.945  18.053  0.00  0.00    +0.000 A 
ATOM     24  C   UNL     1       9.482  13.707  17.699  0.00  0.00    +0.000 A 
BRANCH  19  26
ATOM     25  C   UNL     1       6.464  14.627  18.197  0.00  0.00    +0.000 C 
ATOM     26  O   UNL     1       7.028  13.705  17.272  0.00  0.00    +0.000 OA
ENDBRANCH  19  26
BRANCH  24  27
ATOM     27  O   UNL     1       9.663  15.042  17.463  0.00  0.00    +0.000 OA
ATOM     28  H   UNL     1       9.393  15.550  18.245  0.00  0.00    +0.000 HD
ENDBRANCH  24  27
ENDBRANCH  17  21
ENDBRANCH   1  18
TORSDOF 6
ENDMDL
MODEL 2
REMARK VINA RESULT:      -7.7      1.038      1.759
REMARK  Name = 
REMARK  8 active torsions:
REMARK  status: ('A' for Active; 'I' for Inactive)
REMARK    1  A    between atoms: C_1  and  O_2
REMARK    2  A    between atoms: O_2  and  C_3
REMARK    3  A    between atoms: C_5  and  C_6
REMARK    4  A    between atoms: N_7  and  N_8
REMARK    5  A    between atoms: C_12  and  C_13
REMARK    6  A    between atoms: C_16  and  N_17
REMARK    7  A    between atoms: N_20  and  C_21
REMARK    8  A    between atoms: C_25  and  O_26
REMARK                            x       y       z     vdW  Elec       q    Type
REMARK                         _______ _______ _______ _____ _____    ______ ____
ROOT
ATOM      1  N   UNL     1       8.067   7.472  18.138  0.00  0.00    +0.000 N 
ATOM      2  C   UNL     1       6.936   6.762  17.860  0.00  0.00    +0.000 A 
ATOM      3  N   UNL     1       6.019   7.079  16.966  0.00  0.00    +0.000 NA
ATOM      4  N   UNL     1       4.969   6.192  16.930  0.00  0.00    +0.000 NA
ATOM      5  C   UNL     1       5.096   5.226  17.813  0.00  0.00    +0.000 A 
ATOM      6  S   UNL     1       6.556   5.312  18.719  0.00  0.00    +0.000 S 
ATOM      7  H   UNL     1       8.671   7.089  18.861  0.00  0.00    +0.000 HD
ENDROOT
BRANCH   5   8
ATOM      8  C   UNL     1       4.104   4.194  17.997  0.00  0.00    +0.000 A 
ATOM      9  N   UNL     1       4.079   3.063  17.311  0.00  0.00    +0.000 NA
ATOM     10  C   UNL     1       3.009   2.353  17.780  0.00  0.00    +0.000 A 
ATOM     11  C   UNL     1       2.365   3.052  18.771  0.00  0.00    +0.000 A 
ATOM     12  N   UNL     1       3.049   4.236  18.912  0.00  0.00    +0.000 N 
ATOM     13  C   UNL     1       2.788   5.359  19.786  0.00  0.00    +0.000 C 
BRANCH  11  14
ATOM     14  N   UNL     1       1.216   2.617  19.496  0.00  0.00    +0.000 N 
ATOM     15  O   UNL     1       0.209   2.370  18.824  0.00  0.00    +0.000 OA
ATOM     16  O   UNL     1       1.298   2.513  20.724  0.00  0.00    +0.000 OA
ENDBRANCH  11  14
ENDBRANCH   5   8
BRANCH   1  18
ATOM     17  C   UNL     1       8.929   9.510  18.635  0.00  0.00    +0.000 C 
ATOM     18  N   UNL     1       8.103   8.822  17.917  0.00  0.00    +0.000 NA
BRANCH  17  21
ATOM     19  C   UNL     1       9.904  13.134  19.237  0.00  0.00    +0.000 A 
ATOM     20  C   UNL     1       9.829  11.738  19.360  0.00  0.00    +0.000 A 
ATOM     21  C   UNL     1       8.987  10.985  18.530  0.00  0.00    +0.000 A 
ATOM     22  C   UNL     1       8.209  11.625  17.565  0.00  0.00    +0.000 A 
ATOM     23  C   UNL     1       8.273  13.015  17.437  0.00  0.00    +0.000 A 
ATOM     24  C   UNL     1       9.115  13.764  18.268  0.00  0.00    +0.000 A 
BRANCH  19  26
ATOM     25  C   UNL     1      10.272  14.213  21.344  0.00  0.00    +0.000 C 
ATOM     26  O   UNL     1      10.783  13.708  20.117  0.00  0.00    +0.000 OA
ENDBRANCH  19  26
BRANCH  24  27
ATOM     27  O   UNL     1       9.139  15.121  18.100  0.00  0.00    +0.000 OA
ATOM     28  H   UNL     1       8.264  15.489  18.304  0.00  0.00    +0.000 HD
ENDBRANCH  24  27
ENDBRANCH  17  21
ENDBRANCH   1  18
TORSDOF 6
ENDMDL
MODEL 3
REMARK VINA RESULT:      -7.5      1.717      2.070
REMARK  Name = 
REMARK  8 active torsions:
REMARK  status: ('A' for Active; 'I' for Inactive)
REMARK    1  A    between atoms: C_1  and  O_2
REMARK    2  A    between atoms: O_2  and  C_3
REMARK    3  A    between atoms: C_5  and  C_6
REMARK    4  A    between atoms: N_7  and  N_8
REMARK    5  A    between atoms: C_12  and  C_13
REMARK    6  A    between atoms: C_16  and  N_17
REMARK    7  A    between atoms: N_20  and  C_21
REMARK    8  A    between atoms: C_25  and  O_26
REMARK                            x       y       z     vdW  Elec       q    Type
REMARK                         _______ _______ _______ _____ _____    ______ ____
ROOT
ATOM      1  N   UNL     1       7.775   7.465  17.262  0.00  0.00    +0.000 N 
ATOM      2  C   UNL     1       6.569   6.835  17.353  0.00  0.00    +0.000 A 
ATOM      3  N   UNL     1       5.385   7.395  17.192  0.00  0.00    +0.000 NA
ATOM      4  N   UNL     1       4.342   6.519  17.378  0.00  0.00    +0.000 NA
ATOM      5  C   UNL     1       4.751   5.310  17.695  0.00  0.00    +0.000 A 
ATOM      6  S   UNL     1       6.464   5.153  17.736  0.00  0.00    +0.000 S 
ATOM      7  H   UNL     1       8.596   6.885  17.415  0.00  0.00    +0.000 HD
ENDROOT
BRANCH   5   8
ATOM      8  C   UNL     1       3.845   4.223  17.979  0.00  0.00    +0.000 A 
ATOM      9  N   UNL     1       3.882   3.052  17.365  0.00  0.00    +0.000 NA
ATOM     10  C   UNL     1       2.884   2.297  17.917  0.00  0.00    +0.000 A 
ATOM     11  C   UNL     1       2.223   3.010  18.886  0.00  0.00    +0.000 A 
ATOM     12  N   UNL     1       2.820   4.247  18.928  0.00  0.00    +0.000 N 
ATOM     13  C   UNL     1       2.505   5.401  19.741  0.00  0.00    +0.000 C 
BRANCH  11  14
ATOM     14  N   UNL     1       1.133   2.541  19.679  0.00  0.00    +0.000 N 
ATOM     15  O   UNL     1       0.099   2.252  19.068  0.00  0.00    +0.000 OA
ATOM     16  O   UNL     1       1.289   2.449  20.901  0.00  0.00    +0.000 OA
ENDBRANCH  11  14
ENDBRANCH   5   8
BRANCH   1  18
ATOM     17  C   UNL     1       8.793   9.170  18.357  0.00  0.00    +0.000 C 
ATOM     18  N   UNL     1       7.873   8.804  17.525  0.00  0.00    +0.000 NA
BRANCH  17  21
ATOM     19  C   UNL     1       9.467  12.265  20.457  0.00  0.00    +0.000 A 
ATOM     20  C   UNL     1       9.309  10.924  20.076  0.00  0.00    +0.000 A 
ATOM     21  C   UNL     1       8.929  10.585  18.771  0.00  0.00    +0.000 A 
ATOM     22  C   UNL     1       8.703  11.589  17.830  0.00  0.00    +0.000 A 
ATOM     23  C   UNL     1       8.854  12.928  18.198  0.00  0.00    +0.000 A 
ATOM     24  C   UNL     1       9.233  13.264  19.504  0.00  0.00    +0.000 A 
BRANCH  19  26
ATOM     25  C   UNL     1       8.838  12.526  22.754  0.00  0.00    +0.000 C 
ATOM     26  O   UNL     1       9.851  12.416  21.763  0.00  0.00    +0.000 OA
ENDBRANCH  19  26
BRANCH  24  27
ATOM     27  O   UNL     1       9.365  14.590  19.812  0.00  0.00    +0.000 OA
ATOM     28  H   UNL     1       9.614  15.085  19.015  0.00  0.00    +0.000 HD
ENDBRANCH  24  27
ENDBRANCH  17  21
ENDBRANCH   1  18
TORSDOF 6
ENDMDL
MODEL 4
REMARK VINA RESULT:      -7.5      1.518      1.885
REMARK  Name = 
REMARK  8 active torsions:
REMARK  status: ('A' for Active; 'I' for Inactive)
REMARK    1  A    between atoms: C_1  and  O_2
REMARK    2  A    between atoms: O_2  and  C_3
REMARK    3  A    between atoms: C_5  and  C_6
REMARK    4  A    between atoms: N_7  and  N_8
REMARK    5  A    between atoms: C_12  and  C_13
REMARK    6  A    between atoms: C_16  and  N_17
REMARK    7  A    between atoms: N_20  and  C_21
REMARK    8  A    between atoms: C_25  and  O_26
REMARK                            x       y       z     vdW  Elec       q    Type
REMARK                         _______ _______ _______ _____ _____    ______ ____
ROOT
ATOM      1  N   UNL     1       8.943   8.685  18.914  0.00  0.00    +0.000 N 
ATOM      2  C   UNL     1       8.088   7.883  18.217  0.00  0.00    +0.000 A 
ATOM      3  N   UNL     1       7.489   8.187  17.082  0.00  0.00    +0.000 NA
ATOM      4  N   UNL     1       6.652   7.193  16.629  0.00  0.00    +0.000 NA
ATOM      5  C   UNL     1       6.616   6.158  17.440  0.00  0.00    +0.000 A 
ATOM      6  S   UNL     1       7.658   6.314  18.800  0.00  0.00    +0.000 S 
ATOM      7  H   UNL     1       9.319   8.299  19.776  0.00  0.00    +0.000 HD
ENDROOT
BRANCH   5   8
ATOM      8  C   UNL     1       5.782   5.004  17.204  0.00  0.00    +0.000 A 
ATOM      9  N   UNL     1       5.975   4.143  16.218  0.00  0.00    +0.000 NA
ATOM     10  C   UNL     1       4.996   3.196  16.339  0.00  0.00    +0.000 A 
ATOM     11  C   UNL     1       4.188   3.473  17.414  0.00  0.00    +0.000 A 
ATOM     12  N   UNL     1       4.673   4.633  17.969  0.00  0.00    +0.000 N 
ATOM     13  C   UNL     1       4.187   5.394  19.100  0.00  0.00    +0.000 C 
BRANCH  11  14
ATOM     14  N   UNL     1       3.072   2.699  17.850  0.00  0.00    +0.000 N 
ATOM     15  O   UNL     1       1.973   3.017  17.384  0.00  0.00    +0.000 OA
ATOM     16  O   UNL     1       3.270   1.774  18.645  0.00  0.00    +0.000 OA
ENDBRANCH  11  14
ENDBRANCH   5   8
BRANCH   1  18
ATOM     17  C   UNL     1       9.755  10.634  18.086  0.00  0.00    +0.000 C 
ATOM     18  N   UNL     1       8.854  10.046  18.803  0.00  0.00    +0.000 NA
BRANCH  17  21
ATOM     19  C   UNL     1       8.726  14.291  18.203  0.00  0.00    +0.000 A 
ATOM     20  C   UNL     1       8.676  12.891  18.286  0.00  0.00    +0.000 A 
ATOM     21  C   UNL     1       9.795  12.109  17.968  0.00  0.00    +0.000 A 
ATOM     22  C   UNL     1      10.980  12.724  17.563  0.00  0.00    +0.000 A 
ATOM     23  C   UNL     1      11.040  14.116  17.472  0.00  0.00    +0.000 A 
ATOM     24  C   UNL     1       9.920  14.895  17.790  0.00  0.00    +0.000 A 
BRANCH  19  26
ATOM     25  C   UNL     1       6.379  14.582  17.817  0.00  0.00    +0.000 C 
ATOM     26  O   UNL     1       7.551  14.897  18.559  0.00  0.00    +0.000 OA
ENDBRANCH  19  26
BRANCH  24  27
ATOM     27  O   UNL     1      10.033  16.254  17.683  0.00  0.00    +0.000 OA
ATOM     28  H   UNL     1       9.169  16.665  17.845  0.00  0.00    +0.000 HD
ENDBRANCH  24  27
ENDBRANCH  17  21
ENDBRANCH   1  18
TORSDOF 6
ENDMDL
MODEL 5
REMARK VINA RESULT:      -7.5      1.211      1.274
REMARK  Name = 
REMARK  8 active torsions:
REMARK  status: ('A' for Active; 'I' for Inactive)
REMARK    1  A    between atoms: C_1  and  O_2
REMARK    2  A    between atoms: O_2  and  C_3
REMARK    3  A    between atoms: C_5  and  C_6
REMARK    4  A    between atoms: N_7  and  N_8
REMARK    5  A    between atoms: C_12  and  C_13
REMARK    6  A    between atoms: C_16  and  N_17
REMARK    7  A    between atoms: N_20  and  C_21
REMARK    8  A    between atoms: C_25  and  O_26
REMARK                            x       y       z     vdW  Elec       q    Type
REMARK                         _______ _______ _______ _____ _____    ______ ____
ROOT
ATOM      1  N   UNL     1       7.824   7.389  17.118  0.00  0.00    +0.000 N 
ATOM      2  C   UNL     1       6.603   6.793  17.236  0.00  0.00    +0.000 A 
ATOM      3  N   UNL     1       5.433   7.397  17.159  0.00  0.00    +0.000 NA
ATOM      4  N   UNL     1       4.370   6.545  17.352  0.00  0.00    +0.000 NA
ATOM      5  C   UNL     1       4.754   5.310  17.593  0.00  0.00    +0.000 A 
ATOM      6  S   UNL     1       6.460   5.099  17.545  0.00  0.00    +0.000 S 
ATOM      7  H   UNL     1       8.632   6.777  17.205  0.00  0.00    +0.000 HD
ENDROOT
BRANCH   5   8
ATOM      8  C   UNL     1       3.826   4.239  17.869  0.00  0.00    +0.000 A 
ATOM      9  N   UNL     1       3.763   3.119  17.167  0.00  0.00    +0.000 NA
ATOM     10  C   UNL     1       2.779   2.362  17.741  0.00  0.00    +0.000 A 
ATOM     11  C   UNL     1       2.229   3.021  18.813  0.00  0.00    +0.000 A 
ATOM     12  N   UNL     1       2.882   4.227  18.898  0.00  0.00    +0.000 N 
ATOM     13  C   UNL     1       2.683   5.326  19.819  0.00  0.00    +0.000 C 
BRANCH  11  14
ATOM     14  N   UNL     1       1.186   2.532  19.656  0.00  0.00    +0.000 N 
ATOM     15  O   UNL     1       1.479   2.365  20.844  0.00  0.00    +0.000 OA
ATOM     16  O   UNL     1       0.077   2.316  19.156  0.00  0.00    +0.000 OA
ENDBRANCH  11  14
ENDBRANCH   5   8
BRANCH   1  18
ATOM     17  C   UNL     1       8.799   8.986  18.399  0.00  0.00    +0.000 C 
ATOM     18  N   UNL     1       7.978   8.710  17.439  0.00  0.00    +0.000 NA
BRANCH  17  21
ATOM     19  C   UNL     1       8.791  12.784  18.529  0.00  0.00    +0.000 A 
ATOM     20  C   UNL     1       8.651  11.468  18.062  0.00  0.00    +0.000 A 
ATOM     21  C   UNL     1       8.976  10.376  18.877  0.00  0.00    +0.000 A 
ATOM     22  C   UNL     1       9.446  10.591  20.172  0.00  0.00    +0.000 A 
ATOM     23  C   UNL     1       9.593  11.896  20.646  0.00  0.00    +0.000 A 
ATOM     24  C   UNL     1       9.268  12.986  19.829  0.00  0.00    +0.000 A 
BRANCH  19  26
ATOM     25  C   UNL     1       7.109  14.275  17.696  0.00  0.00    +0.000 C 
ATOM     26  O   UNL     1       8.419  13.728  17.608  0.00  0.00    +0.000 OA
ENDBRANCH  19  26
BRANCH  24  27
ATOM     27  O   UNL     1       9.431  14.244  20.342  0.00  0.00    +0.000 OA
ATOM     28  H   UNL     1       9.184  14.246  21.281  0.00  0.00    +0.000 HD
ENDBRANCH  24  27
ENDBRANCH  17  21
ENDBRANCH   1  18
TORSDOF 6
ENDMDL
MODEL 6
REMARK VINA RESULT:      -7.4      1.672      2.228
REMARK  Name = 
REMARK  8 active torsions:
REMARK  status: ('A' for Active; 'I' for Inactive)
REMARK    1  A    between atoms: C_1  and  O_2
REMARK    2  A    between atoms: O_2  and  C_3
REMARK    3  A    between atoms: C_5  and  C_6
REMARK    4  A    between atoms: N_7  and  N_8
REMARK    5  A    between atoms: C_12  and  C_13
REMARK    6  A    between atoms: C_16  and  N_17
REMARK    7  A    between atoms: N_20  and  C_21
REMARK    8  A    between atoms: C_25  and  O_26
REMARK                            x       y       z     vdW  Elec       q    Type
REMARK                         _______ _______ _______ _____ _____    ______ ____
ROOT
ATOM      1  N   UNL     1       8.834   8.289  18.815  0.00  0.00    +0.000 N 
ATOM      2  C   UNL     1       7.855   7.579  18.183  0.00  0.00    +0.000 A 
ATOM      3  N   UNL     1       7.225   7.935  17.080  0.00  0.00    +0.000 NA
ATOM      4  N   UNL     1       6.260   7.035  16.693  0.00  0.00    +0.000 NA
ATOM      5  C   UNL     1       6.161   6.017  17.521  0.00  0.00    +0.000 A 
ATOM      6  S   UNL     1       7.294   6.071  18.814  0.00  0.00    +0.000 S 
ATOM      7  H   UNL     1       9.216   7.872  19.659  0.00  0.00    +0.000 HD
ENDROOT
BRANCH   5   8
ATOM      8  C   UNL     1       5.194   4.960  17.353  0.00  0.00    +0.000 A 
ATOM      9  N   UNL     1       5.346   3.947  16.515  0.00  0.00    +0.000 NA
ATOM     10  C   UNL     1       4.235   3.162  16.656  0.00  0.00    +0.000 A 
ATOM     11  C   UNL     1       3.386   3.694  17.595  0.00  0.00    +0.000 A 
ATOM     12  N   UNL     1       3.983   4.850  18.040  0.00  0.00    +0.000 N 
ATOM     13  C   UNL     1       3.515   5.823  19.003  0.00  0.00    +0.000 C 
BRANCH  11  14
ATOM     14  N   UNL     1       2.137   3.142  18.009  0.00  0.00    +0.000 N 
ATOM     15  O   UNL     1       1.125   3.687  17.559  0.00  0.00    +0.000 OA
ATOM     16  O   UNL     1       2.146   2.171  18.773  0.00  0.00    +0.000 OA
ENDBRANCH  11  14
ENDBRANCH   5   8
BRANCH   1  18
ATOM     17  C   UNL     1       9.527  10.298  19.604  0.00  0.00    +0.000 C 
ATOM     18  N   UNL     1       8.885   9.650  18.688  0.00  0.00    +0.000 NA
BRANCH  17  21
ATOM     19  C   UNL     1      10.043  13.891  18.474  0.00  0.00    +0.000 A 
ATOM     20  C   UNL     1      10.030  12.487  18.483  0.00  0.00    +0.000 A 
ATOM     21  C   UNL     1       9.573  11.778  19.603  0.00  0.00    +0.000 A 
ATOM     22  C   UNL     1       9.124  12.470  20.728  0.00  0.00    +0.000 A 
ATOM     23  C   UNL     1       9.137  13.866  20.731  0.00  0.00    +0.000 A 
ATOM     24  C   UNL     1       9.594  14.572  19.611  0.00  0.00    +0.000 A 
BRANCH  19  26
ATOM     25  C   UNL     1      11.882  14.784  17.223  0.00  0.00    +0.000 C 
ATOM     26  O   UNL     1      10.509  14.419  17.299  0.00  0.00    +0.000 OA
ENDBRANCH  19  26
BRANCH  24  27
ATOM     27  O   UNL     1       9.587  15.939  19.668  0.00  0.00    +0.000 OA
ATOM     28  H   UNL     1       9.242  16.226  20.529  0.00  0.00    +0.000 HD
ENDBRANCH  24  27
ENDBRANCH  17  21
ENDBRANCH   1  18
TORSDOF 6
ENDMDL
MODEL 7
REMARK VINA RESULT:      -7.4      1.487      1.586
REMARK  Name = 
REMARK  8 active torsions:
REMARK  status: ('A' for Active; 'I' for Inactive)
REMARK    1  A    between atoms: C_1  and  O_2
REMARK    2  A    between atoms: O_2  and  C_3
REMARK    3  A    between atoms: C_5  and  C_6
REMARK    4  A    between atoms: N_7  and  N_8
REMARK    5  A    between atoms: C_12  and  C_13
REMARK    6  A    between atoms: C_16  and  N_17
REMARK    7  A    between atoms: N_20  and  C_21
REMARK    8  A    between atoms: C_25  and  O_26
REMARK                            x       y       z     vdW  Elec       q    Type
REMARK                         _______ _______ _______ _____ _____    ______ ____
ROOT
ATOM      1  N   UNL     1       8.623   8.046  18.644  0.00  0.00    +0.000 N 
ATOM      2  C   UNL     1       7.619   7.287  18.118  0.00  0.00    +0.000 A 
ATOM      3  N   UNL     1       6.963   7.533  17.000  0.00  0.00    +0.000 NA
ATOM      4  N   UNL     1       5.976   6.611  16.739  0.00  0.00    +0.000 NA
ATOM      5  C   UNL     1       5.887   5.690  17.674  0.00  0.00    +0.000 A 
ATOM      6  S   UNL     1       7.056   5.866  18.924  0.00  0.00    +0.000 S 
ATOM      7  H   UNL     1       9.024   7.716  19.518  0.00  0.00    +0.000 HD
ENDROOT
BRANCH   5   8
ATOM      8  C   UNL     1       4.902   4.636  17.647  0.00  0.00    +0.000 A 
ATOM      9  N   UNL     1       4.951   3.601  16.824  0.00  0.00    +0.000 NA
ATOM     10  C   UNL     1       3.860   2.829  17.114  0.00  0.00    +0.000 A 
ATOM     11  C   UNL     1       3.128   3.391  18.130  0.00  0.00    +0.000 A 
ATOM     12  N   UNL     1       3.778   4.553  18.472  0.00  0.00    +0.000 N 
ATOM     13  C   UNL     1       3.429   5.554  19.457  0.00  0.00    +0.000 C 
BRANCH  11  14
ATOM     14  N   UNL     1       1.933   2.859  18.700  0.00  0.00    +0.000 N 
ATOM     15  O   UNL     1       2.065   2.241  19.761  0.00  0.00    +0.000 OA
ATOM     16  O   UNL     1       0.864   3.051  18.113  0.00  0.00    +0.000 OA
ENDBRANCH  11  14
ENDBRANCH   5   8
BRANCH   1  18
ATOM     17  C   UNL     1       9.466  10.097  19.116  0.00  0.00    +0.000 C 
ATOM     18  N   UNL     1       8.688   9.385  18.368  0.00  0.00    +0.000 NA
BRANCH  17  21
ATOM     19  C   UNL     1       9.231  13.824  19.826  0.00  0.00    +0.000 A 
ATOM     20  C   UNL     1       9.125  12.432  19.972  0.00  0.00    +0.000 A 
ATOM     21  C   UNL     1       9.547  11.566  18.953  0.00  0.00    +0.000 A 
ATOM     22  C   UNL     1      10.081  12.088  17.775  0.00  0.00    +0.000 A 
ATOM     23  C   UNL     1      10.187  13.471  17.618  0.00  0.00    +0.000 A 
ATOM     24  C   UNL     1       9.765  14.334  18.636  0.00  0.00    +0.000 A 
BRANCH  19  26
ATOM     25  C   UNL     1       7.837  13.891  21.774  0.00  0.00    +0.000 C 
ATOM     26  O   UNL     1       8.784  14.518  20.919  0.00  0.00    +0.000 OA
ENDBRANCH  19  26
BRANCH  24  27
ATOM     27  O   UNL     1       9.891  15.680  18.430  0.00  0.00    +0.000 OA
ATOM     28  H   UNL     1       9.054  16.122  18.649  0.00  0.00    +0.000 HD
ENDBRANCH  24  27
ENDBRANCH  17  21
ENDBRANCH   1  18
TORSDOF 6
ENDMDL
MODEL 8
REMARK VINA RESULT:      -7.3      7.406      9.382
REMARK  Name = 
REMARK  8 active torsions:
REMARK  status: ('A' for Active; 'I' for Inactive)
REMARK    1  A    between atoms: C_1  and  O_2
REMARK    2  A    between atoms: O_2  and  C_3
REMARK    3  A    between atoms: C_5  and  C_6
REMARK    4  A    between atoms: N_7  and  N_8
REMARK    5  A    between atoms: C_12  and  C_13
REMARK    6  A    between atoms: C_16  and  N_17
REMARK    7  A    between atoms: N_20  and  C_21
REMARK    8  A    between atoms: C_25  and  O_26
REMARK                            x       y       z     vdW  Elec       q    Type
REMARK                         _______ _______ _______ _____ _____    ______ ____
ROOT
ATOM      1  N   UNL     1       1.026   9.605  17.594  0.00  0.00    +0.000 N 
ATOM      2  C   UNL     1       0.569  10.420  18.587  0.00  0.00    +0.000 A 
ATOM      3  N   UNL     1       1.311  11.064  19.467  0.00  0.00    +0.000 NA
ATOM      4  N   UNL     1       0.570  11.785  20.375  0.00  0.00    +0.000 NA
ATOM      5  C   UNL     1      -0.725  11.661  20.179  0.00  0.00    +0.000 A 
ATOM      6  S   UNL     1      -1.123  10.683  18.821  0.00  0.00    +0.000 S 
ATOM      7  H   UNL     1       0.318   9.182  16.999  0.00  0.00    +0.000 HD
ENDROOT
BRANCH   5   8
ATOM      8  C   UNL     1      -1.711  12.290  21.025  0.00  0.00    +0.000 A 
ATOM      9  N   UNL     1      -2.499  13.277  20.631  0.00  0.00    +0.000 NA
ATOM     10  C   UNL     1      -3.292  13.585  21.702  0.00  0.00    +0.000 A 
ATOM     11  C   UNL     1      -2.992  12.777  22.770  0.00  0.00    +0.000 A 
ATOM     12  N   UNL     1      -1.975  11.951  22.354  0.00  0.00    +0.000 N 
ATOM     13  C   UNL     1      -1.254  10.929  23.081  0.00  0.00    +0.000 C 
BRANCH  11  14
ATOM     14  N   UNL     1      -3.623  12.806  24.050  0.00  0.00    +0.000 N 
ATOM     15  O   UNL     1      -3.440  13.825  24.724  0.00  0.00    +0.000 OA
ATOM     16  O   UNL     1      -4.301  11.833  24.395  0.00  0.00    +0.000 OA
ENDBRANCH  11  14
ENDBRANCH   5   8
BRANCH   1  18
ATOM     17  C   UNL     1       2.177   7.667  17.842  0.00  0.00    +0.000 C 
ATOM     18  N   UNL     1       2.221   8.955  17.734  0.00  0.00    +0.000 NA
BRANCH  17  21
ATOM     19  C   UNL     1       5.766   6.431  17.637  0.00  0.00    +0.000 A 
ATOM     20  C   UNL     1       4.593   7.161  17.388  0.00  0.00    +0.000 A 
ATOM     21  C   UNL     1       3.407   6.878  18.079  0.00  0.00    +0.000 A 
ATOM     22  C   UNL     1       3.383   5.858  19.030  0.00  0.00    +0.000 A 
ATOM     23  C   UNL     1       4.543   5.122  19.282  0.00  0.00    +0.000 A 
ATOM     24  C   UNL     1       5.727   5.406  18.590  0.00  0.00    +0.000 A 
BRANCH  19  26
ATOM     25  C   UNL     1       7.686   7.848  17.419  0.00  0.00    +0.000 C 
ATOM     26  O   UNL     1       6.832   6.845  16.883  0.00  0.00    +0.000 OA
ENDBRANCH  19  26
BRANCH  24  27
ATOM     27  O   UNL     1       6.833   4.655  18.876  0.00  0.00    +0.000 OA
ATOM     28  H   UNL     1       7.317   4.463  18.056  0.00  0.00    +0.000 HD
ENDBRANCH  24  27
ENDBRANCH  17  21
ENDBRANCH   1  18
TORSDOF 6
ENDMDL
MODEL 9
REMARK VINA RESULT:      -7.3      1.909      2.217
REMARK  Name = 
REMARK  8 active torsions:
REMARK  status: ('A' for Active; 'I' for Inactive)
REMARK    1  A    between atoms: C_1  and  O_2
REMARK    2  A    between atoms: O_2  and  C_3
REMARK    3  A    between atoms: C_5  and  C_6
REMARK    4  A    between atoms: N_7  and  N_8
REMARK    5  A    between atoms: C_12  and  C_13
REMARK    6  A    between atoms: C_16  and  N_17
REMARK    7  A    between atoms: N_20  and  C_21
REMARK    8  A    between atoms: C_25  and  O_26
REMARK                            x       y       z     vdW  Elec       q    Type
REMARK                         _______ _______ _______ _____ _____    ______ ____
ROOT
ATOM      1  N   UNL     1       8.943   8.545  18.956  0.00  0.00    +0.000 N 
ATOM      2  C   UNL     1       8.041   7.807  18.247  0.00  0.00    +0.000 A 
ATOM      3  N   UNL     1       7.377   8.207  17.179  0.00  0.00    +0.000 NA
ATOM      4  N   UNL     1       6.508   7.257  16.696  0.00  0.00    +0.000 NA
ATOM      5  C   UNL     1       6.512   6.158  17.418  0.00  0.00    +0.000 A 
ATOM      6  S   UNL     1       7.634   6.196  18.721  0.00  0.00    +0.000 S 
ATOM      7  H   UNL     1       9.366   8.086  19.759  0.00  0.00    +0.000 HD
ENDROOT
BRANCH   5   8
ATOM      8  C   UNL     1       5.655   5.030  17.137  0.00  0.00    +0.000 A 
ATOM      9  N   UNL     1       5.900   4.135  16.194  0.00  0.00    +0.000 NA
ATOM     10  C   UNL     1       4.877   3.229  16.250  0.00  0.00    +0.000 A 
ATOM     11  C   UNL     1       3.989   3.568  17.241  0.00  0.00    +0.000 A 
ATOM     12  N   UNL     1       4.470   4.723  17.809  0.00  0.00    +0.000 N 
ATOM     13  C   UNL     1       3.916   5.534  18.872  0.00  0.00    +0.000 C 
BRANCH  11  14
ATOM     14  N   UNL     1       2.808   2.849  17.594  0.00  0.00    +0.000 N 
ATOM     15  O   UNL     1       1.736   3.381  17.291  0.00  0.00    +0.000 OA
ATOM     16  O   UNL     1       2.929   1.759  18.164  0.00  0.00    +0.000 OA
ENDBRANCH  11  14
ENDBRANCH   5   8
BRANCH   1  18
ATOM     17  C   UNL     1       9.659  10.541  19.760  0.00  0.00    +0.000 C 
ATOM     18  N   UNL     1       8.858   9.910  18.964  0.00  0.00    +0.000 NA
BRANCH  17  21
ATOM     19  C   UNL     1       9.002  14.211  19.022  0.00  0.00    +0.000 A 
ATOM     20  C   UNL     1       9.093  12.819  18.871  0.00  0.00    +0.000 A 
ATOM     21  C   UNL     1       9.591  12.013  19.904  0.00  0.00    +0.000 A 
ATOM     22  C   UNL     1      10.002  12.594  21.103  0.00  0.00    +0.000 A 
ATOM     23  C   UNL     1       9.919  13.980  21.263  0.00  0.00    +0.000 A 
ATOM     24  C   UNL     1       9.423  14.783  20.229  0.00  0.00    +0.000 A 
BRANCH  19  26
ATOM     25  C   UNL     1       7.074  14.986  17.829  0.00  0.00    +0.000 C 
ATOM     26  O   UNL     1       8.486  14.842  17.922  0.00  0.00    +0.000 OA
ENDBRANCH  19  26
BRANCH  24  27
ATOM     27  O   UNL     1       9.364  16.133  20.438  0.00  0.00    +0.000 OA
ATOM     28  H   UNL     1       9.296  16.312  21.390  0.00  0.00    +0.000 HD
ENDBRANCH  24  27
ENDBRANCH  17  21
ENDBRANCH   1  18
TORSDOF 6
ENDMDL
