MODEL 1
REMARK VINA RESULT:      -6.9      0.000      0.000
REMARK  Name = 
REMARK  9 active torsions:
REMARK  status: ('A' for Active; 'I' for Inactive)
REMARK    1  A    between atoms: C_1  and  N_2
REMARK    2  A    between atoms: N_2  and  C_3
REMARK    3  A    between atoms: N_2  and  C_4
REMARK    4  A    between atoms: C_4  and  C_5
REMARK    5  A    between atoms: C_4  and  C_18
REMARK    6  A    between atoms: C_5  and  N_6
REMARK    7  A    between atoms: N_6  and  S_7
REMARK    8  A    between atoms: S_7  and  C_10
REMARK    9  A    between atoms: N_22  and  C_23
REMARK                            x       y       z     vdW  Elec       q    Type
REMARK                         _______ _______ _______ _____ _____    ______ ____
ROOT
ATOM      1  N   UNL     1       6.187   4.387  17.305  0.00  0.00    +0.000 NA
ATOM      2  H   UNL     1       5.672   3.679  16.782  0.00  0.00    +0.000 HD
ENDROOT
BRANCH   1   3
ATOM      3  S   UNL     1       6.340   5.752  16.345  0.00  0.00    +0.000 S 
ATOM      4  O   UNL     1       5.041   6.385  16.381  0.00  0.00    +0.000 OA
ATOM      5  O   UNL     1       7.530   6.474  16.740  0.00  0.00    +0.000 OA
BRANCH   3   6
ATOM      6  C   UNL     1       6.547   5.083  14.729  0.00  0.00    +0.000 A 
ATOM      7  C   UNL     1       7.663   5.454  13.962  0.00  0.00    +0.000 A 
ATOM      8  C   UNL     1       7.868   4.863  12.713  0.00  0.00    +0.000 A 
ATOM      9  C   UNL     1       6.969   3.906  12.252  0.00  0.00    +0.000 A 
ATOM     10  F   UNL     1       7.171   3.337  11.057  0.00  0.00    +0.000 F 
ATOM     11  C   UNL     1       5.868   3.530  13.010  0.00  0.00    +0.000 A 
ATOM     12  C   UNL     1       5.663   4.124  14.253  0.00  0.00    +0.000 A 
ATOM     13  F   UNL     1       4.582   3.759  14.954  0.00  0.00    +0.000 F 
ENDBRANCH   3   6
ENDBRANCH   1   3
BRANCH   1  14
ATOM     14  C   UNL     1       5.759   4.540  18.715  0.00  0.00    +0.000 C 
BRANCH  14  15
ATOM     15  C   UNL     1       4.387   3.832  19.027  0.00  0.00    +0.000 C 
BRANCH  15  16
ATOM     16  C   UNL     1       3.357   4.849  19.536  0.00  0.00    +0.000 A 
ATOM     17  C   UNL     1       3.163   6.172  19.156  0.00  0.00    +0.000 A 
ATOM     18  C   UNL     1       2.148   6.737  19.943  0.00  0.00    +0.000 A 
ATOM     19  C   UNL     1       1.723   5.759  20.803  0.00  0.00    +0.000 A 
ATOM     20  N   UNL     1       2.438   4.611  20.550  0.00  0.00    +0.000 N 
ATOM     21  C   UNL     1       2.217   3.385  21.285  0.00  0.00    +0.000 C 
ENDBRANCH  15  16
BRANCH  15  23
ATOM     22  C   UNL     1       3.579   1.537  18.429  0.00  0.00    +0.000 C 
ATOM     23  N   UNL     1       3.814   2.914  18.002  0.00  0.00    +0.000 NA
ATOM     24  C   UNL     1       2.585   3.435  17.402  0.00  0.00    +0.000 C 
ENDBRANCH  15  23
ENDBRANCH  14  15
ENDBRANCH   1  14
TORSDOF 6
ENDMDL
MODEL 2
REMARK VINA RESULT:      -6.8      1.616      2.600
REMARK  Name = 
REMARK  9 active torsions:
REMARK  status: ('A' for Active; 'I' for Inactive)
REMARK    1  A    between atoms: C_1  and  N_2
REMARK    2  A    between atoms: N_2  and  C_3
REMARK    3  A    between atoms: N_2  and  C_4
REMARK    4  A    between atoms: C_4  and  C_5
REMARK    5  A    between atoms: C_4  and  C_18
REMARK    6  A    between atoms: C_5  and  N_6
REMARK    7  A    between atoms: N_6  and  S_7
REMARK    8  A    between atoms: S_7  and  C_10
REMARK    9  A    between atoms: N_22  and  C_23
REMARK                            x       y       z     vdW  Elec       q    Type
REMARK                         _______ _______ _______ _____ _____    ______ ____
ROOT
ATOM      1  N   UNL     1       6.109   4.240  18.718  0.00  0.00    +0.000 NA
ATOM      2  H   UNL     1       5.667   3.461  18.228  0.00  0.00    +0.000 HD
ENDROOT
BRANCH   1   3
ATOM      3  S   UNL     1       7.352   4.832  17.762  0.00  0.00    +0.000 S 
ATOM      4  O   UNL     1       7.347   6.261  17.982  0.00  0.00    +0.000 OA
ATOM      5  O   UNL     1       8.544   4.048  18.001  0.00  0.00    +0.000 OA
BRANCH   3   6
ATOM      6  C   UNL     1       6.764   4.556  16.125  0.00  0.00    +0.000 A 
ATOM      7  C   UNL     1       7.446   5.126  15.038  0.00  0.00    +0.000 A 
ATOM      8  C   UNL     1       7.026   4.842  13.737  0.00  0.00    +0.000 A 
ATOM      9  C   UNL     1       5.944   3.990  13.536  0.00  0.00    +0.000 A 
ATOM     10  F   UNL     1       5.548   3.715  12.287  0.00  0.00    +0.000 F 
ATOM     11  C   UNL     1       5.272   3.418  14.607  0.00  0.00    +0.000 A 
ATOM     12  C   UNL     1       5.688   3.706  15.904  0.00  0.00    +0.000 A 
ATOM     13  F   UNL     1       5.009   3.158  16.920  0.00  0.00    +0.000 F 
ENDBRANCH   3   6
ENDBRANCH   1   3
BRANCH   1  14
ATOM     14  C   UNL     1       5.160   5.191  19.341  0.00  0.00    +0.000 C 
BRANCH  14  15
ATOM     15  C   UNL     1       3.691   5.052  18.791  0.00  0.00    +0.000 C 
BRANCH  15  16
ATOM     16  C   UNL     1       2.819   4.261  19.774  0.00  0.00    +0.000 A 
ATOM     17  C   UNL     1       2.860   4.233  21.164  0.00  0.00    +0.000 A 
ATOM     18  C   UNL     1       1.917   3.309  21.639  0.00  0.00    +0.000 A 
ATOM     19  C   UNL     1       1.300   2.773  20.539  0.00  0.00    +0.000 A 
ATOM     20  N   UNL     1       1.829   3.358  19.411  0.00  0.00    +0.000 N 
ATOM     21  C   UNL     1       1.378   3.015  18.079  0.00  0.00    +0.000 C 
ENDBRANCH  15  16
BRANCH  15  23
ATOM     22  C   UNL     1       2.376   7.124  19.296  0.00  0.00    +0.000 C 
ATOM     23  N   UNL     1       3.004   6.276  18.287  0.00  0.00    +0.000 NA
ATOM     24  C   UNL     1       3.872   7.106  17.451  0.00  0.00    +0.000 C 
ENDBRANCH  15  23
ENDBRANCH  14  15
ENDBRANCH   1  14
TORSDOF 6
ENDMDL
MODEL 3
REMARK VINA RESULT:      -6.7      1.770      2.964
REMARK  Name = 
REMARK  9 active torsions:
REMARK  status: ('A' for Active; 'I' for Inactive)
REMARK    1  A    between atoms: C_1  and  N_2
REMARK    2  A    between atoms: N_2  and  C_3
REMARK    3  A    between atoms: N_2  and  C_4
REMARK    4  A    between atoms: C_4  and  C_5
REMARK    5  A    between atoms: C_4  and  C_18
REMARK    6  A    between atoms: C_5  and  N_6
REMARK    7  A    between atoms: N_6  and  S_7
REMARK    8  A    between atoms: S_7  and  C_10
REMARK    9  A    between atoms: N_22  and  C_23
REMARK                            x       y       z     vdW  Elec       q    Type
REMARK                         _______ _______ _______ _____ _____    ______ ____
ROOT
ATOM      1  N   UNL     1       6.043   4.265  18.668  0.00  0.00    +0.000 NA
ATOM      2  H   UNL     1       5.595   3.450  18.248  0.00  0.00    +0.000 HD
ENDROOT
BRANCH   1   3
ATOM      3  S   UNL     1       7.218   4.829  17.614  0.00  0.00    +0.000 S 
ATOM      4  O   UNL     1       7.182   6.269  17.746  0.00  0.00    +0.000 OA
ATOM      5  O   UNL     1       8.443   4.093  17.837  0.00  0.00    +0.000 OA
BRANCH   3   6
ATOM      6  C   UNL     1       6.555   4.436  16.030  0.00  0.00    +0.000 A 
ATOM      7  C   UNL     1       5.295   3.824  15.938  0.00  0.00    +0.000 A 
ATOM      8  C   UNL     1       4.736   3.584  14.681  0.00  0.00    +0.000 A 
ATOM      9  C   UNL     1       5.432   3.966  13.537  0.00  0.00    +0.000 A 
ATOM     10  F   UNL     1       4.891   3.740  12.334  0.00  0.00    +0.000 F 
ATOM     11  C   UNL     1       6.675   4.577  13.624  0.00  0.00    +0.000 A 
ATOM     12  C   UNL     1       7.233   4.812  14.878  0.00  0.00    +0.000 A 
ATOM     13  F   UNL     1       8.442   5.384  14.932  0.00  0.00    +0.000 F 
ENDBRANCH   3   6
ENDBRANCH   1   3
BRANCH   1  14
ATOM     14  C   UNL     1       5.106   5.230  19.289  0.00  0.00    +0.000 C 
BRANCH  14  15
ATOM     15  C   UNL     1       3.639   5.120  18.725  0.00  0.00    +0.000 C 
BRANCH  15  16
ATOM     16  C   UNL     1       2.800   4.167  19.584  0.00  0.00    +0.000 A 
ATOM     17  C   UNL     1       2.367   4.312  20.898  0.00  0.00    +0.000 A 
ATOM     18  C   UNL     1       1.684   3.153  21.294  0.00  0.00    +0.000 A 
ATOM     19  C   UNL     1       1.700   2.298  20.223  0.00  0.00    +0.000 A 
ATOM     20  N   UNL     1       2.358   2.913  19.182  0.00  0.00    +0.000 N 
ATOM     21  C   UNL     1       2.535   2.274  17.895  0.00  0.00    +0.000 C 
ENDBRANCH  15  16
BRANCH  15  23
ATOM     22  C   UNL     1       2.433   7.158  19.542  0.00  0.00    +0.000 C 
ATOM     23  N   UNL     1       2.908   6.379  18.402  0.00  0.00    +0.000 NA
ATOM     24  C   UNL     1       3.669   7.261  17.515  0.00  0.00    +0.000 C 
ENDBRANCH  15  23
ENDBRANCH  14  15
ENDBRANCH   1  14
TORSDOF 6
ENDMDL
MODEL 4
REMARK VINA RESULT:      -6.7      3.450      7.114
REMARK  Name = 
REMARK  9 active torsions:
REMARK  status: ('A' for Active; 'I' for Inactive)
REMARK    1  A    between atoms: C_1  and  N_2
REMARK    2  A    between atoms: N_2  and  C_3
REMARK    3  A    between atoms: N_2  and  C_4
REMARK    4  A    between atoms: C_4  and  C_5
REMARK    5  A    between atoms: C_4  and  C_18
REMARK    6  A    between atoms: C_5  and  N_6
REMARK    7  A    between atoms: N_6  and  S_7
REMARK    8  A    between atoms: S_7  and  C_10
REMARK    9  A    between atoms: N_22  and  C_23
REMARK                            x       y       z     vdW  Elec       q    Type
REMARK                         _______ _______ _______ _____ _____    ______ ____
ROOT
ATOM      1  N   UNL     1       3.525   6.003  19.690  0.00  0.00    +0.000 NA
ATOM      2  H   UNL     1       3.648   6.625  20.490  0.00  0.00    +0.000 HD
ENDROOT
BRANCH   1   3
ATOM      3  S   UNL     1       2.722   6.842  18.482  0.00  0.00    +0.000 S 
ATOM      4  O   UNL     1       3.762   7.517  17.738  0.00  0.00    +0.000 OA
ATOM      5  O   UNL     1       1.797   5.947  17.822  0.00  0.00    +0.000 OA
BRANCH   3   6
ATOM      6  C   UNL     1       1.837   8.076  19.374  0.00  0.00    +0.000 A 
ATOM      7  C   UNL     1       1.629   7.920  20.754  0.00  0.00    +0.000 A 
ATOM      8  C   UNL     1       0.996   8.936  21.474  0.00  0.00    +0.000 A 
ATOM      9  C   UNL     1       0.591  10.093  20.815  0.00  0.00    +0.000 A 
ATOM     10  F   UNL     1      -0.011  11.067  21.510  0.00  0.00    +0.000 F 
ATOM     11  C   UNL     1       0.800  10.255  19.453  0.00  0.00    +0.000 A 
ATOM     12  C   UNL     1       1.427   9.239  18.735  0.00  0.00    +0.000 A 
ATOM     13  F   UNL     1       1.597   9.412  17.418  0.00  0.00    +0.000 F 
ENDBRANCH   3   6
ENDBRANCH   1   3
BRANCH   1  14
ATOM     14  C   UNL     1       4.726   5.208  19.342  0.00  0.00    +0.000 C 
BRANCH  14  15
ATOM     15  C   UNL     1       4.439   4.086  18.273  0.00  0.00    +0.000 C 
BRANCH  15  16
ATOM     16  C   UNL     1       5.254   4.335  16.998  0.00  0.00    +0.000 A 
ATOM     17  C   UNL     1       4.835   4.354  15.673  0.00  0.00    +0.000 A 
ATOM     18  C   UNL     1       5.944   4.552  14.837  0.00  0.00    +0.000 A 
ATOM     19  C   UNL     1       7.041   4.653  15.652  0.00  0.00    +0.000 A 
ATOM     20  N   UNL     1       6.627   4.540  16.959  0.00  0.00    +0.000 N 
ATOM     21  C   UNL     1       7.550   4.617  18.071  0.00  0.00    +0.000 C 
ENDBRANCH  15  16
BRANCH  15  23
ATOM     22  C   UNL     1       4.409   2.425  20.148  0.00  0.00    +0.000 C 
ATOM     23  N   UNL     1       4.493   2.662  18.709  0.00  0.00    +0.000 NA
ATOM     24  C   UNL     1       3.496   1.828  18.038  0.00  0.00    +0.000 C 
ENDBRANCH  15  23
ENDBRANCH  14  15
ENDBRANCH   1  14
TORSDOF 6
ENDMDL
MODEL 5
REMARK VINA RESULT:      -6.7      1.189      2.829
REMARK  Name = 
REMARK  9 active torsions:
REMARK  status: ('A' for Active; 'I' for Inactive)
REMARK    1  A    between atoms: C_1  and  N_2
REMARK    2  A    between atoms: N_2  and  C_3
REMARK    3  A    between atoms: N_2  and  C_4
REMARK    4  A    between atoms: C_4  and  C_5
REMARK    5  A    between atoms: C_4  and  C_18
REMARK    6  A    between atoms: C_5  and  N_6
REMARK    7  A    between atoms: N_6  and  S_7
REMARK    8  A    between atoms: S_7  and  C_10
REMARK    9  A    between atoms: N_22  and  C_23
REMARK                            x       y       z     vdW  Elec       q    Type
REMARK                         _______ _______ _______ _____ _____    ______ ____
ROOT
ATOM      1  N   UNL     1       5.590   5.983  17.574  0.00  0.00    +0.000 NA
ATOM      2  H   UNL     1       5.432   6.955  17.306  0.00  0.00    +0.000 HD
ENDROOT
BRANCH   1   3
ATOM      3  S   UNL     1       7.111   5.524  17.040  0.00  0.00    +0.000 S 
ATOM      4  O   UNL     1       7.851   6.760  16.908  0.00  0.00    +0.000 OA
ATOM      5  O   UNL     1       7.600   4.451  17.877  0.00  0.00    +0.000 OA
BRANCH   3   6
ATOM      6  C   UNL     1       6.799   4.929  15.412  0.00  0.00    +0.000 A 
ATOM      7  C   UNL     1       7.568   5.408  14.339  0.00  0.00    +0.000 A 
ATOM      8  C   UNL     1       7.373   4.878  13.062  0.00  0.00    +0.000 A 
ATOM      9  C   UNL     1       6.428   3.874  12.873  0.00  0.00    +0.000 A 
ATOM     10  F   UNL     1       6.249   3.363  11.648  0.00  0.00    +0.000 F 
ATOM     11  C   UNL     1       5.671   3.392  13.932  0.00  0.00    +0.000 A 
ATOM     12  C   UNL     1       5.863   3.924  15.204  0.00  0.00    +0.000 A 
ATOM     13  F   UNL     1       5.104   3.457  16.203  0.00  0.00    +0.000 F 
ENDBRANCH   3   6
ENDBRANCH   1   3
BRANCH   1  14
ATOM     14  C   UNL     1       5.182   5.655  18.960  0.00  0.00    +0.000 C 
BRANCH  14  15
ATOM     15  C   UNL     1       3.646   5.329  19.094  0.00  0.00    +0.000 C 
BRANCH  15  16
ATOM     16  C   UNL     1       3.382   3.847  18.800  0.00  0.00    +0.000 A 
ATOM     17  C   UNL     1       4.134   2.731  19.150  0.00  0.00    +0.000 A 
ATOM     18  C   UNL     1       3.541   1.581  18.606  0.00  0.00    +0.000 A 
ATOM     19  C   UNL     1       2.427   1.996  17.924  0.00  0.00    +0.000 A 
ATOM     20  N   UNL     1       2.317   3.362  18.053  0.00  0.00    +0.000 N 
ATOM     21  C   UNL     1       1.232   4.109  17.454  0.00  0.00    +0.000 C 
ENDBRANCH  15  16
BRANCH  15  23
ATOM     22  C   UNL     1       2.015   6.928  20.124  0.00  0.00    +0.000 C 
ATOM     23  N   UNL     1       2.925   5.800  20.311  0.00  0.00    +0.000 NA
ATOM     24  C   UNL     1       2.205   4.724  20.993  0.00  0.00    +0.000 C 
ENDBRANCH  15  23
ENDBRANCH  14  15
ENDBRANCH   1  14
TORSDOF 6
ENDMDL
MODEL 6
REMARK VINA RESULT:      -6.6      3.562      7.314
REMARK  Name = 
REMARK  9 active torsions:
REMARK  status: ('A' for Active; 'I' for Inactive)
REMARK    1  A    between atoms: C_1  and  N_2
REMARK    2  A    between atoms: N_2  and  C_3
REMARK    3  A    between atoms: N_2  and  C_4
REMARK    4  A    between atoms: C_4  and  C_5
REMARK    5  A    between atoms: C_4  and  C_18
REMARK    6  A    between atoms: C_5  and  N_6
REMARK    7  A    between atoms: N_6  and  S_7
REMARK    8  A    between atoms: S_7  and  C_10
REMARK    9  A    between atoms: N_22  and  C_23
REMARK                            x       y       z     vdW  Elec       q    Type
REMARK                         _______ _______ _______ _____ _____    ______ ____
ROOT
ATOM      1  N   UNL     1       5.113   3.550  17.766  0.00  0.00    +0.000 NA
ATOM      2  H   UNL     1       5.447   4.356  18.294  0.00  0.00    +0.000 HD
ENDROOT
BRANCH   1   3
ATOM      3  S   UNL     1       3.931   2.776  18.669  0.00  0.00    +0.000 S 
ATOM      4  O   UNL     1       3.026   2.208  17.694  0.00  0.00    +0.000 OA
ATOM      5  O   UNL     1       4.569   1.942  19.664  0.00  0.00    +0.000 OA
BRANCH   3   6
ATOM      6  C   UNL     1       3.086   4.109  19.448  0.00  0.00    +0.000 A 
ATOM      7  C   UNL     1       3.490   5.430  19.194  0.00  0.00    +0.000 A 
ATOM      8  C   UNL     1       2.769   6.489  19.750  0.00  0.00    +0.000 A 
ATOM      9  C   UNL     1       1.654   6.221  20.538  0.00  0.00    +0.000 A 
ATOM     10  F   UNL     1       0.962   7.239  21.065  0.00  0.00    +0.000 F 
ATOM     11  C   UNL     1       1.246   4.917  20.786  0.00  0.00    +0.000 A 
ATOM     12  C   UNL     1       1.968   3.862  20.235  0.00  0.00    +0.000 A 
ATOM     13  F   UNL     1       1.566   2.614  20.507  0.00  0.00    +0.000 F 
ENDBRANCH   3   6
ENDBRANCH   1   3
BRANCH   1  14
ATOM     14  C   UNL     1       4.867   3.816  16.330  0.00  0.00    +0.000 C 
BRANCH  14  15
ATOM     15  C   UNL     1       6.063   4.559  15.623  0.00  0.00    +0.000 C 
BRANCH  15  16
ATOM     16  C   UNL     1       6.108   4.210  14.130  0.00  0.00    +0.000 A 
ATOM     17  C   UNL     1       5.231   3.436  13.378  0.00  0.00    +0.000 A 
ATOM     18  C   UNL     1       5.711   3.333  12.064  0.00  0.00    +0.000 A 
ATOM     19  C   UNL     1       6.881   4.044  12.013  0.00  0.00    +0.000 A 
ATOM     20  N   UNL     1       7.117   4.590  13.254  0.00  0.00    +0.000 N 
ATOM     21  C   UNL     1       8.275   5.413  13.529  0.00  0.00    +0.000 C 
ENDBRANCH  15  16
BRANCH  15  23
ATOM     22  C   UNL     1       5.009   6.776  16.124  0.00  0.00    +0.000 C 
ATOM     23  N   UNL     1       6.232   6.020  15.866  0.00  0.00    +0.000 NA
ATOM     24  C   UNL     1       7.194   6.307  16.931  0.00  0.00    +0.000 C 
ENDBRANCH  15  23
ENDBRANCH  14  15
ENDBRANCH   1  14
TORSDOF 6
ENDMDL
MODEL 7
REMARK VINA RESULT:      -6.6      1.717      2.864
REMARK  Name = 
REMARK  9 active torsions:
REMARK  status: ('A' for Active; 'I' for Inactive)
REMARK    1  A    between atoms: C_1  and  N_2
REMARK    2  A    between atoms: N_2  and  C_3
REMARK    3  A    between atoms: N_2  and  C_4
REMARK    4  A    between atoms: C_4  and  C_5
REMARK    5  A    between atoms: C_4  and  C_18
REMARK    6  A    between atoms: C_5  and  N_6
REMARK    7  A    between atoms: N_6  and  S_7
REMARK    8  A    between atoms: S_7  and  C_10
REMARK    9  A    between atoms: N_22  and  C_23
REMARK                            x       y       z     vdW  Elec       q    Type
REMARK                         _______ _______ _______ _____ _____    ______ ____
ROOT
ATOM      1  N   UNL     1       5.292   6.291  18.221  0.00  0.00    +0.000 NA
ATOM      2  H   UNL     1       5.556   7.258  18.411  0.00  0.00    +0.000 HD
ENDROOT
BRANCH   1   3
ATOM      3  S   UNL     1       6.685   5.406  17.932  0.00  0.00    +0.000 S 
ATOM      4  O   UNL     1       7.760   6.372  17.972  0.00  0.00    +0.000 OA
ATOM      5  O   UNL     1       6.695   4.248  18.799  0.00  0.00    +0.000 OA
BRANCH   3   6
ATOM      6  C   UNL     1       6.500   4.904  16.254  0.00  0.00    +0.000 A 
ATOM      7  C   UNL     1       7.408   5.366  15.288  0.00  0.00    +0.000 A 
ATOM      8  C   UNL     1       7.307   4.906  13.973  0.00  0.00    +0.000 A 
ATOM      9  C   UNL     1       6.315   3.987  13.642  0.00  0.00    +0.000 A 
ATOM     10  F   UNL     1       6.225   3.544  12.382  0.00  0.00    +0.000 F 
ATOM     11  C   UNL     1       5.419   3.523  14.596  0.00  0.00    +0.000 A 
ATOM     12  C   UNL     1       5.518   3.986  15.905  0.00  0.00    +0.000 A 
ATOM     13  F   UNL     1       4.628   3.538  16.800  0.00  0.00    +0.000 F 
ENDBRANCH   3   6
ENDBRANCH   1   3
BRANCH   1  14
ATOM     14  C   UNL     1       4.265   5.745  19.138  0.00  0.00    +0.000 C 
BRANCH  14  15
ATOM     15  C   UNL     1       2.807   5.802  18.543  0.00  0.00    +0.000 C 
BRANCH  15  16
ATOM     16  C   UNL     1       2.060   4.492  18.818  0.00  0.00    +0.000 A 
ATOM     17  C   UNL     1       1.419   3.638  17.926  0.00  0.00    +0.000 A 
ATOM     18  C   UNL     1       0.810   2.594  18.638  0.00  0.00    +0.000 A 
ATOM     19  C   UNL     1       1.080   2.809  19.964  0.00  0.00    +0.000 A 
ATOM     20  N   UNL     1       1.849   3.945  20.077  0.00  0.00    +0.000 N 
ATOM     21  C   UNL     1       2.314   4.439  21.355  0.00  0.00    +0.000 C 
ENDBRANCH  15  16
BRANCH  15  23
ATOM     22  C   UNL     1       2.035   7.515  20.201  0.00  0.00    +0.000 C 
ATOM     23  N   UNL     1       1.970   7.001  18.835  0.00  0.00    +0.000 NA
ATOM     24  C   UNL     1       2.221   8.104  17.907  0.00  0.00    +0.000 C 
ENDBRANCH  15  23
ENDBRANCH  14  15
ENDBRANCH   1  14
TORSDOF 6
ENDMDL
MODEL 8
REMARK VINA RESULT:      -6.6      2.422      3.730
REMARK  Name = 
REMARK  9 active torsions:
REMARK  status: ('A' for Active; 'I' for Inactive)
REMARK    1  A    between atoms: C_1  and  N_2
REMARK    2  A    between atoms: N_2  and  C_3
REMARK    3  A    between atoms: N_2  and  C_4
REMARK    4  A    between atoms: C_4  and  C_5
REMARK    5  A    between atoms: C_4  and  C_18
REMARK    6  A    between atoms: C_5  and  N_6
REMARK    7  A    between atoms: N_6  and  S_7
REMARK    8  A    between atoms: S_7  and  C_10
REMARK    9  A    between atoms: N_22  and  C_23
REMARK                            x       y       z     vdW  Elec       q    Type
REMARK                         _______ _______ _______ _____ _____    ______ ____
ROOT
ATOM      1  N   UNL     1       4.714   5.805  19.297  0.00  0.00    +0.000 NA
ATOM      2  H   UNL     1       4.115   5.599  20.097  0.00  0.00    +0.000 HD
ENDROOT
BRANCH   1   3
ATOM      3  S   UNL     1       5.839   4.571  19.144  0.00  0.00    +0.000 S 
ATOM      4  O   UNL     1       6.995   5.022  19.887  0.00  0.00    +0.000 OA
ATOM      5  O   UNL     1       5.201   3.311  19.457  0.00  0.00    +0.000 OA
BRANCH   3   6
ATOM      6  C   UNL     1       6.264   4.628  17.437  0.00  0.00    +0.000 A 
ATOM      7  C   UNL     1       5.684   3.709  16.547  0.00  0.00    +0.000 A 
ATOM      8  C   UNL     1       5.961   3.805  15.181  0.00  0.00    +0.000 A 
ATOM      9  C   UNL     1       6.800   4.816  14.720  0.00  0.00    +0.000 A 
ATOM     10  F   UNL     1       7.059   4.908  13.410  0.00  0.00    +0.000 F 
ATOM     11  C   UNL     1       7.370   5.730  15.596  0.00  0.00    +0.000 A 
ATOM     12  C   UNL     1       7.097   5.631  16.958  0.00  0.00    +0.000 A 
ATOM     13  F   UNL     1       7.676   6.513  17.782  0.00  0.00    +0.000 F 
ENDBRANCH   3   6
ENDBRANCH   1   3
BRANCH   1  14
ATOM     14  C   UNL     1       3.991   6.277  18.094  0.00  0.00    +0.000 C 
BRANCH  14  15
ATOM     15  C   UNL     1       2.426   6.268  18.268  0.00  0.00    +0.000 C 
BRANCH  15  16
ATOM     16  C   UNL     1       1.984   5.079  19.130  0.00  0.00    +0.000 A 
ATOM     17  C   UNL     1       1.605   5.052  20.467  0.00  0.00    +0.000 A 
ATOM     18  C   UNL     1       1.350   3.727  20.851  0.00  0.00    +0.000 A 
ATOM     19  C   UNL     1       1.573   2.945  19.748  0.00  0.00    +0.000 A 
ATOM     20  N   UNL     1       1.940   3.759  18.701  0.00  0.00    +0.000 N 
ATOM     21  C   UNL     1       2.235   3.237  17.384  0.00  0.00    +0.000 C 
ENDBRANCH  15  16
BRANCH  15  23
ATOM     22  C   UNL     1       1.959   7.971  20.046  0.00  0.00    +0.000 C 
ATOM     23  N   UNL     1       1.750   7.536  18.667  0.00  0.00    +0.000 NA
ATOM     24  C   UNL     1       2.066   8.650  17.771  0.00  0.00    +0.000 C 
ENDBRANCH  15  23
ENDBRANCH  14  15
ENDBRANCH   1  14
TORSDOF 6
ENDMDL
MODEL 9
REMARK VINA RESULT:      -6.6      3.257      6.751
REMARK  Name = 
REMARK  9 active torsions:
REMARK  status: ('A' for Active; 'I' for Inactive)
REMARK    1  A    between atoms: C_1  and  N_2
REMARK    2  A    between atoms: N_2  and  C_3
REMARK    3  A    between atoms: N_2  and  C_4
REMARK    4  A    between atoms: C_4  and  C_5
REMARK    5  A    between atoms: C_4  and  C_18
REMARK    6  A    between atoms: C_5  and  N_6
REMARK    7  A    between atoms: N_6  and  S_7
REMARK    8  A    between atoms: S_7  and  C_10
REMARK    9  A    between atoms: N_22  and  C_23
REMARK                            x       y       z     vdW  Elec       q    Type
REMARK                         _______ _______ _______ _____ _____    ______ ____
ROOT
ATOM      1  N   UNL     1       4.176   5.138  17.667  0.00  0.00    +0.000 NA
ATOM      2  H   UNL     1       3.637   5.653  18.364  0.00  0.00    +0.000 HD
ENDROOT
BRANCH   1   3
ATOM      3  S   UNL     1       3.497   3.616  17.487  0.00  0.00    +0.000 S 
ATOM      4  O   UNL     1       2.450   3.786  16.505  0.00  0.00    +0.000 OA
ATOM      5  O   UNL     1       4.554   2.649  17.287  0.00  0.00    +0.000 OA
BRANCH   3   6
ATOM      6  C   UNL     1       2.713   3.342  19.040  0.00  0.00    +0.000 A 
ATOM      7  C   UNL     1       1.317   3.459  19.143  0.00  0.00    +0.000 A 
ATOM      8  C   UNL     1       0.689   3.165  20.355  0.00  0.00    +0.000 A 
ATOM      9  C   UNL     1       1.454   2.750  21.441  0.00  0.00    +0.000 A 
ATOM     10  F   UNL     1       0.848   2.463  22.599  0.00  0.00    +0.000 F 
ATOM     11  C   UNL     1       2.833   2.626  21.342  0.00  0.00    +0.000 A 
ATOM     12  C   UNL     1       3.459   2.924  20.134  0.00  0.00    +0.000 A 
ATOM     13  F   UNL     1       4.792   2.816  20.073  0.00  0.00    +0.000 F 
ENDBRANCH   3   6
ENDBRANCH   1   3
BRANCH   1  14
ATOM     14  C   UNL     1       4.524   5.921  16.459  0.00  0.00    +0.000 C 
BRANCH  14  15
ATOM     15  C   UNL     1       6.033   5.768  16.033  0.00  0.00    +0.000 C 
BRANCH  15  16
ATOM     16  C   UNL     1       6.945   5.766  17.267  0.00  0.00    +0.000 A 
ATOM     17  C   UNL     1       7.370   4.696  18.047  0.00  0.00    +0.000 A 
ATOM     18  C   UNL     1       8.140   5.179  19.117  0.00  0.00    +0.000 A 
ATOM     19  C   UNL     1       8.184   6.542  18.989  0.00  0.00    +0.000 A 
ATOM     20  N   UNL     1       7.478   6.900  17.864  0.00  0.00    +0.000 N 
ATOM     21  C   UNL     1       7.345   8.278  17.442  0.00  0.00    +0.000 C 
ENDBRANCH  15  16
BRANCH  15  23
ATOM     22  C   UNL     1       5.301   4.184  14.236  0.00  0.00    +0.000 C 
ATOM     23  N   UNL     1       6.390   4.691  15.066  0.00  0.00    +0.000 NA
ATOM     24  C   UNL     1       7.509   5.060  14.198  0.00  0.00    +0.000 C 
ENDBRANCH  15  23
ENDBRANCH  14  15
ENDBRANCH   1  14
TORSDOF 6
ENDMDL
