MODEL 1
REMARK VINA RESULT:      -8.1      0.000      0.000
REMARK  Name = 
REMARK  5 active torsions:
REMARK  status: ('A' for Active; 'I' for Inactive)
REMARK    1  A    between atoms: C_4  and  C_5
REMARK    2  A    between atoms: C_5  and  O_6
REMARK    3  A    between atoms: O_6  and  C_7
REMARK    4  A    between atoms: C_7  and  C_8
REMARK    5  A    between atoms: C_8  and  C_9
REMARK                            x       y       z     vdW  Elec       q    Type
REMARK                         _______ _______ _______ _____ _____    ______ ____
ROOT
ATOM      1  C   UNL     1       4.811   5.393  17.028  0.00  0.00    +0.000 C 
ATOM      2  C   UNL     1       5.501   5.646  15.619  0.00  0.00    +0.000 C 
ATOM      3  C   UNL     1       6.629   4.588  15.393  0.00  0.00    +0.000 C 
ATOM      4  N   UNL     1       7.738   4.750  16.323  0.00  0.00    +0.000 NA
ATOM      5  C   UNL     1       7.272   4.680  17.699  0.00  0.00    +0.000 C 
ATOM      6  C   UNL     1       6.091   5.588  17.928  0.00  0.00    +0.000 C 
ATOM      7  H   UNL     1       8.187   5.645  16.149  0.00  0.00    +0.000 HD
ENDROOT
BRANCH   1   8
ATOM      8  C   UNL     1       3.827   6.192  17.915  0.00  0.00    +0.000 A 
ATOM      9  C   UNL     1       3.434   7.475  17.407  0.00  0.00    +0.000 A 
ATOM     10  C   UNL     1       2.561   8.334  18.058  0.00  0.00    +0.000 A 
ATOM     11  C   UNL     1       2.038   7.939  19.281  0.00  0.00    +0.000 A 
ATOM     12  C   UNL     1       2.403   6.695  19.807  0.00  0.00    +0.000 A 
ATOM     13  C   UNL     1       3.273   5.817  19.132  0.00  0.00    +0.000 A 
ENDBRANCH   1   8
BRANCH   1  14
ATOM     14  C   UNL     1       3.943   4.095  16.744  0.00  0.00    +0.000 C 
BRANCH  14  15
ATOM     15  O   UNL     1       4.457   2.879  17.410  0.00  0.00    +0.000 OA
BRANCH  15  16
ATOM     16  C   UNL     1       3.463   1.944  17.842  0.00  0.00    +0.000 C 
BRANCH  16  20
ATOM     17  C   UNL     1       1.293   3.258  21.342  0.00  0.00    +0.000 A 
ATOM     18  C   UNL     1       2.628   2.872  21.455  0.00  0.00    +0.000 A 
ATOM     19  C   UNL     1       3.322   2.399  20.337  0.00  0.00    +0.000 A 
ATOM     20  C   UNL     1       2.686   2.310  19.090  0.00  0.00    +0.000 A 
ATOM     21  C   UNL     1       1.349   2.726  18.987  0.00  0.00    +0.000 A 
ATOM     22  C   UNL     1       0.655   3.191  20.107  0.00  0.00    +0.000 A 
ENDBRANCH  16  20
ENDBRANCH  15  16
ENDBRANCH  14  15
ENDBRANCH   1  14
TORSDOF 5
ENDMDL
MODEL 2
REMARK VINA RESULT:      -8.1      0.160      1.055
REMARK  Name = 
REMARK  5 active torsions:
REMARK  status: ('A' for Active; 'I' for Inactive)
REMARK    1  A    between atoms: C_4  and  C_5
REMARK    2  A    between atoms: C_5  and  O_6
REMARK    3  A    between atoms: O_6  and  C_7
REMARK    4  A    between atoms: C_7  and  C_8
REMARK    5  A    between atoms: C_8  and  C_9
REMARK                            x       y       z     vdW  Elec       q    Type
REMARK                         _______ _______ _______ _____ _____    ______ ____
ROOT
ATOM      1  C   UNL     1       4.834   5.420  16.992  0.00  0.00    +0.000 C 
ATOM      2  C   UNL     1       5.559   5.553  15.584  0.00  0.00    +0.000 C 
ATOM      3  C   UNL     1       6.659   4.450  15.458  0.00  0.00    +0.000 C 
ATOM      4  N   UNL     1       7.754   4.646  16.398  0.00  0.00    +0.000 NA
ATOM      5  C   UNL     1       7.258   4.688  17.765  0.00  0.00    +0.000 C 
ATOM      6  C   UNL     1       6.101   5.643  17.903  0.00  0.00    +0.000 C 
ATOM      7  H   UNL     1       8.233   5.513  16.172  0.00  0.00    +0.000 HD
ENDROOT
BRANCH   1   8
ATOM      8  C   UNL     1       3.856   6.308  17.798  0.00  0.00    +0.000 A 
ATOM      9  C   UNL     1       3.407   5.762  19.047  0.00  0.00    +0.000 A 
ATOM     10  C   UNL     1       2.532   6.409  19.907  0.00  0.00    +0.000 A 
ATOM     11  C   UNL     1       2.051   7.658  19.540  0.00  0.00    +0.000 A 
ATOM     12  C   UNL     1       2.466   8.218  18.328  0.00  0.00    +0.000 A 
ATOM     13  C   UNL     1       3.372   7.567  17.468  0.00  0.00    +0.000 A 
ENDBRANCH   1   8
BRANCH   1  14
ATOM     14  C   UNL     1       3.933   4.131  16.781  0.00  0.00    +0.000 C 
BRANCH  14  15
ATOM     15  O   UNL     1       4.481   2.913  17.416  0.00  0.00    +0.000 OA
BRANCH  15  16
ATOM     16  C   UNL     1       3.513   1.944  17.832  0.00  0.00    +0.000 C 
BRANCH  16  20
ATOM     17  C   UNL     1       1.279   3.155  21.329  0.00  0.00    +0.000 A 
ATOM     18  C   UNL     1       2.627   2.820  21.445  0.00  0.00    +0.000 A 
ATOM     19  C   UNL     1       3.344   2.381  20.327  0.00  0.00    +0.000 A 
ATOM     20  C   UNL     1       2.717   2.273  19.077  0.00  0.00    +0.000 A 
ATOM     21  C   UNL     1       1.366   2.637  18.971  0.00  0.00    +0.000 A 
ATOM     22  C   UNL     1       0.649   3.069  20.090  0.00  0.00    +0.000 A 
ENDBRANCH  16  20
ENDBRANCH  15  16
ENDBRANCH  14  15
ENDBRANCH   1  14
TORSDOF 5
ENDMDL
MODEL 3
REMARK VINA RESULT:      -8.0      0.109      1.058
REMARK  Name = 
REMARK  5 active torsions:
REMARK  status: ('A' for Active; 'I' for Inactive)
REMARK    1  A    between atoms: C_4  and  C_5
REMARK    2  A    between atoms: C_5  and  O_6
REMARK    3  A    between atoms: O_6  and  C_7
REMARK    4  A    between atoms: C_7  and  C_8
REMARK    5  A    between atoms: C_8  and  C_9
REMARK                            x       y       z     vdW  Elec       q    Type
REMARK                         _______ _______ _______ _____ _____    ______ ____
ROOT
ATOM      1  C   UNL     1       4.823   5.350  16.954  0.00  0.00    +0.000 C 
ATOM      2  C   UNL     1       5.507   5.583  15.539  0.00  0.00    +0.000 C 
ATOM      3  C   UNL     1       6.627   4.514  15.321  0.00  0.00    +0.000 C 
ATOM      4  N   UNL     1       7.742   4.678  16.244  0.00  0.00    +0.000 NA
ATOM      5  C   UNL     1       7.281   4.628  17.622  0.00  0.00    +0.000 C 
ATOM      6  C   UNL     1       6.108   5.547  17.846  0.00  0.00    +0.000 C 
ATOM      7  H   UNL     1       8.196   5.568  16.058  0.00  0.00    +0.000 HD
ENDROOT
BRANCH   1   8
ATOM      8  C   UNL     1       3.848   6.167  17.837  0.00  0.00    +0.000 A 
ATOM      9  C   UNL     1       3.422   7.425  17.292  0.00  0.00    +0.000 A 
ATOM     10  C   UNL     1       2.552   8.293  17.933  0.00  0.00    +0.000 A 
ATOM     11  C   UNL     1       2.066   7.935  19.183  0.00  0.00    +0.000 A 
ATOM     12  C   UNL     1       2.464   6.717  19.744  0.00  0.00    +0.000 A 
ATOM     13  C   UNL     1       3.330   5.828  19.079  0.00  0.00    +0.000 A 
ENDBRANCH   1   8
BRANCH   1  14
ATOM     14  C   UNL     1       3.944   4.056  16.689  0.00  0.00    +0.000 C 
BRANCH  14  15
ATOM     15  O   UNL     1       4.451   2.844  17.367  0.00  0.00    +0.000 OA
BRANCH  15  16
ATOM     16  C   UNL     1       3.451   1.971  17.902  0.00  0.00    +0.000 C 
BRANCH  16  20
ATOM     17  C   UNL     1       1.276   3.107  21.461  0.00  0.00    +0.000 A 
ATOM     18  C   UNL     1       0.630   3.092  20.225  0.00  0.00    +0.000 A 
ATOM     19  C   UNL     1       1.340   2.772  19.063  0.00  0.00    +0.000 A 
ATOM     20  C   UNL     1       2.706   2.463  19.125  0.00  0.00    +0.000 A 
ATOM     21  C   UNL     1       3.336   2.459  20.379  0.00  0.00    +0.000 A 
ATOM     22  C   UNL     1       2.628   2.785  21.539  0.00  0.00    +0.000 A 
ENDBRANCH  16  20
ENDBRANCH  15  16
ENDBRANCH  14  15
ENDBRANCH   1  14
TORSDOF 5
ENDMDL
MODEL 4
REMARK VINA RESULT:      -7.7      0.751      1.661
REMARK  Name = 
REMARK  5 active torsions:
REMARK  status: ('A' for Active; 'I' for Inactive)
REMARK    1  A    between atoms: C_4  and  C_5
REMARK    2  A    between atoms: C_5  and  O_6
REMARK    3  A    between atoms: O_6  and  C_7
REMARK    4  A    between atoms: C_7  and  C_8
REMARK    5  A    between atoms: C_8  and  C_9
REMARK                            x       y       z     vdW  Elec       q    Type
REMARK                         _______ _______ _______ _____ _____    ______ ____
ROOT
ATOM      1  C   UNL     1       4.885   5.789  17.210  0.00  0.00    +0.000 C 
ATOM      2  C   UNL     1       5.118   5.344  15.703  0.00  0.00    +0.000 C 
ATOM      3  C   UNL     1       6.580   4.817  15.535  0.00  0.00    +0.000 C 
ATOM      4  N   UNL     1       7.574   5.867  15.713  0.00  0.00    +0.000 NA
ATOM      5  C   UNL     1       7.429   6.498  17.015  0.00  0.00    +0.000 C 
ATOM      6  C   UNL     1       6.000   6.901  17.277  0.00  0.00    +0.000 C 
ATOM      7  H   UNL     1       7.463   6.556  14.974  0.00  0.00    +0.000 HD
ENDROOT
BRANCH   1   8
ATOM      8  C   UNL     1       3.779   6.579  17.951  0.00  0.00    +0.000 A 
ATOM      9  C   UNL     1       3.361   6.031  19.210  0.00  0.00    +0.000 A 
ATOM     10  C   UNL     1       2.386   6.596  20.017  0.00  0.00    +0.000 A 
ATOM     11  C   UNL     1       1.765   7.759  19.584  0.00  0.00    +0.000 A 
ATOM     12  C   UNL     1       2.146   8.318  18.360  0.00  0.00    +0.000 A 
ATOM     13  C   UNL     1       3.153   7.752  17.553  0.00  0.00    +0.000 A 
ENDBRANCH   1   8
BRANCH   1  14
ATOM     14  C   UNL     1       4.780   4.392  17.956  0.00  0.00    +0.000 C 
BRANCH  14  15
ATOM     15  O   UNL     1       4.188   3.320  17.129  0.00  0.00    +0.000 OA
BRANCH  15  16
ATOM     16  C   UNL     1       3.579   2.246  17.853  0.00  0.00    +0.000 C 
BRANCH  16  20
ATOM     17  C   UNL     1       1.256   3.053  21.408  0.00  0.00    +0.000 A 
ATOM     18  C   UNL     1       0.672   3.190  20.149  0.00  0.00    +0.000 A 
ATOM     19  C   UNL     1       1.432   2.978  18.994  0.00  0.00    +0.000 A 
ATOM     20  C   UNL     1       2.785   2.624  19.086  0.00  0.00    +0.000 A 
ATOM     21  C   UNL     1       3.352   2.466  20.361  0.00  0.00    +0.000 A 
ATOM     22  C   UNL     1       2.595   2.685  21.515  0.00  0.00    +0.000 A 
ENDBRANCH  16  20
ENDBRANCH  15  16
ENDBRANCH  14  15
ENDBRANCH   1  14
TORSDOF 5
ENDMDL
MODEL 5
REMARK VINA RESULT:      -7.3      0.790      1.683
REMARK  Name = 
REMARK  5 active torsions:
REMARK  status: ('A' for Active; 'I' for Inactive)
REMARK    1  A    between atoms: C_4  and  C_5
REMARK    2  A    between atoms: C_5  and  O_6
REMARK    3  A    between atoms: O_6  and  C_7
REMARK    4  A    between atoms: C_7  and  C_8
REMARK    5  A    between atoms: C_8  and  C_9
REMARK                            x       y       z     vdW  Elec       q    Type
REMARK                         _______ _______ _______ _____ _____    ______ ____
ROOT
ATOM      1  C   UNL     1       4.958   5.680  17.521  0.00  0.00    +0.000 C 
ATOM      2  C   UNL     1       6.254   5.893  16.627  0.00  0.00    +0.000 C 
ATOM      3  C   UNL     1       7.162   4.623  16.715  0.00  0.00    +0.000 C 
ATOM      4  N   UNL     1       7.722   4.430  18.046  0.00  0.00    +0.000 NA
ATOM      5  C   UNL     1       6.665   4.346  19.042  0.00  0.00    +0.000 C 
ATOM      6  C   UNL     1       5.686   5.482  18.905  0.00  0.00    +0.000 C 
ATOM      7  H   UNL     1       8.344   5.205  18.258  0.00  0.00    +0.000 HD
ENDROOT
BRANCH   1   8
ATOM      8  C   UNL     1       3.825   6.604  18.028  0.00  0.00    +0.000 A 
ATOM      9  C   UNL     1       3.260   6.255  19.300  0.00  0.00    +0.000 A 
ATOM     10  C   UNL     1       2.240   6.962  19.918  0.00  0.00    +0.000 A 
ATOM     11  C   UNL     1       1.721   8.072  19.266  0.00  0.00    +0.000 A 
ATOM     12  C   UNL     1       2.246   8.439  18.023  0.00  0.00    +0.000 A 
ATOM     13  C   UNL     1       3.298   7.730  17.410  0.00  0.00    +0.000 A 
ENDBRANCH   1   8
BRANCH   1  14
ATOM     14  C   UNL     1       4.116   4.657  16.647  0.00  0.00    +0.000 C 
BRANCH  14  15
ATOM     15  O   UNL     1       4.222   3.256  17.106  0.00  0.00    +0.000 OA
BRANCH  15  16
ATOM     16  C   UNL     1       2.990   2.636  17.487  0.00  0.00    +0.000 C 
BRANCH  16  20
ATOM     17  C   UNL     1       1.565   3.091  21.542  0.00  0.00    +0.000 A 
ATOM     18  C   UNL     1       0.716   3.365  20.472  0.00  0.00    +0.000 A 
ATOM     19  C   UNL     1       1.185   3.267  19.157  0.00  0.00    +0.000 A 
ATOM     20  C   UNL     1       2.511   2.891  18.901  0.00  0.00    +0.000 A 
ATOM     21  C   UNL     1       3.347   2.594  19.988  0.00  0.00    +0.000 A 
ATOM     22  C   UNL     1       2.880   2.699  21.302  0.00  0.00    +0.000 A 
ENDBRANCH  16  20
ENDBRANCH  15  16
ENDBRANCH  14  15
ENDBRANCH   1  14
TORSDOF 5
ENDMDL
MODEL 6
REMARK VINA RESULT:      -7.1      1.861      4.452
REMARK  Name = 
REMARK  5 active torsions:
REMARK  status: ('A' for Active; 'I' for Inactive)
REMARK    1  A    between atoms: C_4  and  C_5
REMARK    2  A    between atoms: C_5  and  O_6
REMARK    3  A    between atoms: O_6  and  C_7
REMARK    4  A    between atoms: C_7  and  C_8
REMARK    5  A    between atoms: C_8  and  C_9
REMARK                            x       y       z     vdW  Elec       q    Type
REMARK                         _______ _______ _______ _____ _____    ______ ____
ROOT
ATOM      1  C   UNL     1       6.794   4.906  16.360  0.00  0.00    +0.000 C 
ATOM      2  C   UNL     1       7.736   4.471  17.563  0.00  0.00    +0.000 C 
ATOM      3  C   UNL     1       7.455   5.383  18.801  0.00  0.00    +0.000 C 
ATOM      4  N   UNL     1       7.849   6.767  18.574  0.00  0.00    +0.000 NA
ATOM      5  C   UNL     1       7.175   7.309  17.405  0.00  0.00    +0.000 C 
ATOM      6  C   UNL     1       7.305   6.391  16.218  0.00  0.00    +0.000 C 
ATOM      7  H   UNL     1       8.857   6.808  18.449  0.00  0.00    +0.000 HD
ENDROOT
BRANCH   1   8
ATOM      8  C   UNL     1       6.737   4.575  14.850  0.00  0.00    +0.000 A 
ATOM      9  C   UNL     1       7.666   5.289  14.022  0.00  0.00    +0.000 A 
ATOM     10  C   UNL     1       7.767   5.127  12.648  0.00  0.00    +0.000 A 
ATOM     11  C   UNL     1       6.912   4.227  12.028  0.00  0.00    +0.000 A 
ATOM     12  C   UNL     1       5.992   3.516  12.805  0.00  0.00    +0.000 A 
ATOM     13  C   UNL     1       5.909   3.668  14.203  0.00  0.00    +0.000 A 
ENDBRANCH   1   8
BRANCH   1  14
ATOM     14  C   UNL     1       5.383   4.345  16.824  0.00  0.00    +0.000 C 
BRANCH  14  15
ATOM     15  O   UNL     1       4.295   5.344  16.757  0.00  0.00    +0.000 OA
BRANCH  15  16
ATOM     16  C   UNL     1       3.804   5.808  18.018  0.00  0.00    +0.000 C 
BRANCH  16  20
ATOM     17  C   UNL     1       0.874   3.374  20.061  0.00  0.00    +0.000 A 
ATOM     18  C   UNL     1       1.684   4.246  20.788  0.00  0.00    +0.000 A 
ATOM     19  C   UNL     1       2.667   5.000  20.140  0.00  0.00    +0.000 A 
ATOM     20  C   UNL     1       2.850   4.891  18.754  0.00  0.00    +0.000 A 
ATOM     21  C   UNL     1       2.010   4.028  18.032  0.00  0.00    +0.000 A 
ATOM     22  C   UNL     1       1.033   3.269  18.681  0.00  0.00    +0.000 A 
ENDBRANCH  16  20
ENDBRANCH  15  16
ENDBRANCH  14  15
ENDBRANCH   1  14
TORSDOF 5
ENDMDL
MODEL 7
REMARK VINA RESULT:      -7.1      0.790      1.072
REMARK  Name = 
REMARK  5 active torsions:
REMARK  status: ('A' for Active; 'I' for Inactive)
REMARK    1  A    between atoms: C_4  and  C_5
REMARK    2  A    between atoms: C_5  and  O_6
REMARK    3  A    between atoms: O_6  and  C_7
REMARK    4  A    between atoms: C_7  and  C_8
REMARK    5  A    between atoms: C_8  and  C_9
REMARK                            x       y       z     vdW  Elec       q    Type
REMARK                         _______ _______ _______ _____ _____    ______ ____
ROOT
ATOM      1  C   UNL     1       4.781   5.657  17.229  0.00  0.00    +0.000 C 
ATOM      2  C   UNL     1       5.089   5.448  15.684  0.00  0.00    +0.000 C 
ATOM      3  C   UNL     1       6.477   4.749  15.520  0.00  0.00    +0.000 C 
ATOM      4  N   UNL     1       7.582   5.595  15.953  0.00  0.00    +0.000 NA
ATOM      5  C   UNL     1       7.403   6.007  17.336  0.00  0.00    +0.000 C 
ATOM      6  C   UNL     1       6.023   6.565  17.572  0.00  0.00    +0.000 C 
ATOM      7  H   UNL     1       7.631   6.409  15.347  0.00  0.00    +0.000 HD
ENDROOT
BRANCH   1   8
ATOM      8  C   UNL     1       3.727   6.462  18.027  0.00  0.00    +0.000 A 
ATOM      9  C   UNL     1       3.301   7.694  17.428  0.00  0.00    +0.000 A 
ATOM     10  C   UNL     1       2.366   8.549  17.991  0.00  0.00    +0.000 A 
ATOM     11  C   UNL     1       1.809   8.202  19.214  0.00  0.00    +0.000 A 
ATOM     12  C   UNL     1       2.204   7.009  19.827  0.00  0.00    +0.000 A 
ATOM     13  C   UNL     1       3.138   6.133  19.241  0.00  0.00    +0.000 A 
ENDBRANCH   1   8
BRANCH   1  14
ATOM     14  C   UNL     1       4.424   4.184  17.699  0.00  0.00    +0.000 C 
BRANCH  14  15
ATOM     15  O   UNL     1       5.259   3.698  18.817  0.00  0.00    +0.000 OA
BRANCH  15  16
ATOM     16  C   UNL     1       4.709   2.615  19.574  0.00  0.00    +0.000 C 
BRANCH  16  20
ATOM     17  C   UNL     1       0.435   2.948  20.124  0.00  0.00    +0.000 A 
ATOM     18  C   UNL     1       1.298   3.274  21.168  0.00  0.00    +0.000 A 
ATOM     19  C   UNL     1       2.680   3.122  21.014  0.00  0.00    +0.000 A 
ATOM     20  C   UNL     1       3.213   2.643  19.809  0.00  0.00    +0.000 A 
ATOM     21  C   UNL     1       2.333   2.342  18.758  0.00  0.00    +0.000 A 
ATOM     22  C   UNL     1       0.952   2.488  18.915  0.00  0.00    +0.000 A 
ENDBRANCH  16  20
ENDBRANCH  15  16
ENDBRANCH  14  15
ENDBRANCH   1  14
TORSDOF 5
ENDMDL
MODEL 8
REMARK VINA RESULT:      -7.1      1.062      1.972
REMARK  Name = 
REMARK  5 active torsions:
REMARK  status: ('A' for Active; 'I' for Inactive)
REMARK    1  A    between atoms: C_4  and  C_5
REMARK    2  A    between atoms: C_5  and  O_6
REMARK    3  A    between atoms: O_6  and  C_7
REMARK    4  A    between atoms: C_7  and  C_8
REMARK    5  A    between atoms: C_8  and  C_9
REMARK                            x       y       z     vdW  Elec       q    Type
REMARK                         _______ _______ _______ _____ _____    ______ ____
ROOT
ATOM      1  C   UNL     1       4.932   5.843  17.866  0.00  0.00    +0.000 C 
ATOM      2  C   UNL     1       5.137   4.715  16.766  0.00  0.00    +0.000 C 
ATOM      3  C   UNL     1       6.660   4.393  16.627  0.00  0.00    +0.000 C 
ATOM      4  N   UNL     1       7.418   5.510  16.081  0.00  0.00    +0.000 NA
ATOM      5  C   UNL     1       7.243   6.700  16.899  0.00  0.00    +0.000 C 
ATOM      6  C   UNL     1       5.787   6.972  17.173  0.00  0.00    +0.000 C 
ATOM      7  H   UNL     1       7.106   5.689  15.130  0.00  0.00    +0.000 HD
ENDROOT
BRANCH   1   8
ATOM      8  C   UNL     1       3.745   6.736  18.298  0.00  0.00    +0.000 A 
ATOM      9  C   UNL     1       3.113   6.375  19.535  0.00  0.00    +0.000 A 
ATOM     10  C   UNL     1       2.037   7.055  20.085  0.00  0.00    +0.000 A 
ATOM     11  C   UNL     1       1.528   8.148  19.398  0.00  0.00    +0.000 A 
ATOM     12  C   UNL     1       2.118   8.525  18.187  0.00  0.00    +0.000 A 
ATOM     13  C   UNL     1       3.225   7.845  17.644  0.00  0.00    +0.000 A 
ENDBRANCH   1   8
BRANCH   1  14
ATOM     14  C   UNL     1       5.186   5.042  19.213  0.00  0.00    +0.000 C 
BRANCH  14  15
ATOM     15  O   UNL     1       5.544   3.624  19.003  0.00  0.00    +0.000 OA
BRANCH  15  16
ATOM     16  C   UNL     1       4.755   2.673  19.725  0.00  0.00    +0.000 C 
BRANCH  16  20
ATOM     17  C   UNL     1       0.448   3.041  19.795  0.00  0.00    +0.000 A 
ATOM     18  C   UNL     1       1.109   2.829  18.586  0.00  0.00    +0.000 A 
ATOM     19  C   UNL     1       2.506   2.758  18.549  0.00  0.00    +0.000 A 
ATOM     20  C   UNL     1       3.257   2.897  19.725  0.00  0.00    +0.000 A 
ATOM     21  C   UNL     1       2.576   3.085  20.938  0.00  0.00    +0.000 A 
ATOM     22  C   UNL     1       1.181   3.164  20.973  0.00  0.00    +0.000 A 
ENDBRANCH  16  20
ENDBRANCH  15  16
ENDBRANCH  14  15
ENDBRANCH   1  14
TORSDOF 5
ENDMDL
MODEL 9
REMARK VINA RESULT:      -7.1      1.577      3.641
REMARK  Name = 
REMARK  5 active torsions:
REMARK  status: ('A' for Active; 'I' for Inactive)
REMARK    1  A    between atoms: C_4  and  C_5
REMARK    2  A    between atoms: C_5  and  O_6
REMARK    3  A    between atoms: O_6  and  C_7
REMARK    4  A    between atoms: C_7  and  C_8
REMARK    5  A    between atoms: C_8  and  C_9
REMARK                            x       y       z     vdW  Elec       q    Type
REMARK                         _______ _______ _______ _____ _____    ______ ____
ROOT
ATOM      1  C   UNL     1       5.625   4.920  18.255  0.00  0.00    +0.000 C 
ATOM      2  C   UNL     1       7.134   5.295  18.581  0.00  0.00    +0.000 C 
ATOM      3  C   UNL     1       7.471   6.688  17.958  0.00  0.00    +0.000 C 
ATOM      4  N   UNL     1       7.457   6.665  16.502  0.00  0.00    +0.000 NA
ATOM      5  C   UNL     1       6.168   6.207  16.006  0.00  0.00    +0.000 C 
ATOM      6  C   UNL     1       5.739   4.931  16.683  0.00  0.00    +0.000 C 
ATOM      7  H   UNL     1       8.198   6.052  16.174  0.00  0.00    +0.000 HD
ENDROOT
BRANCH   1   8
ATOM      8  C   UNL     1       4.775   3.633  18.379  0.00  0.00    +0.000 A 
ATOM      9  C   UNL     1       3.821   3.414  17.329  0.00  0.00    +0.000 A 
ATOM     10  C   UNL     1       2.973   2.320  17.266  0.00  0.00    +0.000 A 
ATOM     11  C   UNL     1       3.037   1.377  18.282  0.00  0.00    +0.000 A 
ATOM     12  C   UNL     1       3.954   1.560  19.323  0.00  0.00    +0.000 A 
ATOM     13  C   UNL     1       4.829   2.663  19.371  0.00  0.00    +0.000 A 
ENDBRANCH   1   8
BRANCH   1  14
ATOM     14  C   UNL     1       4.826   5.879  19.235  0.00  0.00    +0.000 C 
BRANCH  14  15
ATOM     15  O   UNL     1       3.557   6.384  18.668  0.00  0.00    +0.000 OA
BRANCH  15  16
ATOM     16  C   UNL     1       2.469   6.497  19.590  0.00  0.00    +0.000 C 
BRANCH  16  20
ATOM     17  C   UNL     1       1.278   2.692  21.259  0.00  0.00    +0.000 A 
ATOM     18  C   UNL     1       0.706   3.139  20.069  0.00  0.00    +0.000 A 
ATOM     19  C   UNL     1       1.051   4.391  19.549  0.00  0.00    +0.000 A 
ATOM     20  C   UNL     1       1.975   5.209  20.216  0.00  0.00    +0.000 A 
ATOM     21  C   UNL     1       2.560   4.734  21.400  0.00  0.00    +0.000 A 
ATOM     22  C   UNL     1       2.210   3.486  21.923  0.00  0.00    +0.000 A 
ENDBRANCH  16  20
ENDBRANCH  15  16
ENDBRANCH  14  15
ENDBRANCH   1  14
TORSDOF 5
ENDMDL
