MODEL 1
REMARK VINA RESULT:      -7.7      0.000      0.000
REMARK  Name = 
REMARK  5 active torsions:
REMARK  status: ('A' for Active; 'I' for Inactive)
REMARK    1  A    between atoms: N_6  and  C_7
REMARK    2  A    between atoms: C_9  and  O_10
REMARK    3  A    between atoms: C_11  and  O_12
REMARK    4  A    between atoms: C_13  and  C_14
REMARK    5  A    between atoms: C_14  and  O_15
REMARK                            x       y       z     vdW  Elec       q    Type
REMARK                         _______ _______ _______ _____ _____    ______ ____
ROOT
ATOM      1  C   UNL     1       5.117   4.009  18.810  0.00  0.00    +0.000 C 
ATOM      2  C   UNL     1       4.549   5.154  19.661  0.00  0.00    +0.000 C 
ATOM      3  C   UNL     1       3.358   5.792  18.958  0.00  0.00    +0.000 C 
ATOM      4  C   UNL     1       2.273   4.742  18.688  0.00  0.00    +0.000 C 
ATOM      5  C   UNL     1       2.871   3.525  17.969  0.00  0.00    +0.000 C 
ATOM      6  O   UNL     1       4.054   3.039  18.640  0.00  0.00    +0.000 OA
ENDROOT
BRANCH   1  12
ATOM      7  N   UNL     1       7.571   5.344  13.998  0.00  0.00    +0.000 N 
ATOM      8  C   UNL     1       6.976   4.932  15.164  0.00  0.00    +0.000 A 
ATOM      9  N   UNL     1       7.653   5.071  16.260  0.00  0.00    +0.000 NA
ATOM     10  C   UNL     1       7.110   4.684  17.465  0.00  0.00    +0.000 A 
ATOM     11  O   UNL     1       7.816   4.644  18.464  0.00  0.00    +0.000 OA
ATOM     12  N   UNL     1       5.737   4.352  17.515  0.00  0.00    +0.000 N 
ATOM     13  C   UNL     1       5.070   4.074  16.332  0.00  0.00    +0.000 A 
ATOM     14  C   UNL     1       5.622   4.344  15.152  0.00  0.00    +0.000 A 
ATOM     15  F   UNL     1       5.019   4.136  13.969  0.00  0.00    +0.000 F 
ATOM     16  H   UNL     1       8.578   5.451  14.075  0.00  0.00    +0.000 HD
ATOM     17  H   UNL     1       7.256   4.915  13.135  0.00  0.00    +0.000 HD
ENDBRANCH   1  12
BRANCH   3  18
ATOM     18  O   UNL     1       2.824   6.830  19.780  0.00  0.00    +0.000 OA
ATOM     19  H   UNL     1       3.088   6.619  20.699  0.00  0.00    +0.000 HD
ENDBRANCH   3  18
BRANCH   4  20
ATOM     20  O   UNL     1       1.684   4.376  19.949  0.00  0.00    +0.000 OA
ATOM     21  H   UNL     1       1.945   3.456  20.145  0.00  0.00    +0.000 HD
ENDBRANCH   4  20
BRANCH   5  22
ATOM     22  C   UNL     1       1.852   2.375  17.879  0.00  0.00    +0.000 C 
BRANCH  22  23
ATOM     23  O   UNL     1       1.906   1.525  19.027  0.00  0.00    +0.000 OA
ATOM     24  H   UNL     1       2.703   1.744  19.535  0.00  0.00    +0.000 HD
ENDBRANCH  22  23
ENDBRANCH   5  22
TORSDOF 5
ENDMDL
MODEL 2
REMARK VINA RESULT:      -7.3      3.023      5.518
REMARK  Name = 
REMARK  5 active torsions:
REMARK  status: ('A' for Active; 'I' for Inactive)
REMARK    1  A    between atoms: N_6  and  C_7
REMARK    2  A    between atoms: C_9  and  O_10
REMARK    3  A    between atoms: C_11  and  O_12
REMARK    4  A    between atoms: C_13  and  C_14
REMARK    5  A    between atoms: C_14  and  O_15
REMARK                            x       y       z     vdW  Elec       q    Type
REMARK                         _______ _______ _______ _____ _____    ______ ____
ROOT
ATOM      1  C   UNL     1       5.216   3.905  17.229  0.00  0.00    +0.000 C 
ATOM      2  C   UNL     1       5.187   4.748  15.946  0.00  0.00    +0.000 C 
ATOM      3  C   UNL     1       5.134   6.230  16.289  0.00  0.00    +0.000 C 
ATOM      4  C   UNL     1       6.338   6.622  17.155  0.00  0.00    +0.000 C 
ATOM      5  C   UNL     1       6.458   5.683  18.364  0.00  0.00    +0.000 C 
ATOM      6  O   UNL     1       6.401   4.294  17.966  0.00  0.00    +0.000 OA
ENDROOT
BRANCH   1  12
ATOM      7  N   UNL     1       0.681   3.844  20.452  0.00  0.00    +0.000 N 
ATOM      8  C   UNL     1       1.847   3.856  19.729  0.00  0.00    +0.000 A 
ATOM      9  N   UNL     1       2.158   2.776  19.082  0.00  0.00    +0.000 NA
ATOM     10  C   UNL     1       3.311   2.725  18.332  0.00  0.00    +0.000 A 
ATOM     11  O   UNL     1       3.693   1.654  17.879  0.00  0.00    +0.000 OA
ATOM     12  N   UNL     1       4.020   3.924  18.095  0.00  0.00    +0.000 N 
ATOM     13  C   UNL     1       3.762   5.027  18.895  0.00  0.00    +0.000 A 
ATOM     14  C   UNL     1       2.708   5.053  19.708  0.00  0.00    +0.000 A 
ATOM     15  F   UNL     1       2.377   6.101  20.482  0.00  0.00    +0.000 F 
ATOM     16  H   UNL     1       0.329   2.909  20.636  0.00  0.00    +0.000 HD
ATOM     17  H   UNL     1       0.610   4.484  21.235  0.00  0.00    +0.000 HD
ENDBRANCH   1  12
BRANCH   3  18
ATOM     18  O   UNL     1       5.142   6.997  15.085  0.00  0.00    +0.000 OA
ATOM     19  H   UNL     1       6.061   6.967  14.746  0.00  0.00    +0.000 HD
ENDBRANCH   3  18
BRANCH   4  20
ATOM     20  O   UNL     1       7.514   6.574  16.328  0.00  0.00    +0.000 OA
ATOM     21  H   UNL     1       7.484   7.336  15.720  0.00  0.00    +0.000 HD
ENDBRANCH   4  20
BRANCH   5  22
ATOM     22  C   UNL     1       7.774   5.920  19.125  0.00  0.00    +0.000 C 
BRANCH  22  23
ATOM     23  O   UNL     1       7.718   5.410  20.459  0.00  0.00    +0.000 OA
ATOM     24  H   UNL     1       8.610   5.444  20.839  0.00  0.00    +0.000 HD
ENDBRANCH  22  23
ENDBRANCH   5  22
TORSDOF 5
ENDMDL
MODEL 3
REMARK VINA RESULT:      -7.2      2.076      2.785
REMARK  Name = 
REMARK  5 active torsions:
REMARK  status: ('A' for Active; 'I' for Inactive)
REMARK    1  A    between atoms: N_6  and  C_7
REMARK    2  A    between atoms: C_9  and  O_10
REMARK    3  A    between atoms: C_11  and  O_12
REMARK    4  A    between atoms: C_13  and  C_14
REMARK    5  A    between atoms: C_14  and  O_15
REMARK                            x       y       z     vdW  Elec       q    Type
REMARK                         _______ _______ _______ _____ _____    ______ ____
ROOT
ATOM      1  C   UNL     1       3.833   5.511  18.877  0.00  0.00    +0.000 C 
ATOM      2  C   UNL     1       2.370   5.394  18.424  0.00  0.00    +0.000 C 
ATOM      3  C   UNL     1       2.116   4.024  17.810  0.00  0.00    +0.000 C 
ATOM      4  C   UNL     1       2.450   2.917  18.818  0.00  0.00    +0.000 C 
ATOM      5  C   UNL     1       3.862   3.118  19.388  0.00  0.00    +0.000 C 
ATOM      6  O   UNL     1       4.058   4.470  19.859  0.00  0.00    +0.000 OA
ENDROOT
BRANCH   1  12
ATOM      7  N   UNL     1       7.706   5.553  14.883  0.00  0.00    +0.000 N 
ATOM      8  C   UNL     1       6.805   5.588  15.916  0.00  0.00    +0.000 A 
ATOM      9  N   UNL     1       5.767   6.351  15.776  0.00  0.00    +0.000 NA
ATOM     10  C   UNL     1       4.821   6.426  16.773  0.00  0.00    +0.000 A 
ATOM     11  O   UNL     1       3.946   7.281  16.718  0.00  0.00    +0.000 OA
ATOM     12  N   UNL     1       4.881   5.498  17.837  0.00  0.00    +0.000 N 
ATOM     13  C   UNL     1       6.056   4.793  18.047  0.00  0.00    +0.000 A 
ATOM     14  C   UNL     1       7.029   4.793  17.139  0.00  0.00    +0.000 A 
ATOM     15  F   UNL     1       8.176   4.104  17.259  0.00  0.00    +0.000 F 
ATOM     16  H   UNL     1       7.616   6.334  14.241  0.00  0.00    +0.000 HD
ATOM     17  H   UNL     1       8.662   5.295  15.103  0.00  0.00    +0.000 HD
ENDBRANCH   1  12
BRANCH   3  18
ATOM     18  O   UNL     1       0.745   3.923  17.427  0.00  0.00    +0.000 OA
ATOM     19  H   UNL     1       0.473   4.818  17.135  0.00  0.00    +0.000 HD
ENDBRANCH   3  18
BRANCH   4  20
ATOM     20  O   UNL     1       1.452   2.944  19.855  0.00  0.00    +0.000 OA
ATOM     21  H   UNL     1       1.912   3.026  20.711  0.00  0.00    +0.000 HD
ENDBRANCH   4  20
BRANCH   5  22
ATOM     22  C   UNL     1       4.136   2.150  20.553  0.00  0.00    +0.000 C 
BRANCH  22  23
ATOM     23  O   UNL     1       5.355   1.427  20.369  0.00  0.00    +0.000 OA
ATOM     24  H   UNL     1       5.896   1.529  21.168  0.00  0.00    +0.000 HD
ENDBRANCH  22  23
ENDBRANCH   5  22
TORSDOF 5
ENDMDL
MODEL 4
REMARK VINA RESULT:      -7.2      2.334      3.402
REMARK  Name = 
REMARK  5 active torsions:
REMARK  status: ('A' for Active; 'I' for Inactive)
REMARK    1  A    between atoms: N_6  and  C_7
REMARK    2  A    between atoms: C_9  and  O_10
REMARK    3  A    between atoms: C_11  and  O_12
REMARK    4  A    between atoms: C_13  and  C_14
REMARK    5  A    between atoms: C_14  and  O_15
REMARK                            x       y       z     vdW  Elec       q    Type
REMARK                         _______ _______ _______ _____ _____    ______ ____
ROOT
ATOM      1  C   UNL     1       2.996   4.305  17.477  0.00  0.00    +0.000 C 
ATOM      2  C   UNL     1       3.015   2.776  17.342  0.00  0.00    +0.000 C 
ATOM      3  C   UNL     1       3.802   2.154  18.487  0.00  0.00    +0.000 C 
ATOM      4  C   UNL     1       3.193   2.561  19.835  0.00  0.00    +0.000 C 
ATOM      5  C   UNL     1       3.034   4.085  19.914  0.00  0.00    +0.000 C 
ATOM      6  O   UNL     1       2.366   4.611  18.745  0.00  0.00    +0.000 OA
ENDROOT
BRANCH   1  12
ATOM      7  N   UNL     1       7.747   7.147  16.921  0.00  0.00    +0.000 N 
ATOM      8  C   UNL     1       6.598   6.430  17.140  0.00  0.00    +0.000 A 
ATOM      9  N   UNL     1       5.488   7.095  17.228  0.00  0.00    +0.000 NA
ATOM     10  C   UNL     1       4.299   6.436  17.439  0.00  0.00    +0.000 A 
ATOM     11  O   UNL     1       3.289   7.074  17.705  0.00  0.00    +0.000 OA
ATOM     12  N   UNL     1       4.276   5.027  17.330  0.00  0.00    +0.000 N 
ATOM     13  C   UNL     1       5.474   4.330  17.377  0.00  0.00    +0.000 A 
ATOM     14  C   UNL     1       6.641   4.962  17.280  0.00  0.00    +0.000 A 
ATOM     15  F   UNL     1       7.836   4.348  17.280  0.00  0.00    +0.000 F 
ATOM     16  H   UNL     1       7.653   8.136  17.132  0.00  0.00    +0.000 HD
ATOM     17  H   UNL     1       8.622   6.732  17.222  0.00  0.00    +0.000 HD
ENDBRANCH   1  12
BRANCH   3  18
ATOM     18  O   UNL     1       3.778   0.732  18.363  0.00  0.00    +0.000 OA
ATOM     19  H   UNL     1       2.848   0.487  18.174  0.00  0.00    +0.000 HD
ENDBRANCH   3  18
BRANCH   4  20
ATOM     20  O   UNL     1       1.929   1.888  19.974  0.00  0.00    +0.000 OA
ATOM     21  H   UNL     1       1.286   2.530  20.328  0.00  0.00    +0.000 HD
ENDBRANCH   4  20
BRANCH   5  22
ATOM     22  C   UNL     1       2.233   4.498  21.162  0.00  0.00    +0.000 C 
BRANCH  22  23
ATOM     23  O   UNL     1       2.225   3.470  22.155  0.00  0.00    +0.000 OA
ATOM     24  H   UNL     1       2.380   3.879  23.021  0.00  0.00    +0.000 HD
ENDBRANCH  22  23
ENDBRANCH   5  22
TORSDOF 5
ENDMDL
MODEL 5
REMARK VINA RESULT:      -7.2      3.204      5.723
REMARK  Name = 
REMARK  5 active torsions:
REMARK  status: ('A' for Active; 'I' for Inactive)
REMARK    1  A    between atoms: N_6  and  C_7
REMARK    2  A    between atoms: C_9  and  O_10
REMARK    3  A    between atoms: C_11  and  O_12
REMARK    4  A    between atoms: C_13  and  C_14
REMARK    5  A    between atoms: C_14  and  O_15
REMARK                            x       y       z     vdW  Elec       q    Type
REMARK                         _______ _______ _______ _____ _____    ______ ____
ROOT
ATOM      1  C   UNL     1       5.093   3.800  17.337  0.00  0.00    +0.000 C 
ATOM      2  C   UNL     1       5.134   4.619  16.038  0.00  0.00    +0.000 C 
ATOM      3  C   UNL     1       5.128   6.108  16.352  0.00  0.00    +0.000 C 
ATOM      4  C   UNL     1       6.322   6.470  17.245  0.00  0.00    +0.000 C 
ATOM      5  C   UNL     1       6.371   5.551  18.474  0.00  0.00    +0.000 C 
ATOM      6  O   UNL     1       6.271   4.158  18.100  0.00  0.00    +0.000 OA
ENDROOT
BRANCH   1  12
ATOM      7  N   UNL     1       0.424   4.090  20.348  0.00  0.00    +0.000 N 
ATOM      8  C   UNL     1       1.589   3.942  19.641  0.00  0.00    +0.000 A 
ATOM      9  N   UNL     1       1.490   3.709  18.369  0.00  0.00    +0.000 NA
ATOM     10  C   UNL     1       2.622   3.557  17.601  0.00  0.00    +0.000 A 
ATOM     11  O   UNL     1       2.524   3.155  16.449  0.00  0.00    +0.000 OA
ATOM     12  N   UNL     1       3.875   3.883  18.167  0.00  0.00    +0.000 N 
ATOM     13  C   UNL     1       3.982   3.992  19.545  0.00  0.00    +0.000 A 
ATOM     14  C   UNL     1       2.898   4.034  20.317  0.00  0.00    +0.000 A 
ATOM     15  F   UNL     1       2.926   4.176  21.652  0.00  0.00    +0.000 F 
ATOM     16  H   UNL     1      -0.391   3.725  19.865  0.00  0.00    +0.000 HD
ATOM     17  H   UNL     1       0.451   3.892  21.342  0.00  0.00    +0.000 HD
ENDBRANCH   1  12
BRANCH   3  18
ATOM     18  O   UNL     1       5.201   6.850  15.135  0.00  0.00    +0.000 OA
ATOM     19  H   UNL     1       6.150   6.892  14.894  0.00  0.00    +0.000 HD
ENDBRANCH   3  18
BRANCH   4  20
ATOM     20  O   UNL     1       7.519   6.360  16.453  0.00  0.00    +0.000 OA
ATOM     21  H   UNL     1       8.261   6.702  16.985  0.00  0.00    +0.000 HD
ENDBRANCH   4  20
BRANCH   5  22
ATOM     22  C   UNL     1       7.674   5.752  19.269  0.00  0.00    +0.000 C 
BRANCH  22  23
ATOM     23  O   UNL     1       8.302   6.997  18.956  0.00  0.00    +0.000 OA
ATOM     24  H   UNL     1       9.123   6.814  18.474  0.00  0.00    +0.000 HD
ENDBRANCH  22  23
ENDBRANCH   5  22
TORSDOF 5
ENDMDL
MODEL 6
REMARK VINA RESULT:      -7.2      2.879      5.229
REMARK  Name = 
REMARK  5 active torsions:
REMARK  status: ('A' for Active; 'I' for Inactive)
REMARK    1  A    between atoms: N_6  and  C_7
REMARK    2  A    between atoms: C_9  and  O_10
REMARK    3  A    between atoms: C_11  and  O_12
REMARK    4  A    between atoms: C_13  and  C_14
REMARK    5  A    between atoms: C_14  and  O_15
REMARK                            x       y       z     vdW  Elec       q    Type
REMARK                         _______ _______ _______ _____ _____    ______ ____
ROOT
ATOM      1  C   UNL     1       5.554   3.715  17.244  0.00  0.00    +0.000 C 
ATOM      2  C   UNL     1       5.592   4.478  15.912  0.00  0.00    +0.000 C 
ATOM      3  C   UNL     1       5.339   5.961  16.144  0.00  0.00    +0.000 C 
ATOM      4  C   UNL     1       6.379   6.534  17.114  0.00  0.00    +0.000 C 
ATOM      5  C   UNL     1       6.450   5.683  18.390  0.00  0.00    +0.000 C 
ATOM      6  O   UNL     1       6.591   4.277  18.085  0.00  0.00    +0.000 OA
ENDROOT
BRANCH   1  12
ATOM      7  N   UNL     1       0.763   3.380  20.055  0.00  0.00    +0.000 N 
ATOM      8  C   UNL     1       1.948   3.546  19.383  0.00  0.00    +0.000 A 
ATOM      9  N   UNL     1       3.012   3.029  19.914  0.00  0.00    +0.000 NA
ATOM     10  C   UNL     1       4.231   3.154  19.287  0.00  0.00    +0.000 A 
ATOM     11  O   UNL     1       5.253   2.830  19.877  0.00  0.00    +0.000 OA
ATOM     12  N   UNL     1       4.265   3.646  17.963  0.00  0.00    +0.000 N 
ATOM     13  C   UNL     1       3.158   4.317  17.466  0.00  0.00    +0.000 A 
ATOM     14  C   UNL     1       1.995   4.296  18.113  0.00  0.00    +0.000 A 
ATOM     15  F   UNL     1       0.874   4.891  17.673  0.00  0.00    +0.000 F 
ATOM     16  H   UNL     1       0.884   3.119  21.028  0.00  0.00    +0.000 HD
ATOM     17  H   UNL     1       0.031   4.061  19.887  0.00  0.00    +0.000 HD
ENDBRANCH   1  12
BRANCH   3  18
ATOM     18  O   UNL     1       5.413   6.655  14.900  0.00  0.00    +0.000 OA
ATOM     19  H   UNL     1       6.352   6.624  14.622  0.00  0.00    +0.000 HD
ENDBRANCH   3  18
BRANCH   4  20
ATOM     20  O   UNL     1       7.647   6.575  16.434  0.00  0.00    +0.000 OA
ATOM     21  H   UNL     1       8.251   5.961  16.891  0.00  0.00    +0.000 HD
ENDBRANCH   4  20
BRANCH   5  22
ATOM     22  C   UNL     1       7.631   6.111  19.280  0.00  0.00    +0.000 C 
BRANCH  22  23
ATOM     23  O   UNL     1       7.762   5.272  20.431  0.00  0.00    +0.000 OA
ATOM     24  H   UNL     1       8.380   4.556  20.220  0.00  0.00    +0.000 HD
ENDBRANCH  22  23
ENDBRANCH   5  22
TORSDOF 5
ENDMDL
MODEL 7
REMARK VINA RESULT:      -7.1      2.849      5.318
REMARK  Name = 
REMARK  5 active torsions:
REMARK  status: ('A' for Active; 'I' for Inactive)
REMARK    1  A    between atoms: N_6  and  C_7
REMARK    2  A    between atoms: C_9  and  O_10
REMARK    3  A    between atoms: C_11  and  O_12
REMARK    4  A    between atoms: C_13  and  C_14
REMARK    5  A    between atoms: C_14  and  O_15
REMARK                            x       y       z     vdW  Elec       q    Type
REMARK                         _______ _______ _______ _____ _____    ______ ____
ROOT
ATOM      1  C   UNL     1       4.599   6.064  17.517  0.00  0.00    +0.000 C 
ATOM      2  C   UNL     1       6.005   6.038  18.135  0.00  0.00    +0.000 C 
ATOM      3  C   UNL     1       6.635   4.664  17.956  0.00  0.00    +0.000 C 
ATOM      4  C   UNL     1       6.702   4.297  16.469  0.00  0.00    +0.000 C 
ATOM      5  C   UNL     1       5.326   4.467  15.811  0.00  0.00    +0.000 C 
ATOM      6  O   UNL     1       4.750   5.759  16.109  0.00  0.00    +0.000 OA
ENDROOT
BRANCH   1  12
ATOM      7  N   UNL     1       0.647   2.992  19.946  0.00  0.00    +0.000 N 
ATOM      8  C   UNL     1       1.568   3.761  19.282  0.00  0.00    +0.000 A 
ATOM      9  N   UNL     1       1.796   4.951  19.744  0.00  0.00    +0.000 NA
ATOM     10  C   UNL     1       2.713   5.771  19.128  0.00  0.00    +0.000 A 
ATOM     11  O   UNL     1       2.789   6.949  19.452  0.00  0.00    +0.000 OA
ATOM     12  N   UNL     1       3.557   5.221  18.137  0.00  0.00    +0.000 N 
ATOM     13  C   UNL     1       3.214   4.008  17.560  0.00  0.00    +0.000 A 
ATOM     14  C   UNL     1       2.254   3.247  18.081  0.00  0.00    +0.000 A 
ATOM     15  F   UNL     1       1.896   2.046  17.598  0.00  0.00    +0.000 F 
ATOM     16  H   UNL     1       0.037   3.528  20.556  0.00  0.00    +0.000 HD
ATOM     17  H   UNL     1       0.183   2.259  19.421  0.00  0.00    +0.000 HD
ENDBRANCH   1  12
BRANCH   3  18
ATOM     18  O   UNL     1       7.952   4.671  18.506  0.00  0.00    +0.000 OA
ATOM     19  H   UNL     1       7.845   4.735  19.478  0.00  0.00    +0.000 HD
ENDBRANCH   3  18
BRANCH   4  20
ATOM     20  O   UNL     1       7.693   5.137  15.848  0.00  0.00    +0.000 OA
ATOM     21  H   UNL     1       7.684   5.998  16.306  0.00  0.00    +0.000 HD
ENDBRANCH   4  20
BRANCH   5  22
ATOM     22  C   UNL     1       5.416   4.313  14.282  0.00  0.00    +0.000 C 
BRANCH  22  23
ATOM     23  O   UNL     1       6.401   3.351  13.900  0.00  0.00    +0.000 OA
ATOM     24  H   UNL     1       6.929   3.723  13.176  0.00  0.00    +0.000 HD
ENDBRANCH  22  23
ENDBRANCH   5  22
TORSDOF 5
ENDMDL
MODEL 8
REMARK VINA RESULT:      -7.1      1.415      2.011
REMARK  Name = 
REMARK  5 active torsions:
REMARK  status: ('A' for Active; 'I' for Inactive)
REMARK    1  A    between atoms: N_6  and  C_7
REMARK    2  A    between atoms: C_9  and  O_10
REMARK    3  A    between atoms: C_11  and  O_12
REMARK    4  A    between atoms: C_13  and  C_14
REMARK    5  A    between atoms: C_14  and  O_15
REMARK                            x       y       z     vdW  Elec       q    Type
REMARK                         _______ _______ _______ _____ _____    ______ ____
ROOT
ATOM      1  C   UNL     1       4.087   5.564  18.544  0.00  0.00    +0.000 C 
ATOM      2  C   UNL     1       2.596   5.473  18.190  0.00  0.00    +0.000 C 
ATOM      3  C   UNL     1       2.264   4.086  17.656  0.00  0.00    +0.000 C 
ATOM      4  C   UNL     1       2.631   3.014  18.690  0.00  0.00    +0.000 C 
ATOM      5  C   UNL     1       4.081   3.196  19.159  0.00  0.00    +0.000 C 
ATOM      6  O   UNL     1       4.345   4.560  19.556  0.00  0.00    +0.000 OA
ENDROOT
BRANCH   1  12
ATOM      7  N   UNL     1       7.874   5.271  14.478  0.00  0.00    +0.000 N 
ATOM      8  C   UNL     1       6.942   5.257  15.485  0.00  0.00    +0.000 A 
ATOM      9  N   UNL     1       7.326   5.656  16.657  0.00  0.00    +0.000 NA
ATOM     10  C   UNL     1       6.438   5.674  17.709  0.00  0.00    +0.000 A 
ATOM     11  O   UNL     1       6.848   5.872  18.845  0.00  0.00    +0.000 OA
ATOM     12  N   UNL     1       5.065   5.473  17.442  0.00  0.00    +0.000 N 
ATOM     13  C   UNL     1       4.692   4.915  16.228  0.00  0.00    +0.000 A 
ATOM     14  C   UNL     1       5.565   4.792  15.231  0.00  0.00    +0.000 A 
ATOM     15  F   UNL     1       5.264   4.297  14.019  0.00  0.00    +0.000 F 
ATOM     16  H   UNL     1       8.831   5.321  14.813  0.00  0.00    +0.000 HD
ATOM     17  H   UNL     1       7.731   4.636  13.700  0.00  0.00    +0.000 HD
ENDBRANCH   1  12
BRANCH   3  18
ATOM     18  O   UNL     1       0.868   4.011  17.365  0.00  0.00    +0.000 OA
ATOM     19  H   UNL     1       0.469   4.834  17.716  0.00  0.00    +0.000 HD
ENDBRANCH   3  18
BRANCH   4  20
ATOM     20  O   UNL     1       1.702   3.117  19.785  0.00  0.00    +0.000 OA
ATOM     21  H   UNL     1       1.859   2.361  20.381  0.00  0.00    +0.000 HD
ENDBRANCH   4  20
BRANCH   5  22
ATOM     22  C   UNL     1       4.402   2.271  20.347  0.00  0.00    +0.000 C 
BRANCH  22  23
ATOM     23  O   UNL     1       5.250   1.186  19.964  0.00  0.00    +0.000 OA
ATOM     24  H   UNL     1       6.154   1.387  20.250  0.00  0.00    +0.000 HD
ENDBRANCH  22  23
ENDBRANCH   5  22
TORSDOF 5
ENDMDL
MODEL 9
REMARK VINA RESULT:      -7.0      3.354      5.546
REMARK  Name = 
REMARK  5 active torsions:
REMARK  status: ('A' for Active; 'I' for Inactive)
REMARK    1  A    between atoms: N_6  and  C_7
REMARK    2  A    between atoms: C_9  and  O_10
REMARK    3  A    between atoms: C_11  and  O_12
REMARK    4  A    between atoms: C_13  and  C_14
REMARK    5  A    between atoms: C_14  and  O_15
REMARK                            x       y       z     vdW  Elec       q    Type
REMARK                         _______ _______ _______ _____ _____    ______ ____
ROOT
ATOM      1  C   UNL     1       5.039   3.759  17.896  0.00  0.00    +0.000 C 
ATOM      2  C   UNL     1       4.676   4.734  16.767  0.00  0.00    +0.000 C 
ATOM      3  C   UNL     1       4.649   6.163  17.291  0.00  0.00    +0.000 C 
ATOM      4  C   UNL     1       6.009   6.534  17.896  0.00  0.00    +0.000 C 
ATOM      5  C   UNL     1       6.446   5.478  18.921  0.00  0.00    +0.000 C 
ATOM      6  O   UNL     1       6.349   4.141  18.382  0.00  0.00    +0.000 OA
ENDROOT
BRANCH   1  12
ATOM      7  N   UNL     1       1.496   3.060  22.130  0.00  0.00    +0.000 N 
ATOM      8  C   UNL     1       2.407   3.295  21.131  0.00  0.00    +0.000 A 
ATOM      9  N   UNL     1       3.339   2.411  20.955  0.00  0.00    +0.000 NA
ATOM     10  C   UNL     1       4.281   2.583  19.966  0.00  0.00    +0.000 A 
ATOM     11  O   UNL     1       5.259   1.849  19.924  0.00  0.00    +0.000 OA
ATOM     12  N   UNL     1       4.082   3.606  19.011  0.00  0.00    +0.000 N 
ATOM     13  C   UNL     1       3.174   4.616  19.288  0.00  0.00    +0.000 A 
ATOM     14  C   UNL     1       2.324   4.516  20.307  0.00  0.00    +0.000 A 
ATOM     15  F   UNL     1       1.394   5.437  20.610  0.00  0.00    +0.000 F 
ATOM     16  H   UNL     1       1.807   2.370  22.806  0.00  0.00    +0.000 HD
ATOM     17  H   UNL     1       1.024   3.863  22.531  0.00  0.00    +0.000 HD
ENDBRANCH   1  12
BRANCH   3  18
ATOM     18  O   UNL     1       4.344   7.055  16.220  0.00  0.00    +0.000 OA
ATOM     19  H   UNL     1       3.585   7.597  16.520  0.00  0.00    +0.000 HD
ENDBRANCH   3  18
BRANCH   4  20
ATOM     20  O   UNL     1       6.957   6.653  16.820  0.00  0.00    +0.000 OA
ATOM     21  H   UNL     1       6.670   6.060  16.102  0.00  0.00    +0.000 HD
ENDBRANCH   4  20
BRANCH   5  22
ATOM     22  C   UNL     1       7.896   5.716  19.381  0.00  0.00    +0.000 C 
BRANCH  22  23
ATOM     23  O   UNL     1       8.088   5.351  20.750  0.00  0.00    +0.000 OA
ATOM     24  H   UNL     1       7.525   4.585  20.945  0.00  0.00    +0.000 HD
ENDBRANCH  22  23
ENDBRANCH   5  22
TORSDOF 5
ENDMDL
