MODEL 1
REMARK VINA RESULT:      -8.5      0.000      0.000
REMARK  Name = 
REMARK  8 active torsions:
REMARK  status: ('A' for Active; 'I' for Inactive)
REMARK    1  A    between atoms: C_1  and  C_2
REMARK    2  A    between atoms: C_8  and  C_9
REMARK    3  A    between atoms: C_9  and  C_10
REMARK    4  A    between atoms: N_12  and  C_13
REMARK    5  A    between atoms: C_13  and  C_14
REMARK    6  A    between atoms: C_14  and  C_15
REMARK    7  A    between atoms: C_15  and  O_17
REMARK    8  A    between atoms: N_27  and  C_28
REMARK                            x       y       z     vdW  Elec       q    Type
REMARK                         _______ _______ _______ _____ _____    ______ ____
ROOT
ATOM      1  C   UNL     1       2.016   6.736  19.872  0.00  0.00    +0.000 A 
ATOM      2  N   UNL     1       2.638   6.814  18.719  0.00  0.00    +0.000 NA
ATOM      3  N   UNL     1       2.792   5.612  18.038  0.00  0.00    +0.000 N 
ATOM      4  C   UNL     1       1.603   4.838  18.061  0.00  0.00    +0.000 A 
ATOM      5  O   UNL     1       1.012   4.434  17.070  0.00  0.00    +0.000 OA
ATOM      6  C   UNL     1       1.224   4.452  19.430  0.00  0.00    +0.000 A 
ATOM      7  C   UNL     1       1.062   3.082  19.610  0.00  0.00    +0.000 A 
ATOM      8  C   UNL     1       1.638   2.500  20.719  0.00  0.00    +0.000 A 
ATOM      9  C   UNL     1       2.330   3.310  21.630  0.00  0.00    +0.000 A 
ATOM     10  C   UNL     1       2.337   4.731  21.505  0.00  0.00    +0.000 A 
ATOM     11  C   UNL     1       1.698   5.345  20.417  0.00  0.00    +0.000 A 
ENDROOT
BRANCH   1  12
ATOM     12  C   UNL     1       1.780   8.083  20.570  0.00  0.00    +0.000 C 
BRANCH  12  20
ATOM     13  C   UNL     1       0.442   9.200  23.425  0.00  0.00    +0.000 C 
ATOM     14  C   UNL     1      -0.229  10.094  22.422  0.00  0.00    +0.000 A 
ATOM     15  C   UNL     1      -1.054  11.131  22.920  0.00  0.00    +0.000 A 
ATOM     16  C   UNL     1      -1.717  12.009  22.077  0.00  0.00    +0.000 A 
ATOM     17  C   UNL     1      -1.585  11.888  20.701  0.00  0.00    +0.000 A 
ATOM     18  C   UNL     1      -0.773  10.856  20.195  0.00  0.00    +0.000 A 
ATOM     19  C   UNL     1      -0.086   9.942  21.011  0.00  0.00    +0.000 A 
ATOM     20  C   UNL     1       0.691   9.061  20.143  0.00  0.00    +0.000 A 
ATOM     21  C   UNL     1       0.441   9.515  18.848  0.00  0.00    +0.000 A 
ATOM     22  N   UNL     1      -0.469  10.545  18.890  0.00  0.00    +0.000 N 
ATOM     23  C   UNL     1      -1.020  11.263  17.759  0.00  0.00    +0.000 C 
ENDBRANCH  12  20
ENDBRANCH   1  12
BRANCH   3  24
ATOM     24  C   UNL     1       4.065   4.919  18.440  0.00  0.00    +0.000 C 
BRANCH  24  25
ATOM     25  C   UNL     1       5.297   5.785  18.250  0.00  0.00    +0.000 C 
BRANCH  25  26
ATOM     26  C   UNL     1       6.501   5.110  18.853  0.00  0.00    +0.000 C 
ATOM     27  O   UNL     1       7.012   5.398  19.932  0.00  0.00    +0.000 OA
BRANCH  26  28
ATOM     28  O   UNL     1       6.959   4.098  18.083  0.00  0.00    +0.000 OA
ATOM     29  H   UNL     1       7.933   4.017  18.088  0.00  0.00    +0.000 HD
ENDBRANCH  26  28
ENDBRANCH  25  26
ENDBRANCH  24  25
ENDBRANCH   3  24
TORSDOF 6
ENDMDL
MODEL 2
REMARK VINA RESULT:      -8.5      1.135      1.447
REMARK  Name = 
REMARK  8 active torsions:
REMARK  status: ('A' for Active; 'I' for Inactive)
REMARK    1  A    between atoms: C_1  and  C_2
REMARK    2  A    between atoms: C_8  and  C_9
REMARK    3  A    between atoms: C_9  and  C_10
REMARK    4  A    between atoms: N_12  and  C_13
REMARK    5  A    between atoms: C_13  and  C_14
REMARK    6  A    between atoms: C_14  and  C_15
REMARK    7  A    between atoms: C_15  and  O_17
REMARK    8  A    between atoms: N_27  and  C_28
REMARK                            x       y       z     vdW  Elec       q    Type
REMARK                         _______ _______ _______ _____ _____    ______ ____
ROOT
ATOM      1  C   UNL     1       2.007   6.716  19.909  0.00  0.00    +0.000 A 
ATOM      2  N   UNL     1       2.647   6.756  18.764  0.00  0.00    +0.000 NA
ATOM      3  N   UNL     1       2.776   5.539  18.106  0.00  0.00    +0.000 N 
ATOM      4  C   UNL     1       1.566   4.799  18.125  0.00  0.00    +0.000 A 
ATOM      5  O   UNL     1       0.978   4.394  17.132  0.00  0.00    +0.000 OA
ATOM      6  C   UNL     1       1.157   4.448  19.494  0.00  0.00    +0.000 A 
ATOM      7  C   UNL     1       0.954   3.085  19.695  0.00  0.00    +0.000 A 
ATOM      8  C   UNL     1       1.498   2.507  20.822  0.00  0.00    +0.000 A 
ATOM      9  C   UNL     1       2.200   3.314  21.729  0.00  0.00    +0.000 A 
ATOM     10  C   UNL     1       2.248   4.731  21.580  0.00  0.00    +0.000 A 
ATOM     11  C   UNL     1       1.643   5.344  20.473  0.00  0.00    +0.000 A 
ENDROOT
BRANCH   1  12
ATOM     12  C   UNL     1       1.799   8.081  20.581  0.00  0.00    +0.000 C 
BRANCH  12  20
ATOM     13  C   UNL     1       0.460   9.190  23.438  0.00  0.00    +0.000 C 
ATOM     14  C   UNL     1      -0.211  10.086  22.436  0.00  0.00    +0.000 A 
ATOM     15  C   UNL     1      -1.037  11.122  22.937  0.00  0.00    +0.000 A 
ATOM     16  C   UNL     1      -1.700  12.001  22.096  0.00  0.00    +0.000 A 
ATOM     17  C   UNL     1      -1.567  11.883  20.719  0.00  0.00    +0.000 A 
ATOM     18  C   UNL     1      -0.755  10.853  20.212  0.00  0.00    +0.000 A 
ATOM     19  C   UNL     1      -0.068   9.938  21.025  0.00  0.00    +0.000 A 
ATOM     20  C   UNL     1       0.710   9.059  20.155  0.00  0.00    +0.000 A 
ATOM     21  C   UNL     1       0.461   9.516  18.861  0.00  0.00    +0.000 A 
ATOM     22  N   UNL     1      -0.450  10.545  18.906  0.00  0.00    +0.000 N 
ATOM     23  C   UNL     1      -1.001  11.266  17.776  0.00  0.00    +0.000 C 
ENDBRANCH  12  20
ENDBRANCH   1  12
BRANCH   3  24
ATOM     24  C   UNL     1       4.023   4.817  18.537  0.00  0.00    +0.000 C 
BRANCH  24  25
ATOM     25  C   UNL     1       4.326   3.595  17.688  0.00  0.00    +0.000 C 
BRANCH  25  26
ATOM     26  C   UNL     1       4.263   2.350  18.532  0.00  0.00    +0.000 C 
ATOM     27  O   UNL     1       3.638   1.332  18.253  0.00  0.00    +0.000 OA
BRANCH  26  28
ATOM     28  O   UNL     1       5.018   2.451  19.649  0.00  0.00    +0.000 OA
ATOM     29  H   UNL     1       5.774   3.065  19.552  0.00  0.00    +0.000 HD
ENDBRANCH  26  28
ENDBRANCH  25  26
ENDBRANCH  24  25
ENDBRANCH   3  24
TORSDOF 6
ENDMDL
MODEL 3
REMARK VINA RESULT:      -8.3      0.842      1.175
REMARK  Name = 
REMARK  8 active torsions:
REMARK  status: ('A' for Active; 'I' for Inactive)
REMARK    1  A    between atoms: C_1  and  C_2
REMARK    2  A    between atoms: C_8  and  C_9
REMARK    3  A    between atoms: C_9  and  C_10
REMARK    4  A    between atoms: N_12  and  C_13
REMARK    5  A    between atoms: C_13  and  C_14
REMARK    6  A    between atoms: C_14  and  C_15
REMARK    7  A    between atoms: C_15  and  O_17
REMARK    8  A    between atoms: N_27  and  C_28
REMARK                            x       y       z     vdW  Elec       q    Type
REMARK                         _______ _______ _______ _____ _____    ______ ____
ROOT
ATOM      1  C   UNL     1       1.999   6.683  19.947  0.00  0.00    +0.000 A 
ATOM      2  N   UNL     1       2.644   6.781  18.808  0.00  0.00    +0.000 NA
ATOM      3  N   UNL     1       2.815   5.591  18.112  0.00  0.00    +0.000 N 
ATOM      4  C   UNL     1       1.629   4.812  18.099  0.00  0.00    +0.000 A 
ATOM      5  O   UNL     1       1.059   4.422  17.091  0.00  0.00    +0.000 OA
ATOM      6  C   UNL     1       1.225   4.404  19.454  0.00  0.00    +0.000 A 
ATOM      7  C   UNL     1       1.065   3.029  19.609  0.00  0.00    +0.000 A 
ATOM      8  C   UNL     1       1.623   2.433  20.720  0.00  0.00    +0.000 A 
ATOM      9  C   UNL     1       2.294   3.231  21.657  0.00  0.00    +0.000 A 
ATOM     10  C   UNL     1       2.296   4.654  21.555  0.00  0.00    +0.000 A 
ATOM     11  C   UNL     1       1.677   5.283  20.465  0.00  0.00    +0.000 A 
ENDROOT
BRANCH   1  12
ATOM     12  C   UNL     1       1.744   8.018  20.662  0.00  0.00    +0.000 C 
BRANCH  12  20
ATOM     13  C   UNL     1       0.404   9.200  23.490  0.00  0.00    +0.000 C 
ATOM     14  C   UNL     1      -0.241  10.093  22.468  0.00  0.00    +0.000 A 
ATOM     15  C   UNL     1      -1.049  11.153  22.944  0.00  0.00    +0.000 A 
ATOM     16  C   UNL     1      -1.687  12.033  22.083  0.00  0.00    +0.000 A 
ATOM     17  C   UNL     1      -1.545  11.890  20.710  0.00  0.00    +0.000 A 
ATOM     18  C   UNL     1      -0.750  10.835  20.226  0.00  0.00    +0.000 A 
ATOM     19  C   UNL     1      -0.088   9.919  21.060  0.00  0.00    +0.000 A 
ATOM     20  C   UNL     1       0.679   9.011  20.211  0.00  0.00    +0.000 A 
ATOM     21  C   UNL     1       0.449   9.452  18.908  0.00  0.00    +0.000 A 
ATOM     22  N   UNL     1      -0.440  10.500  18.928  0.00  0.00    +0.000 N 
ATOM     23  C   UNL     1      -0.967  11.214  17.782  0.00  0.00    +0.000 C 
ENDBRANCH  12  20
ENDBRANCH   1  12
BRANCH   3  24
ATOM     24  C   UNL     1       4.083   4.896  18.527  0.00  0.00    +0.000 C 
BRANCH  24  25
ATOM     25  C   UNL     1       4.408   3.690  17.664  0.00  0.00    +0.000 C 
BRANCH  25  26
ATOM     26  C   UNL     1       5.408   4.067  16.603  0.00  0.00    +0.000 C 
ATOM     27  O   UNL     1       5.134   4.413  15.458  0.00  0.00    +0.000 OA
BRANCH  26  28
ATOM     28  O   UNL     1       6.680   4.021  17.061  0.00  0.00    +0.000 OA
ATOM     29  H   UNL     1       6.818   3.344  17.752  0.00  0.00    +0.000 HD
ENDBRANCH  26  28
ENDBRANCH  25  26
ENDBRANCH  24  25
ENDBRANCH   3  24
TORSDOF 6
ENDMDL
MODEL 4
REMARK VINA RESULT:      -8.2      3.249      7.717
REMARK  Name = 
REMARK  8 active torsions:
REMARK  status: ('A' for Active; 'I' for Inactive)
REMARK    1  A    between atoms: C_1  and  C_2
REMARK    2  A    between atoms: C_8  and  C_9
REMARK    3  A    between atoms: C_9  and  C_10
REMARK    4  A    between atoms: N_12  and  C_13
REMARK    5  A    between atoms: C_13  and  C_14
REMARK    6  A    between atoms: C_14  and  C_15
REMARK    7  A    between atoms: C_15  and  O_17
REMARK    8  A    between atoms: N_27  and  C_28
REMARK                            x       y       z     vdW  Elec       q    Type
REMARK                         _______ _______ _______ _____ _____    ______ ____
ROOT
ATOM      1  C   UNL     1       1.231   8.799  19.924  0.00  0.00    +0.000 A 
ATOM      2  N   UNL     1       0.957   9.022  18.660  0.00  0.00    +0.000 NA
ATOM      3  N   UNL     1       0.434  10.278  18.373  0.00  0.00    +0.000 N 
ATOM      4  C   UNL     1       1.129  11.307  19.058  0.00  0.00    +0.000 A 
ATOM      5  O   UNL     1       1.671  12.263  18.521  0.00  0.00    +0.000 OA
ATOM      6  C   UNL     1       1.010  11.173  20.519  0.00  0.00    +0.000 A 
ATOM      7  C   UNL     1       0.513  12.307  21.155  0.00  0.00    +0.000 A 
ATOM      8  C   UNL     1      -0.475  12.138  22.103  0.00  0.00    +0.000 A 
ATOM      9  C   UNL     1      -0.910  10.841  22.408  0.00  0.00    +0.000 A 
ATOM     10  C   UNL     1      -0.266   9.692  21.861  0.00  0.00    +0.000 A 
ATOM     11  C   UNL     1       0.786   9.844  20.945  0.00  0.00    +0.000 A 
ENDROOT
BRANCH   1  12
ATOM     12  C   UNL     1       1.887   7.441  20.213  0.00  0.00    +0.000 C 
BRANCH  12  20
ATOM     13  C   UNL     1       0.938   4.243  20.461  0.00  0.00    +0.000 C 
ATOM     14  C   UNL     1       1.831   4.187  19.254  0.00  0.00    +0.000 A 
ATOM     15  C   UNL     1       1.914   2.957  18.558  0.00  0.00    +0.000 A 
ATOM     16  C   UNL     1       2.709   2.803  17.433  0.00  0.00    +0.000 A 
ATOM     17  C   UNL     1       3.457   3.871  16.957  0.00  0.00    +0.000 A 
ATOM     18  C   UNL     1       3.388   5.096  17.645  0.00  0.00    +0.000 A 
ATOM     19  C   UNL     1       2.599   5.296  18.790  0.00  0.00    +0.000 A 
ATOM     20  C   UNL     1       2.736   6.695  19.191  0.00  0.00    +0.000 A 
ATOM     21  C   UNL     1       3.588   7.262  18.242  0.00  0.00    +0.000 A 
ATOM     22  N   UNL     1       4.008   6.291  17.364  0.00  0.00    +0.000 N 
ATOM     23  C   UNL     1       4.928   6.461  16.258  0.00  0.00    +0.000 C 
ENDBRANCH  12  20
ENDBRANCH   1  12
BRANCH   3  24
ATOM     24  C   UNL     1      -1.066  10.279  18.480  0.00  0.00    +0.000 C 
BRANCH  24  25
ATOM     25  C   UNL     1      -1.753   9.863  17.192  0.00  0.00    +0.000 C 
BRANCH  25  26
ATOM     26  C   UNL     1      -2.346  11.068  16.510  0.00  0.00    +0.000 C 
ATOM     27  O   UNL     1      -3.241  11.041  15.670  0.00  0.00    +0.000 OA
BRANCH  26  28
ATOM     28  O   UNL     1      -1.805  12.224  16.954  0.00  0.00    +0.000 OA
ATOM     29  H   UNL     1      -2.441  12.967  16.975  0.00  0.00    +0.000 HD
ENDBRANCH  26  28
ENDBRANCH  25  26
ENDBRANCH  24  25
ENDBRANCH   3  24
TORSDOF 6
ENDMDL
MODEL 5
REMARK VINA RESULT:      -8.2      3.374      7.868
REMARK  Name = 
REMARK  8 active torsions:
REMARK  status: ('A' for Active; 'I' for Inactive)
REMARK    1  A    between atoms: C_1  and  C_2
REMARK    2  A    between atoms: C_8  and  C_9
REMARK    3  A    between atoms: C_9  and  C_10
REMARK    4  A    between atoms: N_12  and  C_13
REMARK    5  A    between atoms: C_13  and  C_14
REMARK    6  A    between atoms: C_14  and  C_15
REMARK    7  A    between atoms: C_15  and  O_17
REMARK    8  A    between atoms: N_27  and  C_28
REMARK                            x       y       z     vdW  Elec       q    Type
REMARK                         _______ _______ _______ _____ _____    ______ ____
ROOT
ATOM      1  C   UNL     1       1.700   8.644  19.477  0.00  0.00    +0.000 A 
ATOM      2  N   UNL     1       1.250   9.094  18.329  0.00  0.00    +0.000 NA
ATOM      3  N   UNL     1       0.363  10.161  18.411  0.00  0.00    +0.000 N 
ATOM      4  C   UNL     1       0.797  11.137  19.344  0.00  0.00    +0.000 A 
ATOM      5  O   UNL     1       0.987  12.317  19.085  0.00  0.00    +0.000 OA
ATOM      6  C   UNL     1       0.868  10.598  20.712  0.00  0.00    +0.000 A 
ATOM      7  C   UNL     1       0.132  11.321  21.646  0.00  0.00    +0.000 A 
ATOM      8  C   UNL     1      -0.666  10.621  22.526  0.00  0.00    +0.000 A 
ATOM      9  C   UNL     1      -0.679   9.220  22.466  0.00  0.00    +0.000 A 
ATOM     10  C   UNL     1       0.211   8.505  21.611  0.00  0.00    +0.000 A 
ATOM     11  C   UNL     1       1.078   9.201  20.755  0.00  0.00    +0.000 A 
ENDROOT
BRANCH   1  12
ATOM     12  C   UNL     1       2.743   7.522  19.365  0.00  0.00    +0.000 C 
BRANCH  12  20
ATOM     13  C   UNL     1       4.385   6.090  16.827  0.00  0.00    +0.000 C 
ATOM     14  C   UNL     1       3.853   4.883  17.546  0.00  0.00    +0.000 A 
ATOM     15  C   UNL     1       4.257   3.611  17.073  0.00  0.00    +0.000 A 
ATOM     16  C   UNL     1       3.822   2.436  17.668  0.00  0.00    +0.000 A 
ATOM     17  C   UNL     1       2.965   2.483  18.758  0.00  0.00    +0.000 A 
ATOM     18  C   UNL     1       2.552   3.742  19.231  0.00  0.00    +0.000 A 
ATOM     19  C   UNL     1       2.964   4.956  18.659  0.00  0.00    +0.000 A 
ATOM     20  C   UNL     1       2.384   6.043  19.444  0.00  0.00    +0.000 A 
ATOM     21  C   UNL     1       1.670   5.412  20.464  0.00  0.00    +0.000 A 
ATOM     22  N   UNL     1       1.735   4.049  20.294  0.00  0.00    +0.000 N 
ATOM     23  C   UNL     1       1.097   3.041  21.116  0.00  0.00    +0.000 C 
ENDBRANCH  12  20
ENDBRANCH   1  12
BRANCH   3  24
ATOM     24  C   UNL     1      -1.056   9.679  18.539  0.00  0.00    +0.000 C 
BRANCH  24  25
ATOM     25  C   UNL     1      -1.916  10.042  17.342  0.00  0.00    +0.000 C 
BRANCH  25  26
ATOM     26  C   UNL     1      -2.474  11.431  17.506  0.00  0.00    +0.000 C 
ATOM     27  O   UNL     1      -3.593  11.703  17.930  0.00  0.00    +0.000 OA
BRANCH  26  28
ATOM     28  O   UNL     1      -1.578  12.384  17.164  0.00  0.00    +0.000 OA
ATOM     29  H   UNL     1      -0.656  12.147  17.388  0.00  0.00    +0.000 HD
ENDBRANCH  26  28
ENDBRANCH  25  26
ENDBRANCH  24  25
ENDBRANCH   3  24
TORSDOF 6
ENDMDL
MODEL 6
REMARK VINA RESULT:      -8.1      1.065      1.209
REMARK  Name = 
REMARK  8 active torsions:
REMARK  status: ('A' for Active; 'I' for Inactive)
REMARK    1  A    between atoms: C_1  and  C_2
REMARK    2  A    between atoms: C_8  and  C_9
REMARK    3  A    between atoms: C_9  and  C_10
REMARK    4  A    between atoms: N_12  and  C_13
REMARK    5  A    between atoms: C_13  and  C_14
REMARK    6  A    between atoms: C_14  and  C_15
REMARK    7  A    between atoms: C_15  and  O_17
REMARK    8  A    between atoms: N_27  and  C_28
REMARK                            x       y       z     vdW  Elec       q    Type
REMARK                         _______ _______ _______ _____ _____    ______ ____
ROOT
ATOM      1  C   UNL     1       2.651   6.555  18.920  0.00  0.00    +0.000 A 
ATOM      2  N   UNL     1       3.499   6.221  17.975  0.00  0.00    +0.000 NA
ATOM      3  N   UNL     1       3.581   4.862  17.696  0.00  0.00    +0.000 N 
ATOM      4  C   UNL     1       2.298   4.259  17.633  0.00  0.00    +0.000 A 
ATOM      5  O   UNL     1       1.861   3.643  16.671  0.00  0.00    +0.000 OA
ATOM      6  C   UNL     1       1.589   4.339  18.920  0.00  0.00    +0.000 A 
ATOM      7  C   UNL     1       1.163   3.108  19.411  0.00  0.00    +0.000 A 
ATOM      8  C   UNL     1       1.395   2.825  20.740  0.00  0.00    +0.000 A 
ATOM      9  C   UNL     1       2.014   3.792  21.544  0.00  0.00    +0.000 A 
ATOM     10  C   UNL     1       2.287   5.103  21.053  0.00  0.00    +0.000 A 
ATOM     11  C   UNL     1       1.997   5.430  19.720  0.00  0.00    +0.000 A 
ENDROOT
BRANCH   1  12
ATOM     12  C   UNL     1       2.510   8.066  19.157  0.00  0.00    +0.000 C 
BRANCH  12  20
ATOM     13  C   UNL     1       1.725   8.990  22.274  0.00  0.00    +0.000 C 
ATOM     14  C   UNL     1       0.671   9.712  21.484  0.00  0.00    +0.000 A 
ATOM     15  C   UNL     1      -0.189  10.588  22.189  0.00  0.00    +0.000 A 
ATOM     16  C   UNL     1      -1.193  11.300  21.552  0.00  0.00    +0.000 A 
ATOM     17  C   UNL     1      -1.381  11.166  20.183  0.00  0.00    +0.000 A 
ATOM     18  C   UNL     1      -0.537  10.293  19.474  0.00  0.00    +0.000 A 
ATOM     19  C   UNL     1       0.490   9.550  20.078  0.00  0.00    +0.000 A 
ATOM     20  C   UNL     1       1.185   8.807  19.029  0.00  0.00    +0.000 A 
ATOM     21  C   UNL     1       0.543   9.168  17.844  0.00  0.00    +0.000 A 
ATOM     22  N   UNL     1      -0.508  10.007  18.128  0.00  0.00    +0.000 N 
ATOM     23  C   UNL     1      -1.446  10.576  17.181  0.00  0.00    +0.000 C 
ENDBRANCH  12  20
ENDBRANCH   1  12
BRANCH   3  24
ATOM     24  C   UNL     1       4.608   4.190  18.564  0.00  0.00    +0.000 C 
BRANCH  24  25
ATOM     25  C   UNL     1       5.819   5.065  18.836  0.00  0.00    +0.000 C 
BRANCH  25  26
ATOM     26  C   UNL     1       6.796   4.966  17.694  0.00  0.00    +0.000 C 
ATOM     27  O   UNL     1       6.802   5.684  16.699  0.00  0.00    +0.000 OA
BRANCH  26  28
ATOM     28  O   UNL     1       7.721   4.001  17.896  0.00  0.00    +0.000 OA
ATOM     29  H   UNL     1       8.084   3.632  17.067  0.00  0.00    +0.000 HD
ENDBRANCH  26  28
ENDBRANCH  25  26
ENDBRANCH  24  25
ENDBRANCH   3  24
TORSDOF 6
ENDMDL
MODEL 7
REMARK VINA RESULT:      -7.9      1.737      2.634
REMARK  Name = 
REMARK  8 active torsions:
REMARK  status: ('A' for Active; 'I' for Inactive)
REMARK    1  A    between atoms: C_1  and  C_2
REMARK    2  A    between atoms: C_8  and  C_9
REMARK    3  A    between atoms: C_9  and  C_10
REMARK    4  A    between atoms: N_12  and  C_13
REMARK    5  A    between atoms: C_13  and  C_14
REMARK    6  A    between atoms: C_14  and  C_15
REMARK    7  A    between atoms: C_15  and  O_17
REMARK    8  A    between atoms: N_27  and  C_28
REMARK                            x       y       z     vdW  Elec       q    Type
REMARK                         _______ _______ _______ _____ _____    ______ ____
ROOT
ATOM      1  C   UNL     1       2.707   6.885  18.460  0.00  0.00    +0.000 A 
ATOM      2  N   UNL     1       3.934   6.877  17.996  0.00  0.00    +0.000 NA
ATOM      3  N   UNL     1       4.557   5.634  17.972  0.00  0.00    +0.000 N 
ATOM      4  C   UNL     1       3.693   4.621  17.485  0.00  0.00    +0.000 A 
ATOM      5  O   UNL     1       3.931   3.898  16.528  0.00  0.00    +0.000 OA
ATOM      6  C   UNL     1       2.517   4.438  18.351  0.00  0.00    +0.000 A 
ATOM      7  C   UNL     1       2.340   3.132  18.800  0.00  0.00    +0.000 A 
ATOM      8  C   UNL     1       2.058   2.938  20.136  0.00  0.00    +0.000 A 
ATOM      9  C   UNL     1       1.929   4.055  20.973  0.00  0.00    +0.000 A 
ATOM     10  C   UNL     1       1.951   5.382  20.451  0.00  0.00    +0.000 A 
ATOM     11  C   UNL     1       2.171   5.597  19.082  0.00  0.00    +0.000 A 
ENDROOT
BRANCH   1  12
ATOM     12  C   UNL     1       2.004   8.249  18.401  0.00  0.00    +0.000 C 
BRANCH  12  20
ATOM     13  C   UNL     1       2.358  11.507  17.730  0.00  0.00    +0.000 C 
ATOM     14  C   UNL     1       1.579  11.558  19.014  0.00  0.00    +0.000 A 
ATOM     15  C   UNL     1       1.149  12.829  19.467  0.00  0.00    +0.000 A 
ATOM     16  C   UNL     1       0.425  12.983  20.639  0.00  0.00    +0.000 A 
ATOM     17  C   UNL     1       0.101  11.875  21.408  0.00  0.00    +0.000 A 
ATOM     18  C   UNL     1       0.530  10.608  20.971  0.00  0.00    +0.000 A 
ATOM     19  C   UNL     1       1.268  10.405  19.794  0.00  0.00    +0.000 A 
ATOM     20  C   UNL     1       1.481   8.968  19.639  0.00  0.00    +0.000 A 
ATOM     21  C   UNL     1       0.833   8.386  20.729  0.00  0.00    +0.000 A 
ATOM     22  N   UNL     1       0.320   9.372  21.538  0.00  0.00    +0.000 N 
ATOM     23  C   UNL     1      -0.389   9.188  22.788  0.00  0.00    +0.000 C 
ENDBRANCH  12  20
ENDBRANCH   1  12
BRANCH   3  24
ATOM     24  C   UNL     1       5.270   5.358  19.267  0.00  0.00    +0.000 C 
BRANCH  24  25
ATOM     25  C   UNL     1       6.753   5.677  19.208  0.00  0.00    +0.000 C 
BRANCH  25  26
ATOM     26  C   UNL     1       7.314   5.282  17.867  0.00  0.00    +0.000 C 
ATOM     27  O   UNL     1       7.520   6.047  16.929  0.00  0.00    +0.000 OA
BRANCH  26  28
ATOM     28  O   UNL     1       7.613   3.965  17.806  0.00  0.00    +0.000 OA
ATOM     29  H   UNL     1       7.171   3.502  17.066  0.00  0.00    +0.000 HD
ENDBRANCH  26  28
ENDBRANCH  25  26
ENDBRANCH  24  25
ENDBRANCH   3  24
TORSDOF 6
ENDMDL
MODEL 8
REMARK VINA RESULT:      -7.8      3.585      8.014
REMARK  Name = 
REMARK  8 active torsions:
REMARK  status: ('A' for Active; 'I' for Inactive)
REMARK    1  A    between atoms: C_1  and  C_2
REMARK    2  A    between atoms: C_8  and  C_9
REMARK    3  A    between atoms: C_9  and  C_10
REMARK    4  A    between atoms: N_12  and  C_13
REMARK    5  A    between atoms: C_13  and  C_14
REMARK    6  A    between atoms: C_14  and  C_15
REMARK    7  A    between atoms: C_15  and  O_17
REMARK    8  A    between atoms: N_27  and  C_28
REMARK                            x       y       z     vdW  Elec       q    Type
REMARK                         _______ _______ _______ _____ _____    ______ ____
ROOT
ATOM      1  C   UNL     1       1.292   9.285  18.922  0.00  0.00    +0.000 A 
ATOM      2  N   UNL     1       0.551   9.778  17.958  0.00  0.00    +0.000 NA
ATOM      3  N   UNL     1      -0.420  10.691  18.355  0.00  0.00    +0.000 N 
ATOM      4  C   UNL     1       0.086  11.621  19.299  0.00  0.00    +0.000 A 
ATOM      5  O   UNL     1       0.070  12.836  19.162  0.00  0.00    +0.000 OA
ATOM      6  C   UNL     1       0.518  10.963  20.542  0.00  0.00    +0.000 A 
ATOM      7  C   UNL     1      -0.079  11.473  21.692  0.00  0.00    +0.000 A 
ATOM      8  C   UNL     1      -0.576  10.579  22.616  0.00  0.00    +0.000 A 
ATOM      9  C   UNL     1      -0.432   9.204  22.379  0.00  0.00    +0.000 A 
ATOM     10  C   UNL     1       0.330   8.716  21.277  0.00  0.00    +0.000 A 
ATOM     11  C   UNL     1       0.899   9.614  20.362  0.00  0.00    +0.000 A 
ENDROOT
BRANCH   1  12
ATOM     12  C   UNL     1       2.413   8.344  18.458  0.00  0.00    +0.000 C 
BRANCH  12  20
ATOM     13  C   UNL     1       4.697   6.958  16.446  0.00  0.00    +0.000 C 
ATOM     14  C   UNL     1       4.501   5.865  17.458  0.00  0.00    +0.000 A 
ATOM     15  C   UNL     1       5.338   4.728  17.362  0.00  0.00    +0.000 A 
ATOM     16  C   UNL     1       5.237   3.666  18.246  0.00  0.00    +0.000 A 
ATOM     17  C   UNL     1       4.294   3.694  19.264  0.00  0.00    +0.000 A 
ATOM     18  C   UNL     1       3.451   4.817  19.364  0.00  0.00    +0.000 A 
ATOM     19  C   UNL     1       3.517   5.913  18.489  0.00  0.00    +0.000 A 
ATOM     20  C   UNL     1       2.537   6.902  18.933  0.00  0.00    +0.000 A 
ATOM     21  C   UNL     1       1.952   6.346  20.072  0.00  0.00    +0.000 A 
ATOM     22  N   UNL     1       2.466   5.089  20.284  0.00  0.00    +0.000 N 
ATOM     23  C   UNL     1       2.094   4.166  21.338  0.00  0.00    +0.000 C 
ENDBRANCH  12  20
ENDBRANCH   1  12
BRANCH   3  24
ATOM     24  C   UNL     1      -1.708   9.997  18.703  0.00  0.00    +0.000 C 
BRANCH  24  25
ATOM     25  C   UNL     1      -2.623   9.807  17.507  0.00  0.00    +0.000 C 
BRANCH  25  26
ATOM     26  C   UNL     1      -3.787  10.759  17.590  0.00  0.00    +0.000 C 
ATOM     27  O   UNL     1      -4.860  10.525  18.139  0.00  0.00    +0.000 OA
BRANCH  26  28
ATOM     28  O   UNL     1      -3.515  11.951  17.013  0.00  0.00    +0.000 OA
ATOM     29  H   UNL     1      -2.949  12.527  17.564  0.00  0.00    +0.000 HD
ENDBRANCH  26  28
ENDBRANCH  25  26
ENDBRANCH  24  25
ENDBRANCH   3  24
TORSDOF 6
ENDMDL
MODEL 9
REMARK VINA RESULT:      -7.8      3.375      6.863
REMARK  Name = 
REMARK  8 active torsions:
REMARK  status: ('A' for Active; 'I' for Inactive)
REMARK    1  A    between atoms: C_1  and  C_2
REMARK    2  A    between atoms: C_8  and  C_9
REMARK    3  A    between atoms: C_9  and  C_10
REMARK    4  A    between atoms: N_12  and  C_13
REMARK    5  A    between atoms: C_13  and  C_14
REMARK    6  A    between atoms: C_14  and  C_15
REMARK    7  A    between atoms: C_15  and  O_17
REMARK    8  A    between atoms: N_27  and  C_28
REMARK                            x       y       z     vdW  Elec       q    Type
REMARK                         _______ _______ _______ _____ _____    ______ ____
ROOT
ATOM      1  C   UNL     1       5.080   4.850  16.898  0.00  0.00    +0.000 A 
ATOM      2  N   UNL     1       5.762   3.986  16.182  0.00  0.00    +0.000 NA
ATOM      3  N   UNL     1       7.134   4.202  16.130  0.00  0.00    +0.000 N 
ATOM      4  C   UNL     1       7.666   4.522  17.405  0.00  0.00    +0.000 A 
ATOM      5  O   UNL     1       8.563   3.907  17.963  0.00  0.00    +0.000 OA
ATOM      6  C   UNL     1       7.106   5.775  17.936  0.00  0.00    +0.000 A 
ATOM      7  C   UNL     1       8.064   6.723  18.285  0.00  0.00    +0.000 A 
ATOM      8  C   UNL     1       7.869   8.025  17.875  0.00  0.00    +0.000 A 
ATOM      9  C   UNL     1       6.706   8.345  17.159  0.00  0.00    +0.000 A 
ATOM     10  C   UNL     1       5.667   7.389  16.963  0.00  0.00    +0.000 A 
ATOM     11  C   UNL     1       5.821   6.075  17.431  0.00  0.00    +0.000 A 
ENDROOT
BRANCH   1  12
ATOM     12  C   UNL     1       3.579   4.550  17.015  0.00  0.00    +0.000 C 
BRANCH  12  20
ATOM     13  C   UNL     1       3.127   1.545  18.413  0.00  0.00    +0.000 C 
ATOM     14  C   UNL     1       2.594   2.448  19.489  0.00  0.00    +0.000 A 
ATOM     15  C   UNL     1       2.209   1.849  20.713  0.00  0.00    +0.000 A 
ATOM     16  C   UNL     1       1.706   2.595  21.767  0.00  0.00    +0.000 A 
ATOM     17  C   UNL     1       1.566   3.970  21.643  0.00  0.00    +0.000 A 
ATOM     18  C   UNL     1       1.939   4.574  20.429  0.00  0.00    +0.000 A 
ATOM     19  C   UNL     1       2.449   3.858  19.334  0.00  0.00    +0.000 A 
ATOM     20  C   UNL     1       2.774   4.818  18.281  0.00  0.00    +0.000 A 
ATOM     21  C   UNL     1       2.459   6.066  18.819  0.00  0.00    +0.000 A 
ATOM     22  N   UNL     1       1.916   5.902  20.071  0.00  0.00    +0.000 N 
ATOM     23  C   UNL     1       1.422   6.947  20.947  0.00  0.00    +0.000 C 
ENDBRANCH  12  20
ENDBRANCH   1  12
BRANCH   3  24
ATOM     24  C   UNL     1       7.498   5.113  14.991  0.00  0.00    +0.000 C 
BRANCH  24  25
ATOM     25  C   UNL     1       6.444   5.148  13.898  0.00  0.00    +0.000 C 
BRANCH  25  26
ATOM     26  C   UNL     1       6.765   4.128  12.837  0.00  0.00    +0.000 C 
ATOM     27  O   UNL     1       7.431   4.338  11.827  0.00  0.00    +0.000 OA
BRANCH  26  28
ATOM     28  O   UNL     1       6.264   2.908  13.133  0.00  0.00    +0.000 OA
ATOM     29  H   UNL     1       6.953   2.244  13.332  0.00  0.00    +0.000 HD
ENDBRANCH  26  28
ENDBRANCH  25  26
ENDBRANCH  24  25
ENDBRANCH   3  24
TORSDOF 6
ENDMDL
