MODEL 1
REMARK VINA RESULT:      -7.5      0.000      0.000
REMARK  Name = 
REMARK  6 active torsions:
REMARK  status: ('A' for Active; 'I' for Inactive)
REMARK    1  A    between atoms: C_1  and  C_2
REMARK    2  A    between atoms: C_5  and  N_6
REMARK    3  A    between atoms: C_8  and  C_9
REMARK    4  A    between atoms: C_10  and  C_11
REMARK    5  A    between atoms: C_12  and  C_13
REMARK    6  A    between atoms: C_15  and  N_16
REMARK                            x       y       z     vdW  Elec       q    Type
REMARK                         _______ _______ _______ _____ _____    ______ ____
ROOT
ATOM      1  C   UNL     1      -0.128  11.567  19.372  0.00  0.00    +0.000 C 
ATOM      2  C   UNL     1       0.204  12.678  20.355  0.00  0.00    +0.000 C 
ATOM      3  C   UNL     1      -0.767  13.402  20.958  0.00  0.00    +0.000 C 
ATOM      4  O   UNL     1      -2.113  13.190  20.677  0.00  0.00    +0.000 OA
ATOM      5  C   UNL     1      -2.497  12.279  19.707  0.00  0.00    +0.000 C 
ATOM      6  C   UNL     1      -1.604  11.514  19.059  0.00  0.00    +0.000 C 
ATOM      7  C   UNL     1      -2.083  10.556  18.022  0.00  0.00    +0.000 C 
ATOM      8  O   UNL     1      -1.281   9.906  17.356  0.00  0.00    +0.000 OA
ATOM      9  C   UNL     1      -3.573  10.361  17.852  0.00  0.00    +0.000 C 
ATOM     10  C   UNL     1      -4.313  11.666  18.089  0.00  0.00    +0.000 C 
ATOM     11  C   UNL     1      -3.977  12.242  19.460  0.00  0.00    +0.000 C 
ENDROOT
BRANCH   1  16
ATOM     12  N   UNL     1       1.346   8.244  20.132  0.00  0.00    +0.000 N 
ATOM     13  N   UNL     1       0.589   8.402  21.257  0.00  0.00    +0.000 NA
ATOM     14  C   UNL     1       0.060   9.630  21.152  0.00  0.00    +0.000 A 
ATOM     15  C   UNL     1      -0.757  10.205  22.256  0.00  0.00    +0.000 C 
ATOM     16  C   UNL     1       0.347  10.234  19.897  0.00  0.00    +0.000 A 
ATOM     17  C   UNL     1       1.144   9.304  19.270  0.00  0.00    +0.000 A 
ATOM     18 CL   UNL     1       1.679   9.305  17.642  0.00  0.00    +0.000 Cl
BRANCH  12  23
ATOM     19  C   UNL     1       4.119   3.411  18.871  0.00  0.00    +0.000 C 
ATOM     20  C   UNL     1       3.481   4.694  19.313  0.00  0.00    +0.000 A 
ATOM     21  C   UNL     1       2.567   4.740  20.376  0.00  0.00    +0.000 A 
ATOM     22  C   UNL     1       1.914   5.935  20.706  0.00  0.00    +0.000 A 
ATOM     23  C   UNL     1       2.152   7.085  19.946  0.00  0.00    +0.000 A 
ATOM     24  C   UNL     1       3.148   7.062  18.962  0.00  0.00    +0.000 A 
ATOM     25  C   UNL     1       3.792   5.872  18.634  0.00  0.00    +0.000 A 
ENDBRANCH  12  23
ENDBRANCH   1  16
BRANCH   3  26
ATOM     26  N   UNL     1      -0.575  14.373  21.916  0.00  0.00    +0.000 N 
ATOM     27  H   UNL     1       0.247  14.239  22.503  0.00  0.00    +0.000 HD
ATOM     28  H   UNL     1      -1.417  14.521  22.470  0.00  0.00    +0.000 HD
ENDBRANCH   3  26
BRANCH   2  29
ATOM     29  C   UNL     1       1.578  12.910  20.663  0.00  0.00    +0.000 C 
ATOM     30  N   UNL     1       2.690  13.112  20.929  0.00  0.00    +0.000 NA
ENDBRANCH   2  29
TORSDOF 4
ENDMDL
MODEL 2
REMARK VINA RESULT:      -7.5      7.563     11.016
REMARK  Name = 
REMARK  6 active torsions:
REMARK  status: ('A' for Active; 'I' for Inactive)
REMARK    1  A    between atoms: C_1  and  C_2
REMARK    2  A    between atoms: C_5  and  N_6
REMARK    3  A    between atoms: C_8  and  C_9
REMARK    4  A    between atoms: C_10  and  C_11
REMARK    5  A    between atoms: C_12  and  C_13
REMARK    6  A    between atoms: C_15  and  N_16
REMARK                            x       y       z     vdW  Elec       q    Type
REMARK                         _______ _______ _______ _____ _____    ______ ____
ROOT
ATOM      1  C   UNL     1       9.545  15.135  19.547  0.00  0.00    +0.000 C 
ATOM      2  C   UNL     1      10.058  15.894  18.333  0.00  0.00    +0.000 C 
ATOM      3  C   UNL     1      10.457  15.249  17.213  0.00  0.00    +0.000 C 
ATOM      4  O   UNL     1      10.454  13.860  17.133  0.00  0.00    +0.000 OA
ATOM      5  C   UNL     1      10.114  13.090  18.234  0.00  0.00    +0.000 C 
ATOM      6  C   UNL     1       9.702  13.642  19.386  0.00  0.00    +0.000 C 
ATOM      7  C   UNL     1       9.355  12.757  20.534  0.00  0.00    +0.000 C 
ATOM      8  O   UNL     1       9.058  13.238  21.624  0.00  0.00    +0.000 OA
ATOM      9  C   UNL     1       9.321  11.262  20.309  0.00  0.00    +0.000 C 
ATOM     10  C   UNL     1      10.395  10.846  19.318  0.00  0.00    +0.000 C 
ATOM     11  C   UNL     1      10.255  11.613  18.008  0.00  0.00    +0.000 C 
ENDROOT
BRANCH   1  16
ATOM     12  N   UNL     1       5.872  15.660  19.723  0.00  0.00    +0.000 N 
ATOM     13  N   UNL     1       6.248  16.441  20.777  0.00  0.00    +0.000 NA
ATOM     14  C   UNL     1       7.574  16.268  20.884  0.00  0.00    +0.000 A 
ATOM     15  C   UNL     1       8.336  16.892  22.002  0.00  0.00    +0.000 C 
ATOM     16  C   UNL     1       8.103  15.486  19.821  0.00  0.00    +0.000 A 
ATOM     17  C   UNL     1       6.988  15.146  19.091  0.00  0.00    +0.000 A 
ATOM     18 CL   UNL     1       6.928  14.379  17.559  0.00  0.00    +0.000 Cl
BRANCH  12  23
ATOM     19  C   UNL     1       0.235  15.566  18.802  0.00  0.00    +0.000 C 
ATOM     20  C   UNL     1       1.724  15.476  18.959  0.00  0.00    +0.000 A 
ATOM     21  C   UNL     1       2.322  14.560  19.837  0.00  0.00    +0.000 A 
ATOM     22  C   UNL     1       3.709  14.562  20.035  0.00  0.00    +0.000 A 
ATOM     23  C   UNL     1       4.501  15.508  19.374  0.00  0.00    +0.000 A 
ATOM     24  C   UNL     1       3.914  16.342  18.415  0.00  0.00    +0.000 A 
ATOM     25  C   UNL     1       2.534  16.341  18.224  0.00  0.00    +0.000 A 
ENDBRANCH  12  23
ENDBRANCH   1  16
BRANCH   3  26
ATOM     26  N   UNL     1      10.864  15.844  16.039  0.00  0.00    +0.000 N 
ATOM     27  H   UNL     1      10.176  16.462  15.611  0.00  0.00    +0.000 HD
ATOM     28  H   UNL     1      11.220  15.156  15.377  0.00  0.00    +0.000 HD
ENDBRANCH   3  26
BRANCH   2  29
ATOM     29  C   UNL     1      10.066  17.319  18.391  0.00  0.00    +0.000 C 
ATOM     30  N   UNL     1      10.078  18.480  18.417  0.00  0.00    +0.000 NA
ENDBRANCH   2  29
TORSDOF 4
ENDMDL
MODEL 3
REMARK VINA RESULT:      -7.3      7.679     11.126
REMARK  Name = 
REMARK  6 active torsions:
REMARK  status: ('A' for Active; 'I' for Inactive)
REMARK    1  A    between atoms: C_1  and  C_2
REMARK    2  A    between atoms: C_5  and  N_6
REMARK    3  A    between atoms: C_8  and  C_9
REMARK    4  A    between atoms: C_10  and  C_11
REMARK    5  A    between atoms: C_12  and  C_13
REMARK    6  A    between atoms: C_15  and  N_16
REMARK                            x       y       z     vdW  Elec       q    Type
REMARK                         _______ _______ _______ _____ _____    ______ ____
ROOT
ATOM      1  C   UNL     1       9.776  15.125  19.644  0.00  0.00    +0.000 C 
ATOM      2  C   UNL     1      10.216  15.905  18.415  0.00  0.00    +0.000 C 
ATOM      3  C   UNL     1      10.491  15.285  17.245  0.00  0.00    +0.000 C 
ATOM      4  O   UNL     1      10.423  13.900  17.122  0.00  0.00    +0.000 OA
ATOM      5  C   UNL     1      10.145  13.106  18.223  0.00  0.00    +0.000 C 
ATOM      6  C   UNL     1       9.856  13.633  19.423  0.00  0.00    +0.000 C 
ATOM      7  C   UNL     1       9.571  12.723  20.569  0.00  0.00    +0.000 C 
ATOM      8  O   UNL     1       9.388  13.177  21.694  0.00  0.00    +0.000 OA
ATOM      9  C   UNL     1       9.456  11.239  20.300  0.00  0.00    +0.000 C 
ATOM     10  C   UNL     1      10.423  10.817  19.208  0.00  0.00    +0.000 C 
ATOM     11  C   UNL     1      10.205  11.633  17.940  0.00  0.00    +0.000 C 
ENDROOT
BRANCH   1  16
ATOM     12  N   UNL     1       6.156  15.775  20.159  0.00  0.00    +0.000 N 
ATOM     13  N   UNL     1       6.654  16.528  21.183  0.00  0.00    +0.000 NA
ATOM     14  C   UNL     1       7.977  16.308  21.167  0.00  0.00    +0.000 A 
ATOM     15  C   UNL     1       8.859  16.889  22.216  0.00  0.00    +0.000 C 
ATOM     16  C   UNL     1       8.378  15.522  20.052  0.00  0.00    +0.000 A 
ATOM     17  C   UNL     1       7.190  15.231  19.422  0.00  0.00    +0.000 A 
ATOM     18 CL   UNL     1       6.964  14.487  17.894  0.00  0.00    +0.000 Cl
BRANCH  12  23
ATOM     19  C   UNL     1       0.688  14.888  18.761  0.00  0.00    +0.000 C 
ATOM     20  C   UNL     1       2.078  15.228  19.211  0.00  0.00    +0.000 A 
ATOM     21  C   UNL     1       2.793  16.301  18.660  0.00  0.00    +0.000 A 
ATOM     22  C   UNL     1       4.124  16.538  19.031  0.00  0.00    +0.000 A 
ATOM     23  C   UNL     1       4.754  15.676  19.935  0.00  0.00    +0.000 A 
ATOM     24  C   UNL     1       4.001  14.677  20.567  0.00  0.00    +0.000 A 
ATOM     25  C   UNL     1       2.681  14.442  20.192  0.00  0.00    +0.000 A 
ENDBRANCH  12  23
ENDBRANCH   1  16
BRANCH   3  26
ATOM     26  N   UNL     1      10.822  15.903  16.059  0.00  0.00    +0.000 N 
ATOM     27  H   UNL     1      10.684  15.333  15.226  0.00  0.00    +0.000 HD
ATOM     28  H   UNL     1      11.760  16.301  16.096  0.00  0.00    +0.000 HD
ENDBRANCH   3  26
BRANCH   2  29
ATOM     29  C   UNL     1      10.288  17.326  18.516  0.00  0.00    +0.000 C 
ATOM     30  N   UNL     1      10.368  18.481  18.603  0.00  0.00    +0.000 NA
ENDBRANCH   2  29
TORSDOF 4
ENDMDL
MODEL 4
REMARK VINA RESULT:      -7.2      4.295      6.037
REMARK  Name = 
REMARK  6 active torsions:
REMARK  status: ('A' for Active; 'I' for Inactive)
REMARK    1  A    between atoms: C_1  and  C_2
REMARK    2  A    between atoms: C_5  and  N_6
REMARK    3  A    between atoms: C_8  and  C_9
REMARK    4  A    between atoms: C_10  and  C_11
REMARK    5  A    between atoms: C_12  and  C_13
REMARK    6  A    between atoms: C_15  and  N_16
REMARK                            x       y       z     vdW  Elec       q    Type
REMARK                         _______ _______ _______ _____ _____    ______ ____
ROOT
ATOM      1  C   UNL     1      -1.268  13.213  21.669  0.00  0.00    +0.000 C 
ATOM      2  C   UNL     1      -1.921  12.377  22.758  0.00  0.00    +0.000 C 
ATOM      3  C   UNL     1      -3.076  12.761  23.346  0.00  0.00    +0.000 C 
ATOM      4  O   UNL     1      -3.701  13.958  23.010  0.00  0.00    +0.000 OA
ATOM      5  C   UNL     1      -3.112  14.835  22.113  0.00  0.00    +0.000 C 
ATOM      6  C   UNL     1      -1.967  14.537  21.478  0.00  0.00    +0.000 C 
ATOM      7  C   UNL     1      -1.383  15.526  20.528  0.00  0.00    +0.000 C 
ATOM      8  O   UNL     1      -0.296  15.314  19.999  0.00  0.00    +0.000 OA
ATOM      9  C   UNL     1      -2.186  16.762  20.188  0.00  0.00    +0.000 C 
ATOM     10  C   UNL     1      -2.977  17.234  21.395  0.00  0.00    +0.000 C 
ATOM     11  C   UNL     1      -3.866  16.120  21.935  0.00  0.00    +0.000 C 
ENDROOT
BRANCH   1  16
ATOM     12  N   UNL     1      -1.768  11.429  18.450  0.00  0.00    +0.000 N 
ATOM     13  N   UNL     1      -0.431  11.207  18.608  0.00  0.00    +0.000 NA
ATOM     14  C   UNL     1      -0.093  11.888  19.713  0.00  0.00    +0.000 A 
ATOM     15  C   UNL     1       1.327  11.968  20.155  0.00  0.00    +0.000 C 
ATOM     16  C   UNL     1      -1.224  12.448  20.368  0.00  0.00    +0.000 A 
ATOM     17  C   UNL     1      -2.271  12.105  19.544  0.00  0.00    +0.000 A 
ATOM     18 CL   UNL     1      -3.949  12.288  19.844  0.00  0.00    +0.000 Cl
BRANCH  12  23
ATOM     19  C   UNL     1      -4.144   9.918  13.479  0.00  0.00    +0.000 C 
ATOM     20  C   UNL     1      -3.621  10.235  14.848  0.00  0.00    +0.000 A 
ATOM     21  C   UNL     1      -4.224  11.201  15.666  0.00  0.00    +0.000 A 
ATOM     22  C   UNL     1      -3.658  11.545  16.901  0.00  0.00    +0.000 A 
ATOM     23  C   UNL     1      -2.463  10.942  17.306  0.00  0.00    +0.000 A 
ATOM     24  C   UNL     1      -1.928   9.898  16.540  0.00  0.00    +0.000 A 
ATOM     25  C   UNL     1      -2.490   9.562  15.312  0.00  0.00    +0.000 A 
ENDBRANCH  12  23
ENDBRANCH   1  16
BRANCH   3  26
ATOM     26  N   UNL     1      -3.785  12.043  24.284  0.00  0.00    +0.000 N 
ATOM     27  H   UNL     1      -4.211  11.186  23.934  0.00  0.00    +0.000 HD
ATOM     28  H   UNL     1      -4.459  12.630  24.772  0.00  0.00    +0.000 HD
ENDBRANCH   3  26
BRANCH   2  29
ATOM     29  C   UNL     1      -1.301  11.143  23.116  0.00  0.00    +0.000 C 
ATOM     30  N   UNL     1      -0.804  10.140  23.427  0.00  0.00    +0.000 NA
ENDBRANCH   2  29
TORSDOF 4
ENDMDL
MODEL 5
REMARK VINA RESULT:      -7.1      7.660     11.150
REMARK  Name = 
REMARK  6 active torsions:
REMARK  status: ('A' for Active; 'I' for Inactive)
REMARK    1  A    between atoms: C_1  and  C_2
REMARK    2  A    between atoms: C_5  and  N_6
REMARK    3  A    between atoms: C_8  and  C_9
REMARK    4  A    between atoms: C_10  and  C_11
REMARK    5  A    between atoms: C_12  and  C_13
REMARK    6  A    between atoms: C_15  and  N_16
REMARK                            x       y       z     vdW  Elec       q    Type
REMARK                         _______ _______ _______ _____ _____    ______ ____
ROOT
ATOM      1  C   UNL     1       8.959  15.238  19.303  0.00  0.00    +0.000 C 
ATOM      2  C   UNL     1       9.664  16.116  18.281  0.00  0.00    +0.000 C 
ATOM      3  C   UNL     1      10.711  15.656  17.557  0.00  0.00    +0.000 C 
ATOM      4  O   UNL     1      11.215  14.372  17.741  0.00  0.00    +0.000 OA
ATOM      5  C   UNL     1      10.706  13.549  18.733  0.00  0.00    +0.000 C 
ATOM      6  C   UNL     1       9.667  13.919  19.498  0.00  0.00    +0.000 C 
ATOM      7  C   UNL     1       9.171  12.988  20.551  0.00  0.00    +0.000 C 
ATOM      8  O   UNL     1       8.278  13.336  21.319  0.00  0.00    +0.000 OA
ATOM      9  C   UNL     1       9.750  11.592  20.612  0.00  0.00    +0.000 C 
ATOM     10  C   UNL     1      11.221  11.607  20.234  0.00  0.00    +0.000 C 
ATOM     11  C   UNL     1      11.425  12.238  18.861  0.00  0.00    +0.000 C 
ENDROOT
BRANCH   1  16
ATOM     12  N   UNL     1       5.293  15.125  18.718  0.00  0.00    +0.000 N 
ATOM     13  N   UNL     1       5.669  14.100  17.899  0.00  0.00    +0.000 NA
ATOM     14  C   UNL     1       7.009  14.090  17.947  0.00  0.00    +0.000 A 
ATOM     15  C   UNL     1       7.795  13.159  17.090  0.00  0.00    +0.000 C 
ATOM     16  C   UNL     1       7.521  15.010  18.902  0.00  0.00    +0.000 A 
ATOM     17  C   UNL     1       6.391  15.625  19.390  0.00  0.00    +0.000 A 
ATOM     18 CL   UNL     1       6.270  16.700  20.720  0.00  0.00    +0.000 Cl
BRANCH  12  23
ATOM     19  C   UNL     1      -0.297  16.299  18.578  0.00  0.00    +0.000 C 
ATOM     20  C   UNL     1       1.180  16.081  18.726  0.00  0.00    +0.000 A 
ATOM     21  C   UNL     1       2.118  17.000  18.234  0.00  0.00    +0.000 A 
ATOM     22  C   UNL     1       3.491  16.725  18.301  0.00  0.00    +0.000 A 
ATOM     23  C   UNL     1       3.926  15.508  18.835  0.00  0.00    +0.000 A 
ATOM     24  C   UNL     1       2.994  14.647  19.428  0.00  0.00    +0.000 A 
ATOM     25  C   UNL     1       1.631  14.921  19.355  0.00  0.00    +0.000 A 
ENDBRANCH  12  23
ENDBRANCH   1  16
BRANCH   3  26
ATOM     26  N   UNL     1      11.367  16.342  16.559  0.00  0.00    +0.000 N 
ATOM     27  H   UNL     1      11.621  15.779  15.749  0.00  0.00    +0.000 HD
ATOM     28  H   UNL     1      12.164  16.860  16.926  0.00  0.00    +0.000 HD
ENDBRANCH   3  26
BRANCH   2  29
ATOM     29  C   UNL     1       9.162  17.434  18.072  0.00  0.00    +0.000 C 
ATOM     30  N   UNL     1       8.753  18.504  17.881  0.00  0.00    +0.000 NA
ENDBRANCH   2  29
TORSDOF 4
ENDMDL
MODEL 6
REMARK VINA RESULT:      -7.0      1.870      2.530
REMARK  Name = 
REMARK  6 active torsions:
REMARK  status: ('A' for Active; 'I' for Inactive)
REMARK    1  A    between atoms: C_1  and  C_2
REMARK    2  A    between atoms: C_5  and  N_6
REMARK    3  A    between atoms: C_8  and  C_9
REMARK    4  A    between atoms: C_10  and  C_11
REMARK    5  A    between atoms: C_12  and  C_13
REMARK    6  A    between atoms: C_15  and  N_16
REMARK                            x       y       z     vdW  Elec       q    Type
REMARK                         _______ _______ _______ _____ _____    ______ ____
ROOT
ATOM      1  C   UNL     1      -1.170  13.303  20.898  0.00  0.00    +0.000 C 
ATOM      2  C   UNL     1      -0.555  14.155  21.997  0.00  0.00    +0.000 C 
ATOM      3  C   UNL     1      -1.308  14.676  22.992  0.00  0.00    +0.000 C 
ATOM      4  O   UNL     1      -2.686  14.489  23.036  0.00  0.00    +0.000 OA
ATOM      5  C   UNL     1      -3.342  13.826  22.012  0.00  0.00    +0.000 C 
ATOM      6  C   UNL     1      -2.678  13.272  20.985  0.00  0.00    +0.000 C 
ATOM      7  C   UNL     1      -3.443  12.576  19.912  0.00  0.00    +0.000 C 
ATOM      8  O   UNL     1      -2.868  12.136  18.921  0.00  0.00    +0.000 OA
ATOM      9  C   UNL     1      -4.930  12.374  20.102  0.00  0.00    +0.000 C 
ATOM     10  C   UNL     1      -5.541  13.555  20.836  0.00  0.00    +0.000 C 
ATOM     11  C   UNL     1      -4.835  13.795  22.165  0.00  0.00    +0.000 C 
ENDROOT
BRANCH   1  16
ATOM     12  N   UNL     1       0.464   9.996  20.462  0.00  0.00    +0.000 N 
ATOM     13  N   UNL     1      -0.204   9.749  21.626  0.00  0.00    +0.000 NA
ATOM     14  C   UNL     1      -0.779  10.917  21.952  0.00  0.00    +0.000 A 
ATOM     15  C   UNL     1      -1.523  11.069  23.234  0.00  0.00    +0.000 C 
ATOM     16  C   UNL     1      -0.612  11.901  20.940  0.00  0.00    +0.000 A 
ATOM     17  C   UNL     1       0.160  11.261  19.998  0.00  0.00    +0.000 A 
ATOM     18 CL   UNL     1       0.563  11.804  18.423  0.00  0.00    +0.000 Cl
BRANCH  12  23
ATOM     19  C   UNL     1       3.169   5.712  17.823  0.00  0.00    +0.000 C 
ATOM     20  C   UNL     1       2.586   6.873  18.571  0.00  0.00    +0.000 A 
ATOM     21  C   UNL     1       2.295   6.801  19.941  0.00  0.00    +0.000 A 
ATOM     22  C   UNL     1       1.662   7.868  20.595  0.00  0.00    +0.000 A 
ATOM     23  C   UNL     1       1.290   9.002  19.865  0.00  0.00    +0.000 A 
ATOM     24  C   UNL     1       1.684   9.116  18.526  0.00  0.00    +0.000 A 
ATOM     25  C   UNL     1       2.308   8.052  17.879  0.00  0.00    +0.000 A 
ENDBRANCH  12  23
ENDBRANCH   1  16
BRANCH   3  26
ATOM     26  N   UNL     1      -0.839  15.394  24.070  0.00  0.00    +0.000 N 
ATOM     27  H   UNL     1      -1.110  16.377  24.080  0.00  0.00    +0.000 HD
ATOM     28  H   UNL     1       0.166  15.277  24.186  0.00  0.00    +0.000 HD
ENDBRANCH   3  26
BRANCH   2  29
ATOM     29  C   UNL     1       0.857  14.356  21.975  0.00  0.00    +0.000 C 
ATOM     30  N   UNL     1       2.005  14.525  21.936  0.00  0.00    +0.000 NA
ENDBRANCH   2  29
TORSDOF 4
ENDMDL
MODEL 7
REMARK VINA RESULT:      -7.0      3.076      7.344
REMARK  Name = 
REMARK  6 active torsions:
REMARK  status: ('A' for Active; 'I' for Inactive)
REMARK    1  A    between atoms: C_1  and  C_2
REMARK    2  A    between atoms: C_5  and  N_6
REMARK    3  A    between atoms: C_8  and  C_9
REMARK    4  A    between atoms: C_10  and  C_11
REMARK    5  A    between atoms: C_12  and  C_13
REMARK    6  A    between atoms: C_15  and  N_16
REMARK                            x       y       z     vdW  Elec       q    Type
REMARK                         _______ _______ _______ _____ _____    ______ ____
ROOT
ATOM      1  C   UNL     1       0.544  12.451  21.115  0.00  0.00    +0.000 C 
ATOM      2  C   UNL     1       1.279  13.092  19.949  0.00  0.00    +0.000 C 
ATOM      3  C   UNL     1       1.759  12.352  18.923  0.00  0.00    +0.000 C 
ATOM      4  O   UNL     1       1.639  10.966  18.907  0.00  0.00    +0.000 OA
ATOM      5  C   UNL     1       1.088  10.292  19.986  0.00  0.00    +0.000 C 
ATOM      6  C   UNL     1       0.582  10.943  21.045  0.00  0.00    +0.000 C 
ATOM      7  C   UNL     1       0.008  10.158  22.175  0.00  0.00    +0.000 C 
ATOM      8  O   UNL     1      -0.383  10.725  23.192  0.00  0.00    +0.000 OA
ATOM      9  C   UNL     1      -0.134   8.661  22.016  0.00  0.00    +0.000 C 
ATOM     10  C   UNL     1       1.017   8.099  21.199  0.00  0.00    +0.000 C 
ATOM     11  C   UNL     1       1.121   8.798  19.849  0.00  0.00    +0.000 C 
ENDROOT
BRANCH   1  16
ATOM     12  N   UNL     1      -3.034  13.366  20.723  0.00  0.00    +0.000 N 
ATOM     13  N   UNL     1      -2.775  14.022  21.891  0.00  0.00    +0.000 NA
ATOM     14  C   UNL     1      -1.512  13.695  22.202  0.00  0.00    +0.000 A 
ATOM     15  C   UNL     1      -0.901  14.148  23.482  0.00  0.00    +0.000 C 
ATOM     16  C   UNL     1      -0.883  12.939  21.175  0.00  0.00    +0.000 A 
ATOM     17  C   UNL     1      -1.881  12.778  20.241  0.00  0.00    +0.000 A 
ATOM     18 CL   UNL     1      -1.745  12.135  18.658  0.00  0.00    +0.000 Cl
BRANCH  12  23
ATOM     19  C   UNL     1      -7.916  13.686  17.773  0.00  0.00    +0.000 C 
ATOM     20  C   UNL     1      -6.715  13.578  18.664  0.00  0.00    +0.000 A 
ATOM     21  C   UNL     1      -6.303  14.637  19.485  0.00  0.00    +0.000 A 
ATOM     22  C   UNL     1      -5.122  14.543  20.235  0.00  0.00    +0.000 A 
ATOM     23  C   UNL     1      -4.332  13.392  20.138  0.00  0.00    +0.000 A 
ATOM     24  C   UNL     1      -4.806  12.295  19.408  0.00  0.00    +0.000 A 
ATOM     25  C   UNL     1      -5.976  12.394  18.660  0.00  0.00    +0.000 A 
ENDBRANCH  12  23
ENDBRANCH   1  16
BRANCH   3  26
ATOM     26  N   UNL     1       2.370  12.841  17.789  0.00  0.00    +0.000 N 
ATOM     27  H   UNL     1       1.811  12.772  16.940  0.00  0.00    +0.000 HD
ATOM     28  H   UNL     1       3.299  12.443  17.666  0.00  0.00    +0.000 HD
ENDBRANCH   3  26
BRANCH   2  29
ATOM     29  C   UNL     1       1.410  14.512  19.941  0.00  0.00    +0.000 C 
ATOM     30  N   UNL     1       1.499  15.670  19.924  0.00  0.00    +0.000 NA
ENDBRANCH   2  29
TORSDOF 4
ENDMDL
MODEL 8
REMARK VINA RESULT:      -7.0      8.122     11.336
REMARK  Name = 
REMARK  6 active torsions:
REMARK  status: ('A' for Active; 'I' for Inactive)
REMARK    1  A    between atoms: C_1  and  C_2
REMARK    2  A    between atoms: C_5  and  N_6
REMARK    3  A    between atoms: C_8  and  C_9
REMARK    4  A    between atoms: C_10  and  C_11
REMARK    5  A    between atoms: C_12  and  C_13
REMARK    6  A    between atoms: C_15  and  N_16
REMARK                            x       y       z     vdW  Elec       q    Type
REMARK                         _______ _______ _______ _____ _____    ______ ____
ROOT
ATOM      1  C   UNL     1       9.950  13.963  21.194  0.00  0.00    +0.000 C 
ATOM      2  C   UNL     1      10.710  15.268  21.372  0.00  0.00    +0.000 C 
ATOM      3  C   UNL     1      11.584  15.709  20.439  0.00  0.00    +0.000 C 
ATOM      4  O   UNL     1      11.858  14.971  19.292  0.00  0.00    +0.000 OA
ATOM      5  C   UNL     1      11.300  13.716  19.109  0.00  0.00    +0.000 C 
ATOM      6  C   UNL     1      10.419  13.198  19.979  0.00  0.00    +0.000 C 
ATOM      7  C   UNL     1       9.858  11.841  19.726  0.00  0.00    +0.000 C 
ATOM      8  O   UNL     1       9.117  11.309  20.549  0.00  0.00    +0.000 OA
ATOM      9  C   UNL     1      10.174  11.162  18.412  0.00  0.00    +0.000 C 
ATOM     10  C   UNL     1      11.582  11.506  17.958  0.00  0.00    +0.000 C 
ATOM     11  C   UNL     1      11.773  13.016  17.869  0.00  0.00    +0.000 C 
ENDROOT
BRANCH   1  16
ATOM     12  N   UNL     1       6.418  14.828  20.438  0.00  0.00    +0.000 N 
ATOM     13  N   UNL     1       6.252  14.352  21.707  0.00  0.00    +0.000 NA
ATOM     14  C   UNL     1       7.465  13.912  22.075  0.00  0.00    +0.000 A 
ATOM     15  C   UNL     1       7.660  13.222  23.380  0.00  0.00    +0.000 C 
ATOM     16  C   UNL     1       8.465  14.220  21.113  0.00  0.00    +0.000 A 
ATOM     17  C   UNL     1       7.758  14.829  20.102  0.00  0.00    +0.000 A 
ATOM     18 CL   UNL     1       8.379  15.635  18.722  0.00  0.00    +0.000 Cl
BRANCH  12  23
ATOM     19  C   UNL     1       2.417  17.135  17.077  0.00  0.00    +0.000 C 
ATOM     20  C   UNL     1       3.362  16.456  18.022  0.00  0.00    +0.000 A 
ATOM     21  C   UNL     1       3.510  16.875  19.352  0.00  0.00    +0.000 A 
ATOM     22  C   UNL     1       4.469  16.283  20.185  0.00  0.00    +0.000 A 
ATOM     23  C   UNL     1       5.308  15.287  19.675  0.00  0.00    +0.000 A 
ATOM     24  C   UNL     1       5.079  14.793  18.384  0.00  0.00    +0.000 A 
ATOM     25  C   UNL     1       4.129  15.387  17.558  0.00  0.00    +0.000 A 
ENDBRANCH  12  23
ENDBRANCH   1  16
BRANCH   3  26
ATOM     26  N   UNL     1      12.262  16.908  20.469  0.00  0.00    +0.000 N 
ATOM     27  H   UNL     1      13.062  16.931  21.099  0.00  0.00    +0.000 HD
ATOM     28  H   UNL     1      11.629  17.690  20.631  0.00  0.00    +0.000 HD
ENDBRANCH   3  26
BRANCH   2  29
ATOM     29  C   UNL     1      10.441  16.044  22.538  0.00  0.00    +0.000 C 
ATOM     30  N   UNL     1      10.237  16.690  23.481  0.00  0.00    +0.000 NA
ENDBRANCH   2  29
TORSDOF 4
ENDMDL
MODEL 9
REMARK VINA RESULT:      -6.9      5.040      7.112
REMARK  Name = 
REMARK  6 active torsions:
REMARK  status: ('A' for Active; 'I' for Inactive)
REMARK    1  A    between atoms: C_1  and  C_2
REMARK    2  A    between atoms: C_5  and  N_6
REMARK    3  A    between atoms: C_8  and  C_9
REMARK    4  A    between atoms: C_10  and  C_11
REMARK    5  A    between atoms: C_12  and  C_13
REMARK    6  A    between atoms: C_15  and  N_16
REMARK                            x       y       z     vdW  Elec       q    Type
REMARK                         _______ _______ _______ _____ _____    ______ ____
ROOT
ATOM      1  C   UNL     1      -4.522  14.513  22.361  0.00  0.00    +0.000 C 
ATOM      2  C   UNL     1      -5.395  13.657  23.264  0.00  0.00    +0.000 C 
ATOM      3  C   UNL     1      -6.743  13.773  23.261  0.00  0.00    +0.000 C 
ATOM      4  O   UNL     1      -7.391  14.710  22.461  0.00  0.00    +0.000 OA
ATOM      5  C   UNL     1      -6.665  15.609  21.697  0.00  0.00    +0.000 C 
ATOM      6  C   UNL     1      -5.324  15.567  21.635  0.00  0.00    +0.000 C 
ATOM      7  C   UNL     1      -4.603  16.566  20.797  0.00  0.00    +0.000 C 
ATOM      8  O   UNL     1      -3.375  16.603  20.789  0.00  0.00    +0.000 OA
ATOM      9  C   UNL     1      -5.414  17.491  19.917  0.00  0.00    +0.000 C 
ATOM     10  C   UNL     1      -6.723  17.859  20.592  0.00  0.00    +0.000 C 
ATOM     11  C   UNL     1      -7.512  16.612  20.971  0.00  0.00    +0.000 C 
ENDROOT
BRANCH   1  16
ATOM     12  N   UNL     1      -3.223  12.316  19.662  0.00  0.00    +0.000 N 
ATOM     13  N   UNL     1      -2.068  12.489  20.368  0.00  0.00    +0.000 NA
ATOM     14  C   UNL     1      -2.382  13.355  21.343  0.00  0.00    +0.000 A 
ATOM     15  C   UNL     1      -1.336  13.871  22.270  0.00  0.00    +0.000 C 
ATOM     16  C   UNL     1      -3.772  13.651  21.375  0.00  0.00    +0.000 A 
ATOM     17  C   UNL     1      -4.272  12.944  20.305  0.00  0.00    +0.000 A 
ATOM     18 CL   UNL     1      -5.916  12.691  19.888  0.00  0.00    +0.000 Cl
BRANCH  12  23
ATOM     19  C   UNL     1      -2.895   9.676  14.607  0.00  0.00    +0.000 C 
ATOM     20  C   UNL     1      -3.079  10.271  15.971  0.00  0.00    +0.000 A 
ATOM     21  C   UNL     1      -4.167  11.100  16.277  0.00  0.00    +0.000 A 
ATOM     22  C   UNL     1      -4.264  11.720  17.531  0.00  0.00    +0.000 A 
ATOM     23  C   UNL     1      -3.247  11.533  18.474  0.00  0.00    +0.000 A 
ATOM     24  C   UNL     1      -2.224  10.615  18.205  0.00  0.00    +0.000 A 
ATOM     25  C   UNL     1      -2.129  10.006  16.957  0.00  0.00    +0.000 A 
ENDBRANCH  12  23
ENDBRANCH   1  16
BRANCH   3  26
ATOM     26  N   UNL     1      -7.623  12.997  23.982  0.00  0.00    +0.000 N 
ATOM     27  H   UNL     1      -8.511  12.813  23.517  0.00  0.00    +0.000 HD
ATOM     28  H   UNL     1      -7.757  13.362  24.924  0.00  0.00    +0.000 HD
ENDBRANCH   3  26
BRANCH   2  29
ATOM     29  C   UNL     1      -4.753  12.686  24.089  0.00  0.00    +0.000 C 
ATOM     30  N   UNL     1      -4.239  11.881  24.749  0.00  0.00    +0.000 NA
ENDBRANCH   2  29
TORSDOF 4
ENDMDL
