MODEL 1
REMARK VINA RESULT:      -8.2      0.000      0.000
REMARK  Name = 
REMARK  8 active torsions:
REMARK  status: ('A' for Active; 'I' for Inactive)
REMARK    1  A    between atoms: C_1  and  C_2
REMARK    2  A    between atoms: C_5  and  C_6
REMARK    3  A    between atoms: C_7  and  O_8
REMARK    4  A    between atoms: O_8  and  C_9
REMARK    5  A    between atoms: C_9  and  C_10
REMARK    6  A    between atoms: C_10  and  N_11
REMARK    7  A    between atoms: C_13  and  C_14
REMARK    8  A    between atoms: C_14  and  C_16
REMARK                            x       y       z     vdW  Elec       q    Type
REMARK                         _______ _______ _______ _____ _____    ______ ____
ROOT
ATOM      1  N   UNL     1       4.808   3.496  17.257  0.00  0.00    +0.000 N 
ATOM      2  C   UNL     1       5.038   3.449  15.907  0.00  0.00    +0.000 A 
ATOM      3  C   UNL     1       6.041   4.342  15.577  0.00  0.00    +0.000 A 
ATOM      4  C   UNL     1       6.452   4.947  16.808  0.00  0.00    +0.000 A 
ATOM      5  C   UNL     1       7.438   5.907  17.131  0.00  0.00    +0.000 A 
ATOM      6  C   UNL     1       7.606   6.317  18.454  0.00  0.00    +0.000 A 
ATOM      7  C   UNL     1       6.807   5.788  19.459  0.00  0.00    +0.000 A 
ATOM      8  C   UNL     1       5.824   4.832  19.174  0.00  0.00    +0.000 A 
ATOM      9  C   UNL     1       5.662   4.421  17.837  0.00  0.00    +0.000 A 
ENDROOT
BRANCH   3  10
ATOM     10  C   UNL     1       6.619   4.568  14.249  0.00  0.00    +0.000 C 
ATOM     11  O   UNL     1       7.581   5.323  14.107  0.00  0.00    +0.000 OA
BRANCH  10  12
ATOM     12  C   UNL     1       5.983   3.867  13.137  0.00  0.00    +0.000 A 
ATOM     13  C   UNL     1       4.683   3.925  12.657  0.00  0.00    +0.000 A 
ATOM     14  C   UNL     1       4.477   3.083  11.525  0.00  0.00    +0.000 A 
ATOM     15  C   UNL     1       5.626   2.422  11.161  0.00  0.00    +0.000 A 
ATOM     16  S   UNL     1       6.942   2.811  12.178  0.00  0.00    +0.000 S 
ENDBRANCH  10  12
ENDBRANCH   3  10
BRANCH   1  17
ATOM     17  C   UNL     1       3.846   2.681  17.988  0.00  0.00    +0.000 C 
BRANCH  17  18
ATOM     18  C   UNL     1       2.484   2.464  17.312  0.00  0.00    +0.000 C 
BRANCH  18  19
ATOM     19  O   UNL     1       1.439   3.091  18.068  0.00  0.00    +0.000 OA
BRANCH  19  26
ATOM     20  C   UNL     1       2.935   7.810  17.782  0.00  0.00    +0.000 C 
ATOM     21  C   UNL     1       2.468   6.633  18.583  0.00  0.00    +0.000 A 
ATOM     22  C   UNL     1       2.347   6.702  19.971  0.00  0.00    +0.000 A 
ATOM     23  C   UNL     1       1.905   5.593  20.692  0.00  0.00    +0.000 A 
ATOM     24  C   UNL     1       1.586   4.392  20.039  0.00  0.00    +0.000 A 
ATOM     25  C   UNL     1       1.094   3.223  20.849  0.00  0.00    +0.000 C 
ATOM     26  C   UNL     1       1.724   4.307  18.642  0.00  0.00    +0.000 A 
ATOM     27  C   UNL     1       2.150   5.433  17.928  0.00  0.00    +0.000 A 
ENDBRANCH  19  26
ENDBRANCH  18  19
ENDBRANCH  17  18
ENDBRANCH   1  17
TORSDOF 6
ENDMDL
MODEL 2
REMARK VINA RESULT:      -8.2      3.756      5.601
REMARK  Name = 
REMARK  8 active torsions:
REMARK  status: ('A' for Active; 'I' for Inactive)
REMARK    1  A    between atoms: C_1  and  C_2
REMARK    2  A    between atoms: C_5  and  C_6
REMARK    3  A    between atoms: C_7  and  O_8
REMARK    4  A    between atoms: O_8  and  C_9
REMARK    5  A    between atoms: C_9  and  C_10
REMARK    6  A    between atoms: C_10  and  N_11
REMARK    7  A    between atoms: C_13  and  C_14
REMARK    8  A    between atoms: C_14  and  C_16
REMARK                            x       y       z     vdW  Elec       q    Type
REMARK                         _______ _______ _______ _____ _____    ______ ____
ROOT
ATOM      1  N   UNL     1       2.685   6.511  19.554  0.00  0.00    +0.000 N 
ATOM      2  C   UNL     1       3.952   6.513  19.031  0.00  0.00    +0.000 A 
ATOM      3  C   UNL     1       4.429   5.217  18.969  0.00  0.00    +0.000 A 
ATOM      4  C   UNL     1       3.375   4.384  19.466  0.00  0.00    +0.000 A 
ATOM      5  C   UNL     1       3.244   2.986  19.630  0.00  0.00    +0.000 A 
ATOM      6  C   UNL     1       2.069   2.453  20.161  0.00  0.00    +0.000 A 
ATOM      7  C   UNL     1       1.025   3.290  20.532  0.00  0.00    +0.000 A 
ATOM      8  C   UNL     1       1.121   4.677  20.379  0.00  0.00    +0.000 A 
ATOM      9  C   UNL     1       2.308   5.209  19.840  0.00  0.00    +0.000 A 
ENDROOT
BRANCH   3  10
ATOM     10  C   UNL     1       5.720   4.777  18.433  0.00  0.00    +0.000 C 
ATOM     11  O   UNL     1       6.670   4.566  19.188  0.00  0.00    +0.000 OA
BRANCH  10  12
ATOM     12  C   UNL     1       5.803   4.626  16.984  0.00  0.00    +0.000 A 
ATOM     13  C   UNL     1       4.850   4.226  16.060  0.00  0.00    +0.000 A 
ATOM     14  C   UNL     1       5.341   4.233  14.722  0.00  0.00    +0.000 A 
ATOM     15  C   UNL     1       6.649   4.656  14.658  0.00  0.00    +0.000 A 
ATOM     16  S   UNL     1       7.277   5.038  16.200  0.00  0.00    +0.000 S 
ENDBRANCH  10  12
ENDBRANCH   3  10
BRANCH   1  17
ATOM     17  C   UNL     1       1.840   7.683  19.749  0.00  0.00    +0.000 C 
BRANCH  17  18
ATOM     18  C   UNL     1       1.776   8.678  18.581  0.00  0.00    +0.000 C 
BRANCH  18  19
ATOM     19  O   UNL     1       1.359   9.971  19.042  0.00  0.00    +0.000 OA
BRANCH  19  26
ATOM     20  C   UNL     1      -2.716   9.800  16.222  0.00  0.00    +0.000 C 
ATOM     21  C   UNL     1      -1.963  10.337  17.401  0.00  0.00    +0.000 A 
ATOM     22  C   UNL     1      -2.523  11.303  18.239  0.00  0.00    +0.000 A 
ATOM     23  C   UNL     1      -1.802  11.783  19.333  0.00  0.00    +0.000 A 
ATOM     24  C   UNL     1      -0.506  11.314  19.601  0.00  0.00    +0.000 A 
ATOM     25  C   UNL     1       0.231  11.842  20.802  0.00  0.00    +0.000 C 
ATOM     26  C   UNL     1       0.072  10.356  18.751  0.00  0.00    +0.000 A 
ATOM     27  C   UNL     1      -0.668   9.868  17.667  0.00  0.00    +0.000 A 
ENDBRANCH  19  26
ENDBRANCH  18  19
ENDBRANCH  17  18
ENDBRANCH   1  17
TORSDOF 6
ENDMDL
MODEL 3
REMARK VINA RESULT:      -8.1      5.587      8.803
REMARK  Name = 
REMARK  8 active torsions:
REMARK  status: ('A' for Active; 'I' for Inactive)
REMARK    1  A    between atoms: C_1  and  C_2
REMARK    2  A    between atoms: C_5  and  C_6
REMARK    3  A    between atoms: C_7  and  O_8
REMARK    4  A    between atoms: O_8  and  C_9
REMARK    5  A    between atoms: C_9  and  C_10
REMARK    6  A    between atoms: C_10  and  N_11
REMARK    7  A    between atoms: C_13  and  C_14
REMARK    8  A    between atoms: C_14  and  C_16
REMARK                            x       y       z     vdW  Elec       q    Type
REMARK                         _______ _______ _______ _____ _____    ______ ____
ROOT
ATOM      1  N   UNL     1       1.020   9.184  19.656  0.00  0.00    +0.000 N 
ATOM      2  C   UNL     1       0.562   9.969  18.630  0.00  0.00    +0.000 A 
ATOM      3  C   UNL     1      -0.332  10.901  19.124  0.00  0.00    +0.000 A 
ATOM      4  C   UNL     1      -0.398  10.674  20.537  0.00  0.00    +0.000 A 
ATOM      5  C   UNL     1      -1.107  11.306  21.584  0.00  0.00    +0.000 A 
ATOM      6  C   UNL     1      -0.972  10.846  22.894  0.00  0.00    +0.000 A 
ATOM      7  C   UNL     1      -0.145   9.767  23.177  0.00  0.00    +0.000 A 
ATOM      8  C   UNL     1       0.574   9.122  22.163  0.00  0.00    +0.000 A 
ATOM      9  C   UNL     1       0.435   9.593  20.843  0.00  0.00    +0.000 A 
ENDROOT
BRANCH   3  10
ATOM     10  C   UNL     1      -1.015  11.955  18.369  0.00  0.00    +0.000 C 
ATOM     11  O   UNL     1      -0.551  13.095  18.328  0.00  0.00    +0.000 OA
BRANCH  10  12
ATOM     12  C   UNL     1      -2.255  11.573  17.699  0.00  0.00    +0.000 A 
ATOM     13  C   UNL     1      -2.474  11.030  16.442  0.00  0.00    +0.000 A 
ATOM     14  C   UNL     1      -3.854  10.785  16.180  0.00  0.00    +0.000 A 
ATOM     15  C   UNL     1      -4.647  11.129  17.250  0.00  0.00    +0.000 A 
ATOM     16  S   UNL     1      -3.735  11.745  18.556  0.00  0.00    +0.000 S 
ENDBRANCH  10  12
ENDBRANCH   3  10
BRANCH   1  17
ATOM     17  C   UNL     1       1.998   8.109  19.538  0.00  0.00    +0.000 C 
BRANCH  17  18
ATOM     18  C   UNL     1       2.318   7.634  18.112  0.00  0.00    +0.000 C 
BRANCH  18  19
ATOM     19  O   UNL     1       2.450   6.206  18.075  0.00  0.00    +0.000 OA
BRANCH  19  26
ATOM     20  C   UNL     1       7.310   6.698  17.220  0.00  0.00    +0.000 C 
ATOM     21  C   UNL     1       6.061   5.870  17.230  0.00  0.00    +0.000 A 
ATOM     22  C   UNL     1       6.068   4.544  16.796  0.00  0.00    +0.000 A 
ATOM     23  C   UNL     1       4.893   3.793  16.819  0.00  0.00    +0.000 A 
ATOM     24  C   UNL     1       3.688   4.358  17.269  0.00  0.00    +0.000 A 
ATOM     25  C   UNL     1       2.445   3.510  17.299  0.00  0.00    +0.000 C 
ATOM     26  C   UNL     1       3.669   5.699  17.690  0.00  0.00    +0.000 A 
ATOM     27  C   UNL     1       4.858   6.436  17.678  0.00  0.00    +0.000 A 
ENDBRANCH  19  26
ENDBRANCH  18  19
ENDBRANCH  17  18
ENDBRANCH   1  17
TORSDOF 6
ENDMDL
MODEL 4
REMARK VINA RESULT:      -8.1      3.991      6.435
REMARK  Name = 
REMARK  8 active torsions:
REMARK  status: ('A' for Active; 'I' for Inactive)
REMARK    1  A    between atoms: C_1  and  C_2
REMARK    2  A    between atoms: C_5  and  C_6
REMARK    3  A    between atoms: C_7  and  O_8
REMARK    4  A    between atoms: O_8  and  C_9
REMARK    5  A    between atoms: C_9  and  C_10
REMARK    6  A    between atoms: C_10  and  N_11
REMARK    7  A    between atoms: C_13  and  C_14
REMARK    8  A    between atoms: C_14  and  C_16
REMARK                            x       y       z     vdW  Elec       q    Type
REMARK                         _______ _______ _______ _____ _____    ______ ____
ROOT
ATOM      1  N   UNL     1       3.309   7.067  17.739  0.00  0.00    +0.000 N 
ATOM      2  C   UNL     1       2.407   6.076  18.024  0.00  0.00    +0.000 A 
ATOM      3  C   UNL     1       2.997   4.842  17.824  0.00  0.00    +0.000 A 
ATOM      4  C   UNL     1       4.343   5.110  17.414  0.00  0.00    +0.000 A 
ATOM      5  C   UNL     1       5.437   4.276  17.088  0.00  0.00    +0.000 A 
ATOM      6  C   UNL     1       6.655   4.841  16.707  0.00  0.00    +0.000 A 
ATOM      7  C   UNL     1       6.799   6.221  16.644  0.00  0.00    +0.000 A 
ATOM      8  C   UNL     1       5.736   7.074  16.964  0.00  0.00    +0.000 A 
ATOM      9  C   UNL     1       4.511   6.497  17.351  0.00  0.00    +0.000 A 
ENDROOT
BRANCH   3  10
ATOM     10  C   UNL     1       2.393   3.528  18.057  0.00  0.00    +0.000 C 
ATOM     11  O   UNL     1       2.095   2.800  17.109  0.00  0.00    +0.000 OA
BRANCH  10  12
ATOM     12  C   UNL     1       2.161   3.158  19.450  0.00  0.00    +0.000 A 
ATOM     13  C   UNL     1       0.990   3.117  20.191  0.00  0.00    +0.000 A 
ATOM     14  C   UNL     1       1.201   2.677  21.531  0.00  0.00    +0.000 A 
ATOM     15  C   UNL     1       2.521   2.375  21.770  0.00  0.00    +0.000 A 
ATOM     16  S   UNL     1       3.497   2.625  20.390  0.00  0.00    +0.000 S 
ENDBRANCH  10  12
ENDBRANCH   3  10
BRANCH   1  17
ATOM     17  C   UNL     1       3.070   8.501  17.858  0.00  0.00    +0.000 C 
BRANCH  17  18
ATOM     18  C   UNL     1       1.613   8.963  17.701  0.00  0.00    +0.000 C 
BRANCH  18  19
ATOM     19  O   UNL     1       1.300   9.980  18.662  0.00  0.00    +0.000 OA
BRANCH  19  26
ATOM     20  C   UNL     1      -3.302  10.170  16.824  0.00  0.00    +0.000 C 
ATOM     21  C   UNL     1      -2.274  10.606  17.823  0.00  0.00    +0.000 A 
ATOM     22  C   UNL     1      -2.571  11.557  18.800  0.00  0.00    +0.000 A 
ATOM     23  C   UNL     1      -1.597  11.943  19.721  0.00  0.00    +0.000 A 
ATOM     24  C   UNL     1      -0.306  11.392  19.675  0.00  0.00    +0.000 A 
ATOM     25  C   UNL     1       0.712  11.819  20.698  0.00  0.00    +0.000 C 
ATOM     26  C   UNL     1       0.007  10.448  18.682  0.00  0.00    +0.000 A 
ATOM     27  C   UNL     1      -0.984  10.055  17.775  0.00  0.00    +0.000 A 
ENDBRANCH  19  26
ENDBRANCH  18  19
ENDBRANCH  17  18
ENDBRANCH   1  17
TORSDOF 6
ENDMDL
MODEL 5
REMARK VINA RESULT:      -8.0      3.639      6.395
REMARK  Name = 
REMARK  8 active torsions:
REMARK  status: ('A' for Active; 'I' for Inactive)
REMARK    1  A    between atoms: C_1  and  C_2
REMARK    2  A    between atoms: C_5  and  C_6
REMARK    3  A    between atoms: C_7  and  O_8
REMARK    4  A    between atoms: O_8  and  C_9
REMARK    5  A    between atoms: C_9  and  C_10
REMARK    6  A    between atoms: C_10  and  N_11
REMARK    7  A    between atoms: C_13  and  C_14
REMARK    8  A    between atoms: C_14  and  C_16
REMARK                            x       y       z     vdW  Elec       q    Type
REMARK                         _______ _______ _______ _____ _____    ______ ____
ROOT
ATOM      1  N   UNL     1       3.358   6.883  17.607  0.00  0.00    +0.000 N 
ATOM      2  C   UNL     1       2.453   5.922  17.976  0.00  0.00    +0.000 A 
ATOM      3  C   UNL     1       2.992   4.669  17.753  0.00  0.00    +0.000 A 
ATOM      4  C   UNL     1       4.310   4.892  17.237  0.00  0.00    +0.000 A 
ATOM      5  C   UNL     1       5.353   4.023  16.843  0.00  0.00    +0.000 A 
ATOM      6  C   UNL     1       6.552   4.546  16.361  0.00  0.00    +0.000 A 
ATOM      7  C   UNL     1       6.729   5.920  16.264  0.00  0.00    +0.000 A 
ATOM      8  C   UNL     1       5.718   6.808  16.650  0.00  0.00    +0.000 A 
ATOM      9  C   UNL     1       4.510   6.273  17.138  0.00  0.00    +0.000 A 
ENDROOT
BRANCH   3  10
ATOM     10  C   UNL     1       2.372   3.376  18.053  0.00  0.00    +0.000 C 
ATOM     11  O   UNL     1       2.062   2.606  17.144  0.00  0.00    +0.000 OA
BRANCH  10  12
ATOM     12  C   UNL     1       2.140   3.080  19.464  0.00  0.00    +0.000 A 
ATOM     13  C   UNL     1       0.965   3.047  20.199  0.00  0.00    +0.000 A 
ATOM     14  C   UNL     1       1.178   2.690  21.563  0.00  0.00    +0.000 A 
ATOM     15  C   UNL     1       2.505   2.441  21.826  0.00  0.00    +0.000 A 
ATOM     16  S   UNL     1       3.484   2.640  20.441  0.00  0.00    +0.000 S 
ENDBRANCH  10  12
ENDBRANCH   3  10
BRANCH   1  17
ATOM     17  C   UNL     1       3.167   8.324  17.720  0.00  0.00    +0.000 C 
BRANCH  17  18
ATOM     18  C   UNL     1       1.713   8.818  17.752  0.00  0.00    +0.000 C 
BRANCH  18  19
ATOM     19  O   UNL     1       1.663  10.219  18.055  0.00  0.00    +0.000 OA
BRANCH  19  26
ATOM     20  C   UNL     1      -0.398   9.095  22.423  0.00  0.00    +0.000 C 
ATOM     21  C   UNL     1       0.078  10.105  21.423  0.00  0.00    +0.000 A 
ATOM     22  C   UNL     1      -0.063  11.474  21.652  0.00  0.00    +0.000 A 
ATOM     23  C   UNL     1       0.392  12.393  20.706  0.00  0.00    +0.000 A 
ATOM     24  C   UNL     1       0.986  11.958  19.510  0.00  0.00    +0.000 A 
ATOM     25  C   UNL     1       1.483  12.980  18.523  0.00  0.00    +0.000 C 
ATOM     26  C   UNL     1       1.114  10.580  19.263  0.00  0.00    +0.000 A 
ATOM     27  C   UNL     1       0.670   9.668  20.228  0.00  0.00    +0.000 A 
ENDBRANCH  19  26
ENDBRANCH  18  19
ENDBRANCH  17  18
ENDBRANCH   1  17
TORSDOF 6
ENDMDL
MODEL 6
REMARK VINA RESULT:      -8.0      3.988      6.427
REMARK  Name = 
REMARK  8 active torsions:
REMARK  status: ('A' for Active; 'I' for Inactive)
REMARK    1  A    between atoms: C_1  and  C_2
REMARK    2  A    between atoms: C_5  and  C_6
REMARK    3  A    between atoms: C_7  and  O_8
REMARK    4  A    between atoms: O_8  and  C_9
REMARK    5  A    between atoms: C_9  and  C_10
REMARK    6  A    between atoms: C_10  and  N_11
REMARK    7  A    between atoms: C_13  and  C_14
REMARK    8  A    between atoms: C_14  and  C_16
REMARK                            x       y       z     vdW  Elec       q    Type
REMARK                         _______ _______ _______ _____ _____    ______ ____
ROOT
ATOM      1  N   UNL     1       3.227   7.112  17.652  0.00  0.00    +0.000 N 
ATOM      2  C   UNL     1       2.350   6.090  17.902  0.00  0.00    +0.000 A 
ATOM      3  C   UNL     1       3.005   4.879  17.784  0.00  0.00    +0.000 A 
ATOM      4  C   UNL     1       4.364   5.194  17.462  0.00  0.00    +0.000 A 
ATOM      5  C   UNL     1       5.513   4.402  17.241  0.00  0.00    +0.000 A 
ATOM      6  C   UNL     1       6.730   5.009  16.930  0.00  0.00    +0.000 A 
ATOM      7  C   UNL     1       6.819   6.392  16.834  0.00  0.00    +0.000 A 
ATOM      8  C   UNL     1       5.701   7.205  17.051  0.00  0.00    +0.000 A 
ATOM      9  C   UNL     1       4.477   6.586  17.368  0.00  0.00    +0.000 A 
ENDROOT
BRANCH   3  10
ATOM     10  C   UNL     1       2.441   3.546  18.014  0.00  0.00    +0.000 C 
ATOM     11  O   UNL     1       2.174   2.808  17.065  0.00  0.00    +0.000 OA
BRANCH  10  12
ATOM     12  C   UNL     1       2.211   3.171  19.406  0.00  0.00    +0.000 A 
ATOM     13  C   UNL     1       1.043   3.141  20.153  0.00  0.00    +0.000 A 
ATOM     14  C   UNL     1       1.255   2.689  21.489  0.00  0.00    +0.000 A 
ATOM     15  C   UNL     1       2.573   2.368  21.719  0.00  0.00    +0.000 A 
ATOM     16  S   UNL     1       3.545   2.613  20.336  0.00  0.00    +0.000 S 
ENDBRANCH  10  12
ENDBRANCH   3  10
BRANCH   1  17
ATOM     17  C   UNL     1       2.919   8.536  17.708  0.00  0.00    +0.000 C 
BRANCH  17  18
ATOM     18  C   UNL     1       1.771   8.948  18.643  0.00  0.00    +0.000 C 
BRANCH  18  19
ATOM     19  O   UNL     1       0.701   9.542  17.896  0.00  0.00    +0.000 OA
BRANCH  19  26
ATOM     20  C   UNL     1       0.040  12.983  21.405  0.00  0.00    +0.000 C 
ATOM     21  C   UNL     1      -0.476  12.172  20.256  0.00  0.00    +0.000 A 
ATOM     22  C   UNL     1      -1.794  12.296  19.816  0.00  0.00    +0.000 A 
ATOM     23  C   UNL     1      -2.248  11.531  18.740  0.00  0.00    +0.000 A 
ATOM     24  C   UNL     1      -1.394  10.624  18.093  0.00  0.00    +0.000 A 
ATOM     25  C   UNL     1      -1.915   9.832  16.924  0.00  0.00    +0.000 C 
ATOM     26  C   UNL     1      -0.070  10.479  18.542  0.00  0.00    +0.000 A 
ATOM     27  C   UNL     1       0.379  11.265  19.610  0.00  0.00    +0.000 A 
ENDBRANCH  19  26
ENDBRANCH  18  19
ENDBRANCH  17  18
ENDBRANCH   1  17
TORSDOF 6
ENDMDL
MODEL 7
REMARK VINA RESULT:      -7.9      3.765      5.575
REMARK  Name = 
REMARK  8 active torsions:
REMARK  status: ('A' for Active; 'I' for Inactive)
REMARK    1  A    between atoms: C_1  and  C_2
REMARK    2  A    between atoms: C_5  and  C_6
REMARK    3  A    between atoms: C_7  and  O_8
REMARK    4  A    between atoms: O_8  and  C_9
REMARK    5  A    between atoms: C_9  and  C_10
REMARK    6  A    between atoms: C_10  and  N_11
REMARK    7  A    between atoms: C_13  and  C_14
REMARK    8  A    between atoms: C_14  and  C_16
REMARK                            x       y       z     vdW  Elec       q    Type
REMARK                         _______ _______ _______ _____ _____    ______ ____
ROOT
ATOM      1  N   UNL     1       2.400   5.780  20.016  0.00  0.00    +0.000 N 
ATOM      2  C   UNL     1       3.709   6.018  19.690  0.00  0.00    +0.000 A 
ATOM      3  C   UNL     1       4.277   4.865  19.182  0.00  0.00    +0.000 A 
ATOM      4  C   UNL     1       3.238   3.880  19.184  0.00  0.00    +0.000 A 
ATOM      5  C   UNL     1       3.187   2.529  18.770  0.00  0.00    +0.000 A 
ATOM      6  C   UNL     1       2.004   1.801  18.906  0.00  0.00    +0.000 A 
ATOM      7  C   UNL     1       0.874   2.398  19.449  0.00  0.00    +0.000 A 
ATOM      8  C   UNL     1       0.889   3.734  19.865  0.00  0.00    +0.000 A 
ATOM      9  C   UNL     1       2.086   4.463  19.722  0.00  0.00    +0.000 A 
ENDROOT
BRANCH   3  10
ATOM     10  C   UNL     1       5.642   4.704  18.674  0.00  0.00    +0.000 C 
ATOM     11  O   UNL     1       6.595   4.642  19.452  0.00  0.00    +0.000 OA
BRANCH  10  12
ATOM     12  C   UNL     1       5.791   4.640  17.223  0.00  0.00    +0.000 A 
ATOM     13  C   UNL     1       4.838   4.627  16.216  0.00  0.00    +0.000 A 
ATOM     14  C   UNL     1       5.413   4.577  14.913  0.00  0.00    +0.000 A 
ATOM     15  C   UNL     1       6.788   4.573  14.959  0.00  0.00    +0.000 A 
ATOM     16  S   UNL     1       7.377   4.626  16.561  0.00  0.00    +0.000 S 
ENDBRANCH  10  12
ENDBRANCH   3  10
BRANCH   1  17
ATOM     17  C   UNL     1       1.461   6.758  20.553  0.00  0.00    +0.000 C 
BRANCH  17  18
ATOM     18  C   UNL     1       1.630   8.204  20.063  0.00  0.00    +0.000 C 
BRANCH  18  19
ATOM     19  O   UNL     1       1.494   9.126  21.154  0.00  0.00    +0.000 OA
BRANCH  19  26
ATOM     20  C   UNL     1      -0.615  12.770  18.535  0.00  0.00    +0.000 C 
ATOM     21  C   UNL     1      -0.502  11.957  19.788  0.00  0.00    +0.000 A 
ATOM     22  C   UNL     1      -1.303  12.224  20.900  0.00  0.00    +0.000 A 
ATOM     23  C   UNL     1      -1.181  11.449  22.053  0.00  0.00    +0.000 A 
ATOM     24  C   UNL     1      -0.250  10.400  22.119  0.00  0.00    +0.000 A 
ATOM     25  C   UNL     1      -0.162   9.573  23.373  0.00  0.00    +0.000 C 
ATOM     26  C   UNL     1       0.573  10.136  21.010  0.00  0.00    +0.000 A 
ATOM     27  C   UNL     1       0.429  10.909  19.852  0.00  0.00    +0.000 A 
ENDBRANCH  19  26
ENDBRANCH  18  19
ENDBRANCH  17  18
ENDBRANCH   1  17
TORSDOF 6
ENDMDL
MODEL 8
REMARK VINA RESULT:      -7.9      3.980      6.249
REMARK  Name = 
REMARK  8 active torsions:
REMARK  status: ('A' for Active; 'I' for Inactive)
REMARK    1  A    between atoms: C_1  and  C_2
REMARK    2  A    between atoms: C_5  and  C_6
REMARK    3  A    between atoms: C_7  and  O_8
REMARK    4  A    between atoms: O_8  and  C_9
REMARK    5  A    between atoms: C_9  and  C_10
REMARK    6  A    between atoms: C_10  and  N_11
REMARK    7  A    between atoms: C_13  and  C_14
REMARK    8  A    between atoms: C_14  and  C_16
REMARK                            x       y       z     vdW  Elec       q    Type
REMARK                         _______ _______ _______ _____ _____    ______ ____
ROOT
ATOM      1  N   UNL     1       2.202   6.352  19.878  0.00  0.00    +0.000 N 
ATOM      2  C   UNL     1       3.234   6.643  19.026  0.00  0.00    +0.000 A 
ATOM      3  C   UNL     1       3.649   5.488  18.389  0.00  0.00    +0.000 A 
ATOM      4  C   UNL     1       2.798   4.443  18.875  0.00  0.00    +0.000 A 
ATOM      5  C   UNL     1       2.708   3.061  18.591  0.00  0.00    +0.000 A 
ATOM      6  C   UNL     1       1.758   2.275  19.244  0.00  0.00    +0.000 A 
ATOM      7  C   UNL     1       0.898   2.844  20.175  0.00  0.00    +0.000 A 
ATOM      8  C   UNL     1       0.959   4.210  20.476  0.00  0.00    +0.000 A 
ATOM      9  C   UNL     1       1.918   4.997  19.811  0.00  0.00    +0.000 A 
ENDROOT
BRANCH   3  10
ATOM     10  C   UNL     1       4.694   5.369  17.369  0.00  0.00    +0.000 C 
ATOM     11  O   UNL     1       4.510   4.686  16.362  0.00  0.00    +0.000 OA
BRANCH  10  12
ATOM     12  C   UNL     1       5.940   6.086  17.631  0.00  0.00    +0.000 A 
ATOM     13  C   UNL     1       6.461   7.233  17.053  0.00  0.00    +0.000 A 
ATOM     14  C   UNL     1       7.713   7.615  17.620  0.00  0.00    +0.000 A 
ATOM     15  C   UNL     1       8.102   6.762  18.626  0.00  0.00    +0.000 A 
ATOM     16  S   UNL     1       6.968   5.510  18.882  0.00  0.00    +0.000 S 
ENDBRANCH  10  12
ENDBRANCH   3  10
BRANCH   1  17
ATOM     17  C   UNL     1       1.479   7.312  20.704  0.00  0.00    +0.000 C 
BRANCH  17  18
ATOM     18  C   UNL     1       1.322   8.726  20.125  0.00  0.00    +0.000 C 
BRANCH  18  19
ATOM     19  O   UNL     1       0.176   9.378  20.689  0.00  0.00    +0.000 OA
BRANCH  19  26
ATOM     20  C   UNL     1      -2.309  10.185  16.474  0.00  0.00    +0.000 C 
ATOM     21  C   UNL     1      -1.785  10.661  17.795  0.00  0.00    +0.000 A 
ATOM     22  C   UNL     1      -1.980  11.976  18.221  0.00  0.00    +0.000 A 
ATOM     23  C   UNL     1      -1.485  12.392  19.457  0.00  0.00    +0.000 A 
ATOM     24  C   UNL     1      -0.779  11.504  20.284  0.00  0.00    +0.000 A 
ATOM     25  C   UNL     1      -0.278  11.985  21.619  0.00  0.00    +0.000 C 
ATOM     26  C   UNL     1      -0.561  10.184  19.854  0.00  0.00    +0.000 A 
ATOM     27  C   UNL     1      -1.078   9.773  18.620  0.00  0.00    +0.000 A 
ENDBRANCH  19  26
ENDBRANCH  18  19
ENDBRANCH  17  18
ENDBRANCH   1  17
TORSDOF 6
ENDMDL
MODEL 9
REMARK VINA RESULT:      -7.8      5.517      9.177
REMARK  Name = 
REMARK  8 active torsions:
REMARK  status: ('A' for Active; 'I' for Inactive)
REMARK    1  A    between atoms: C_1  and  C_2
REMARK    2  A    between atoms: C_5  and  C_6
REMARK    3  A    between atoms: C_7  and  O_8
REMARK    4  A    between atoms: O_8  and  C_9
REMARK    5  A    between atoms: C_9  and  C_10
REMARK    6  A    between atoms: C_10  and  N_11
REMARK    7  A    between atoms: C_13  and  C_14
REMARK    8  A    between atoms: C_14  and  C_16
REMARK                            x       y       z     vdW  Elec       q    Type
REMARK                         _______ _______ _______ _____ _____    ______ ____
ROOT
ATOM      1  N   UNL     1       0.985   9.290  19.801  0.00  0.00    +0.000 N 
ATOM      2  C   UNL     1       0.715  10.170  18.786  0.00  0.00    +0.000 A 
ATOM      3  C   UNL     1      -0.109  11.176  19.253  0.00  0.00    +0.000 A 
ATOM      4  C   UNL     1      -0.332  10.893  20.639  0.00  0.00    +0.000 A 
ATOM      5  C   UNL     1      -1.059  11.554  21.655  0.00  0.00    +0.000 A 
ATOM      6  C   UNL     1      -1.099  11.021  22.944  0.00  0.00    +0.000 A 
ATOM      7  C   UNL     1      -0.429   9.840  23.234  0.00  0.00    +0.000 A 
ATOM      8  C   UNL     1       0.303   9.163  22.252  0.00  0.00    +0.000 A 
ATOM      9  C   UNL     1       0.342   9.708  20.954  0.00  0.00    +0.000 A 
ENDROOT
BRANCH   3  10
ATOM     10  C   UNL     1      -0.596  12.337  18.502  0.00  0.00    +0.000 C 
ATOM     11  O   UNL     1      -1.566  12.233  17.751  0.00  0.00    +0.000 OA
BRANCH  10  12
ATOM     12  C   UNL     1       0.139  13.585  18.690  0.00  0.00    +0.000 A 
ATOM     13  C   UNL     1      -0.298  14.840  19.087  0.00  0.00    +0.000 A 
ATOM     14  C   UNL     1       0.761  15.792  19.163  0.00  0.00    +0.000 A 
ATOM     15  C   UNL     1       1.976  15.235  18.842  0.00  0.00    +0.000 A 
ATOM     16  S   UNL     1       1.840  13.578  18.449  0.00  0.00    +0.000 S 
ENDBRANCH  10  12
ENDBRANCH   3  10
BRANCH   1  17
ATOM     17  C   UNL     1       1.842   8.114  19.707  0.00  0.00    +0.000 C 
BRANCH  17  18
ATOM     18  C   UNL     1       2.289   7.708  18.294  0.00  0.00    +0.000 C 
BRANCH  18  19
ATOM     19  O   UNL     1       3.408   6.813  18.357  0.00  0.00    +0.000 OA
BRANCH  19  26
ATOM     20  C   UNL     1       0.780   2.636  18.845  0.00  0.00    +0.000 C 
ATOM     21  C   UNL     1       1.937   3.393  18.266  0.00  0.00    +0.000 A 
ATOM     22  C   UNL     1       2.866   2.771  17.432  0.00  0.00    +0.000 A 
ATOM     23  C   UNL     1       3.932   3.499  16.904  0.00  0.00    +0.000 A 
ATOM     24  C   UNL     1       4.091   4.861  17.208  0.00  0.00    +0.000 A 
ATOM     25  C   UNL     1       5.242   5.619  16.602  0.00  0.00    +0.000 C 
ATOM     26  C   UNL     1       3.170   5.491  18.062  0.00  0.00    +0.000 A 
ATOM     27  C   UNL     1       2.095   4.754  18.572  0.00  0.00    +0.000 A 
ENDBRANCH  19  26
ENDBRANCH  18  19
ENDBRANCH  17  18
ENDBRANCH   1  17
TORSDOF 6
ENDMDL
