MODEL 1
REMARK VINA RESULT:      -8.3      0.000      0.000
REMARK  Name = 
REMARK  4 active torsions:
REMARK  status: ('A' for Active; 'I' for Inactive)
REMARK    1  A    between atoms: C_2  and  C_3
REMARK    2  A    between atoms: N_7  and  C_8
REMARK    3  A    between atoms: C_8  and  C_9
REMARK    4  A    between atoms: N_19  and  C_20
REMARK                            x       y       z     vdW  Elec       q    Type
REMARK                         _______ _______ _______ _____ _____    ______ ____
ROOT
ATOM      1  O   UNL     1       1.923   5.759  20.961  0.00  0.00    +0.000 OA
ATOM      2  C   UNL     1       2.118   6.285  19.869  0.00  0.00    +0.000 C 
ATOM      3  N   UNL     1       1.817   7.612  19.565  0.00  0.00    +0.000 N 
ATOM      4  C   UNL     1       2.108   8.284  18.278  0.00  0.00    +0.000 C 
ATOM      5  C   UNL     1       1.208   9.479  17.939  0.00  0.00    +0.000 C 
ATOM      6  N   UNL     1       1.154  10.348  19.114  0.00  0.00    +0.000 N 
ATOM      7  C   UNL     1       0.516   9.663  20.252  0.00  0.00    +0.000 C 
ATOM      8  C   UNL     1       1.422   8.492  20.679  0.00  0.00    +0.000 C 
ENDROOT
BRANCH   6   9
ATOM      9  C   UNL     1       1.037  11.729  18.996  0.00  0.00    +0.000 A 
ATOM     10  C   UNL     1       2.132  12.576  19.241  0.00  0.00    +0.000 A 
ATOM     11  C   UNL     1       2.028  13.970  19.151  0.00  0.00    +0.000 A 
ATOM     12  C   UNL     1       0.817  14.563  18.816  0.00  0.00    +0.000 A 
ATOM     13  C   UNL     1      -0.295  13.746  18.588  0.00  0.00    +0.000 A 
ATOM     14  C   UNL     1      -0.192  12.361  18.686  0.00  0.00    +0.000 A 
ATOM     15 CL   UNL     1      -1.687  11.481  18.539  0.00  0.00    +0.000 Cl
ENDBRANCH   6   9
BRANCH   2  16
ATOM     16  C   UNL     1       2.683   5.422  18.823  0.00  0.00    +0.000 A 
ATOM     17  C   UNL     1       1.913   4.565  18.039  0.00  0.00    +0.000 A 
ATOM     18  C   UNL     1       2.559   3.631  17.234  0.00  0.00    +0.000 A 
ATOM     19  C   UNL     1       3.945   3.584  17.234  0.00  0.00    +0.000 A 
ATOM     20  N   UNL     1       4.676   4.467  17.957  0.00  0.00    +0.000 N 
ATOM     21  C   UNL     1       4.064   5.421  18.696  0.00  0.00    +0.000 A 
BRANCH  20  22
ATOM     22  C   UNL     1       6.141   4.280  18.101  0.00  0.00    +0.000 C 
BRANCH  22  23
ATOM     23  C   UNL     1       6.862   5.605  18.042  0.00  0.00    +0.000 A 
ATOM     24  C   UNL     1       7.785   5.948  19.042  0.00  0.00    +0.000 A 
ATOM     25  C   UNL     1       8.409   7.196  19.030  0.00  0.00    +0.000 A 
ATOM     26  C   UNL     1       8.121   8.112  18.020  0.00  0.00    +0.000 A 
ATOM     27  C   UNL     1       7.232   7.771  17.004  0.00  0.00    +0.000 A 
ATOM     28  C   UNL     1       6.609   6.521  17.010  0.00  0.00    +0.000 A 
ENDBRANCH  22  23
ENDBRANCH  20  22
ENDBRANCH   2  16
TORSDOF 4
ENDMDL
MODEL 2
REMARK VINA RESULT:      -7.9      1.046      1.277
REMARK  Name = 
REMARK  4 active torsions:
REMARK  status: ('A' for Active; 'I' for Inactive)
REMARK    1  A    between atoms: C_2  and  C_3
REMARK    2  A    between atoms: N_7  and  C_8
REMARK    3  A    between atoms: C_8  and  C_9
REMARK    4  A    between atoms: N_19  and  C_20
REMARK                            x       y       z     vdW  Elec       q    Type
REMARK                         _______ _______ _______ _____ _____    ______ ____
ROOT
ATOM      1  O   UNL     1       2.027   5.549  21.088  0.00  0.00    +0.000 OA
ATOM      2  C   UNL     1       2.141   6.161  20.029  0.00  0.00    +0.000 C 
ATOM      3  N   UNL     1       1.756   7.487  19.837  0.00  0.00    +0.000 N 
ATOM      4  C   UNL     1       1.949   8.263  18.590  0.00  0.00    +0.000 C 
ATOM      5  C   UNL     1       0.971   9.427  18.379  0.00  0.00    +0.000 C 
ATOM      6  N   UNL     1       0.928  10.206  19.616  0.00  0.00    +0.000 N 
ATOM      7  C   UNL     1       0.383   9.408  20.729  0.00  0.00    +0.000 C 
ATOM      8  C   UNL     1       1.370   8.262  21.028  0.00  0.00    +0.000 C 
ENDROOT
BRANCH   6   9
ATOM      9  C   UNL     1       0.732  11.584  19.605  0.00  0.00    +0.000 A 
ATOM     10  C   UNL     1      -0.354  12.170  20.277  0.00  0.00    +0.000 A 
ATOM     11  C   UNL     1      -0.581  13.552  20.258  0.00  0.00    +0.000 A 
ATOM     12  C   UNL     1       0.273  14.394  19.557  0.00  0.00    +0.000 A 
ATOM     13  C   UNL     1       1.349  13.836  18.860  0.00  0.00    +0.000 A 
ATOM     14  C   UNL     1       1.570  12.461  18.874  0.00  0.00    +0.000 A 
ATOM     15 CL   UNL     1       2.843  11.890  17.834  0.00  0.00    +0.000 Cl
ENDBRANCH   6   9
BRANCH   2  16
ATOM     16  C   UNL     1       2.700   5.407  18.898  0.00  0.00    +0.000 A 
ATOM     17  C   UNL     1       1.925   4.629  18.040  0.00  0.00    +0.000 A 
ATOM     18  C   UNL     1       2.567   3.781  17.142  0.00  0.00    +0.000 A 
ATOM     19  C   UNL     1       3.953   3.738  17.126  0.00  0.00    +0.000 A 
ATOM     20  N   UNL     1       4.687   4.547  17.928  0.00  0.00    +0.000 N 
ATOM     21  C   UNL     1       4.080   5.422  18.761  0.00  0.00    +0.000 A 
BRANCH  20  22
ATOM     22  C   UNL     1       6.154   4.351  18.041  0.00  0.00    +0.000 C 
BRANCH  22  23
ATOM     23  C   UNL     1       6.878   5.676  18.024  0.00  0.00    +0.000 A 
ATOM     24  C   UNL     1       7.819   5.975  19.021  0.00  0.00    +0.000 A 
ATOM     25  C   UNL     1       8.446   7.222  19.050  0.00  0.00    +0.000 A 
ATOM     26  C   UNL     1       8.144   8.178  18.084  0.00  0.00    +0.000 A 
ATOM     27  C   UNL     1       7.237   7.881  17.070  0.00  0.00    +0.000 A 
ATOM     28  C   UNL     1       6.610   6.634  17.035  0.00  0.00    +0.000 A 
ENDBRANCH  22  23
ENDBRANCH  20  22
ENDBRANCH   2  16
TORSDOF 4
ENDMDL
MODEL 3
REMARK VINA RESULT:      -7.7      2.308      3.317
REMARK  Name = 
REMARK  4 active torsions:
REMARK  status: ('A' for Active; 'I' for Inactive)
REMARK    1  A    between atoms: C_2  and  C_3
REMARK    2  A    between atoms: N_7  and  C_8
REMARK    3  A    between atoms: C_8  and  C_9
REMARK    4  A    between atoms: N_19  and  C_20
REMARK                            x       y       z     vdW  Elec       q    Type
REMARK                         _______ _______ _______ _____ _____    ______ ____
ROOT
ATOM      1  O   UNL     1       2.875   8.258  17.842  0.00  0.00    +0.000 OA
ATOM      2  C   UNL     1       2.175   7.955  18.804  0.00  0.00    +0.000 C 
ATOM      3  N   UNL     1       1.395   8.854  19.531  0.00  0.00    +0.000 N 
ATOM      4  C   UNL     1       0.492   8.497  20.648  0.00  0.00    +0.000 C 
ATOM      5  C   UNL     1       0.212   9.620  21.655  0.00  0.00    +0.000 C 
ATOM      6  N   UNL     1      -0.151  10.819  20.900  0.00  0.00    +0.000 N 
ATOM      7  C   UNL     1       0.974  11.283  20.068  0.00  0.00    +0.000 C 
ATOM      8  C   UNL     1       1.249  10.216  18.991  0.00  0.00    +0.000 C 
ENDROOT
BRANCH   6   9
ATOM      9  C   UNL     1      -1.062  11.746  21.395  0.00  0.00    +0.000 A 
ATOM     10  C   UNL     1      -1.059  12.116  22.751  0.00  0.00    +0.000 A 
ATOM     11  C   UNL     1      -1.983  13.030  23.274  0.00  0.00    +0.000 A 
ATOM     12  C   UNL     1      -2.947  13.601  22.453  0.00  0.00    +0.000 A 
ATOM     13  C   UNL     1      -2.988  13.234  21.104  0.00  0.00    +0.000 A 
ATOM     14  C   UNL     1      -2.073  12.320  20.587  0.00  0.00    +0.000 A 
ATOM     15 CL   UNL     1      -2.342  11.834  18.938  0.00  0.00    +0.000 Cl
ENDBRANCH   6   9
BRANCH   2  16
ATOM     16  C   UNL     1       2.205   6.543  19.211  0.00  0.00    +0.000 A 
ATOM     17  C   UNL     1       2.042   6.122  20.530  0.00  0.00    +0.000 A 
ATOM     18  C   UNL     1       2.307   4.793  20.846  0.00  0.00    +0.000 A 
ATOM     19  C   UNL     1       2.720   3.929  19.843  0.00  0.00    +0.000 A 
ATOM     20  N   UNL     1       2.813   4.344  18.556  0.00  0.00    +0.000 N 
ATOM     21  C   UNL     1       2.499   5.616  18.221  0.00  0.00    +0.000 A 
BRANCH  20  22
ATOM     22  C   UNL     1       3.440   3.469  17.535  0.00  0.00    +0.000 C 
BRANCH  22  23
ATOM     23  C   UNL     1       4.788   4.006  17.119  0.00  0.00    +0.000 A 
ATOM     24  C   UNL     1       5.063   4.240  15.763  0.00  0.00    +0.000 A 
ATOM     25  C   UNL     1       6.328   4.676  15.363  0.00  0.00    +0.000 A 
ATOM     26  C   UNL     1       7.327   4.885  16.311  0.00  0.00    +0.000 A 
ATOM     27  C   UNL     1       7.056   4.688  17.663  0.00  0.00    +0.000 A 
ATOM     28  C   UNL     1       5.792   4.256  18.067  0.00  0.00    +0.000 A 
ENDBRANCH  22  23
ENDBRANCH  20  22
ENDBRANCH   2  16
TORSDOF 4
ENDMDL
MODEL 4
REMARK VINA RESULT:      -7.6      3.604      5.648
REMARK  Name = 
REMARK  4 active torsions:
REMARK  status: ('A' for Active; 'I' for Inactive)
REMARK    1  A    between atoms: C_2  and  C_3
REMARK    2  A    between atoms: N_7  and  C_8
REMARK    3  A    between atoms: C_8  and  C_9
REMARK    4  A    between atoms: N_19  and  C_20
REMARK                            x       y       z     vdW  Elec       q    Type
REMARK                         _______ _______ _______ _____ _____    ______ ____
ROOT
ATOM      1  O   UNL     1      -0.553   8.130  21.828  0.00  0.00    +0.000 OA
ATOM      2  C   UNL     1      -0.096   9.157  21.331  0.00  0.00    +0.000 C 
ATOM      3  N   UNL     1      -0.401  10.448  21.760  0.00  0.00    +0.000 N 
ATOM      4  C   UNL     1       0.192  11.693  21.222  0.00  0.00    +0.000 C 
ATOM      5  C   UNL     1      -0.665  12.955  21.381  0.00  0.00    +0.000 C 
ATOM      6  N   UNL     1      -1.122  13.015  22.769  0.00  0.00    +0.000 N 
ATOM      7  C   UNL     1      -2.003  11.877  23.088  0.00  0.00    +0.000 C 
ATOM      8  C   UNL     1      -1.166  10.585  23.011  0.00  0.00    +0.000 C 
ENDROOT
BRANCH   6   9
ATOM      9  C   UNL     1      -1.310  14.228  23.425  0.00  0.00    +0.000 A 
ATOM     10  C   UNL     1      -2.458  14.465  24.200  0.00  0.00    +0.000 A 
ATOM     11  C   UNL     1      -2.676  15.687  24.849  0.00  0.00    +0.000 A 
ATOM     12  C   UNL     1      -1.750  16.717  24.736  0.00  0.00    +0.000 A 
ATOM     13  C   UNL     1      -0.609  16.516  23.952  0.00  0.00    +0.000 A 
ATOM     14  C   UNL     1      -0.397  15.303  23.302  0.00  0.00    +0.000 A 
ATOM     15 CL   UNL     1       0.975  15.250  22.232  0.00  0.00    +0.000 Cl
ENDBRANCH   6   9
BRANCH   2  16
ATOM     16  C   UNL     1       0.813   8.978  20.189  0.00  0.00    +0.000 A 
ATOM     17  C   UNL     1       0.677   9.673  18.989  0.00  0.00    +0.000 A 
ATOM     18  C   UNL     1       1.444   9.276  17.896  0.00  0.00    +0.000 A 
ATOM     19  C   UNL     1       2.318   8.209  18.036  0.00  0.00    +0.000 A 
ATOM     20  N   UNL     1       2.478   7.587  19.229  0.00  0.00    +0.000 N 
ATOM     21  C   UNL     1       1.787   8.000  20.316  0.00  0.00    +0.000 A 
BRANCH  20  22
ATOM     22  C   UNL     1       3.264   6.331  19.316  0.00  0.00    +0.000 C 
BRANCH  22  23
ATOM     23  C   UNL     1       2.355   5.126  19.341  0.00  0.00    +0.000 A 
ATOM     24  C   UNL     1       1.875   4.634  20.564  0.00  0.00    +0.000 A 
ATOM     25  C   UNL     1       1.086   3.483  20.603  0.00  0.00    +0.000 A 
ATOM     26  C   UNL     1       0.765   2.816  19.423  0.00  0.00    +0.000 A 
ATOM     27  C   UNL     1       1.207   3.314  18.200  0.00  0.00    +0.000 A 
ATOM     28  C   UNL     1       1.993   4.467  18.156  0.00  0.00    +0.000 A 
ENDBRANCH  22  23
ENDBRANCH  20  22
ENDBRANCH   2  16
TORSDOF 4
ENDMDL
MODEL 5
REMARK VINA RESULT:      -7.6      3.597      5.640
REMARK  Name = 
REMARK  4 active torsions:
REMARK  status: ('A' for Active; 'I' for Inactive)
REMARK    1  A    between atoms: C_2  and  C_3
REMARK    2  A    between atoms: N_7  and  C_8
REMARK    3  A    between atoms: C_8  and  C_9
REMARK    4  A    between atoms: N_19  and  C_20
REMARK                            x       y       z     vdW  Elec       q    Type
REMARK                         _______ _______ _______ _____ _____    ______ ____
ROOT
ATOM      1  O   UNL     1      -0.412   8.266  22.075  0.00  0.00    +0.000 OA
ATOM      2  C   UNL     1      -0.130   9.288  21.456  0.00  0.00    +0.000 C 
ATOM      3  N   UNL     1      -0.567  10.567  21.798  0.00  0.00    +0.000 N 
ATOM      4  C   UNL     1      -0.183  11.818  21.106  0.00  0.00    +0.000 C 
ATOM      5  C   UNL     1      -1.182  12.975  21.230  0.00  0.00    +0.000 C 
ATOM      6  N   UNL     1      -1.537  13.111  22.643  0.00  0.00    +0.000 N 
ATOM      7  C   UNL     1      -2.236  11.910  23.133  0.00  0.00    +0.000 C 
ATOM      8  C   UNL     1      -1.247  10.728  23.094  0.00  0.00    +0.000 C 
ENDROOT
BRANCH   6   9
ATOM      9  C   UNL     1      -1.830  14.349  23.206  0.00  0.00    +0.000 A 
ATOM     10  C   UNL     1      -0.998  14.917  24.187  0.00  0.00    +0.000 A 
ATOM     11  C   UNL     1      -1.289  16.151  24.783  0.00  0.00    +0.000 A 
ATOM     12  C   UNL     1      -2.430  16.855  24.418  0.00  0.00    +0.000 A 
ATOM     13  C   UNL     1      -3.287  16.303  23.462  0.00  0.00    +0.000 A 
ATOM     14  C   UNL     1      -3.001  15.073  22.875  0.00  0.00    +0.000 A 
ATOM     15 CL   UNL     1      -4.233  14.432  21.827  0.00  0.00    +0.000 Cl
ENDBRANCH   6   9
BRANCH   2  16
ATOM     16  C   UNL     1       0.704   9.113  20.258  0.00  0.00    +0.000 A 
ATOM     17  C   UNL     1       0.463   9.773  19.055  0.00  0.00    +0.000 A 
ATOM     18  C   UNL     1       1.167   9.377  17.921  0.00  0.00    +0.000 A 
ATOM     19  C   UNL     1       2.087   8.344  18.024  0.00  0.00    +0.000 A 
ATOM     20  N   UNL     1       2.350   7.757  19.217  0.00  0.00    +0.000 N 
ATOM     21  C   UNL     1       1.720   8.173  20.339  0.00  0.00    +0.000 A 
BRANCH  20  22
ATOM     22  C   UNL     1       3.185   6.532  19.276  0.00  0.00    +0.000 C 
BRANCH  22  23
ATOM     23  C   UNL     1       2.323   5.296  19.367  0.00  0.00    +0.000 A 
ATOM     24  C   UNL     1       1.933   4.802  20.621  0.00  0.00    +0.000 A 
ATOM     25  C   UNL     1       1.190   3.624  20.717  0.00  0.00    +0.000 A 
ATOM     26  C   UNL     1       0.826   2.932  19.565  0.00  0.00    +0.000 A 
ATOM     27  C   UNL     1       1.178   3.430  18.313  0.00  0.00    +0.000 A 
ATOM     28  C   UNL     1       1.918   4.609  18.212  0.00  0.00    +0.000 A 
ENDBRANCH  22  23
ENDBRANCH  20  22
ENDBRANCH   2  16
TORSDOF 4
ENDMDL
MODEL 6
REMARK VINA RESULT:      -7.5      1.136      1.716
REMARK  Name = 
REMARK  4 active torsions:
REMARK  status: ('A' for Active; 'I' for Inactive)
REMARK    1  A    between atoms: C_2  and  C_3
REMARK    2  A    between atoms: N_7  and  C_8
REMARK    3  A    between atoms: C_8  and  C_9
REMARK    4  A    between atoms: N_19  and  C_20
REMARK                            x       y       z     vdW  Elec       q    Type
REMARK                         _______ _______ _______ _____ _____    ______ ____
ROOT
ATOM      1  O   UNL     1       2.438   5.776  20.761  0.00  0.00    +0.000 OA
ATOM      2  C   UNL     1       2.328   6.336  19.673  0.00  0.00    +0.000 C 
ATOM      3  N   UNL     1       1.826   7.624  19.493  0.00  0.00    +0.000 N 
ATOM      4  C   UNL     1       1.750   8.341  18.200  0.00  0.00    +0.000 C 
ATOM      5  C   UNL     1       0.673   9.430  18.111  0.00  0.00    +0.000 C 
ATOM      6  N   UNL     1       0.786  10.271  19.302  0.00  0.00    +0.000 N 
ATOM      7  C   UNL     1       0.495   9.503  20.525  0.00  0.00    +0.000 C 
ATOM      8  C   UNL     1       1.594   8.437  20.698  0.00  0.00    +0.000 C 
ENDROOT
BRANCH   6   9
ATOM      9  C   UNL     1       0.497  11.632  19.265  0.00  0.00    +0.000 A 
ATOM     10  C   UNL     1      -0.728  12.128  19.742  0.00  0.00    +0.000 A 
ATOM     11  C   UNL     1      -1.048  13.491  19.692  0.00  0.00    +0.000 A 
ATOM     12  C   UNL     1      -0.148  14.403  19.155  0.00  0.00    +0.000 A 
ATOM     13  C   UNL     1       1.070  13.935  18.652  0.00  0.00    +0.000 A 
ATOM     14  C   UNL     1       1.383  12.578  18.696  0.00  0.00    +0.000 A 
ATOM     15 CL   UNL     1       2.855  12.118  17.889  0.00  0.00    +0.000 Cl
ENDBRANCH   6   9
BRANCH   2  16
ATOM     16  C   UNL     1       2.738   5.556  18.496  0.00  0.00    +0.000 A 
ATOM     17  C   UNL     1       2.253   4.280  18.217  0.00  0.00    +0.000 A 
ATOM     18  C   UNL     1       2.863   3.537  17.209  0.00  0.00    +0.000 A 
ATOM     19  C   UNL     1       3.928   4.090  16.514  0.00  0.00    +0.000 A 
ATOM     20  N   UNL     1       4.344   5.356  16.760  0.00  0.00    +0.000 N 
ATOM     21  C   UNL     1       3.722   6.113  17.692  0.00  0.00    +0.000 A 
BRANCH  20  22
ATOM     22  C   UNL     1       5.600   5.859  16.151  0.00  0.00    +0.000 C 
BRANCH  22  23
ATOM     23  C   UNL     1       6.576   6.301  17.214  0.00  0.00    +0.000 A 
ATOM     24  C   UNL     1       7.110   7.598  17.182  0.00  0.00    +0.000 A 
ATOM     25  C   UNL     1       8.062   7.994  18.123  0.00  0.00    +0.000 A 
ATOM     26  C   UNL     1       8.485   7.103  19.106  0.00  0.00    +0.000 A 
ATOM     27  C   UNL     1       7.938   5.824  19.169  0.00  0.00    +0.000 A 
ATOM     28  C   UNL     1       6.983   5.425  18.231  0.00  0.00    +0.000 A 
ENDBRANCH  22  23
ENDBRANCH  20  22
ENDBRANCH   2  16
TORSDOF 4
ENDMDL
MODEL 7
REMARK VINA RESULT:      -7.4      2.795      3.646
REMARK  Name = 
REMARK  4 active torsions:
REMARK  status: ('A' for Active; 'I' for Inactive)
REMARK    1  A    between atoms: C_2  and  C_3
REMARK    2  A    between atoms: N_7  and  C_8
REMARK    3  A    between atoms: C_8  and  C_9
REMARK    4  A    between atoms: N_19  and  C_20
REMARK                            x       y       z     vdW  Elec       q    Type
REMARK                         _______ _______ _______ _____ _____    ______ ____
ROOT
ATOM      1  O   UNL     1       2.288   9.869  17.971  0.00  0.00    +0.000 OA
ATOM      2  C   UNL     1       1.654   9.368  18.895  0.00  0.00    +0.000 C 
ATOM      3  N   UNL     1       0.753  10.060  19.704  0.00  0.00    +0.000 N 
ATOM      4  C   UNL     1      -0.072   9.460  20.777  0.00  0.00    +0.000 C 
ATOM      5  C   UNL     1      -0.511  10.422  21.889  0.00  0.00    +0.000 C 
ATOM      6  N   UNL     1      -1.062  11.618  21.254  0.00  0.00    +0.000 N 
ATOM      7  C   UNL     1      -0.032  12.331  20.477  0.00  0.00    +0.000 C 
ATOM      8  C   UNL     1       0.392  11.430  19.301  0.00  0.00    +0.000 C 
ENDROOT
BRANCH   6   9
ATOM      9  C   UNL     1      -2.100  12.340  21.835  0.00  0.00    +0.000 A 
ATOM     10  C   UNL     1      -2.078  12.675  23.200  0.00  0.00    +0.000 A 
ATOM     11  C   UNL     1      -3.124  13.381  23.808  0.00  0.00    +0.000 A 
ATOM     12  C   UNL     1      -4.232  13.771  23.067  0.00  0.00    +0.000 A 
ATOM     13  C   UNL     1      -4.291  13.432  21.711  0.00  0.00    +0.000 A 
ATOM     14  C   UNL     1      -3.254  12.724  21.110  0.00  0.00    +0.000 A 
ATOM     15 CL   UNL     1      -3.534  12.229  19.464  0.00  0.00    +0.000 Cl
ENDBRANCH   6   9
BRANCH   2  16
ATOM     16  C   UNL     1       1.906   7.945  19.161  0.00  0.00    +0.000 A 
ATOM     17  C   UNL     1       1.587   7.323  20.366  0.00  0.00    +0.000 A 
ATOM     18  C   UNL     1       2.064   6.036  20.603  0.00  0.00    +0.000 A 
ATOM     19  C   UNL     1       2.835   5.413  19.633  0.00  0.00    +0.000 A 
ATOM     20  N   UNL     1       3.082   6.012  18.443  0.00  0.00    +0.000 N 
ATOM     21  C   UNL     1       2.574   7.236  18.173  0.00  0.00    +0.000 A 
BRANCH  20  22
ATOM     22  C   UNL     1       4.065   5.421  17.501  0.00  0.00    +0.000 C 
BRANCH  22  23
ATOM     23  C   UNL     1       5.466   5.877  17.826  0.00  0.00    +0.000 A 
ATOM     24  C   UNL     1       6.171   5.282  18.883  0.00  0.00    +0.000 A 
ATOM     25  C   UNL     1       7.443   5.741  19.232  0.00  0.00    +0.000 A 
ATOM     26  C   UNL     1       8.024   6.793  18.528  0.00  0.00    +0.000 A 
ATOM     27  C   UNL     1       7.348   7.370  17.456  0.00  0.00    +0.000 A 
ATOM     28  C   UNL     1       6.077   6.912  17.101  0.00  0.00    +0.000 A 
ENDBRANCH  22  23
ENDBRANCH  20  22
ENDBRANCH   2  16
TORSDOF 4
ENDMDL
MODEL 8
REMARK VINA RESULT:      -7.3      2.607      8.052
REMARK  Name = 
REMARK  4 active torsions:
REMARK  status: ('A' for Active; 'I' for Inactive)
REMARK    1  A    between atoms: C_2  and  C_3
REMARK    2  A    between atoms: N_7  and  C_8
REMARK    3  A    between atoms: C_8  and  C_9
REMARK    4  A    between atoms: N_19  and  C_20
REMARK                            x       y       z     vdW  Elec       q    Type
REMARK                         _______ _______ _______ _____ _____    ______ ____
ROOT
ATOM      1  O   UNL     1      -0.125   9.505  21.738  0.00  0.00    +0.000 OA
ATOM      2  C   UNL     1       0.236   9.720  20.584  0.00  0.00    +0.000 C 
ATOM      3  N   UNL     1       1.078   8.887  19.849  0.00  0.00    +0.000 N 
ATOM      4  C   UNL     1       1.468   9.092  18.436  0.00  0.00    +0.000 C 
ATOM      5  C   UNL     1       2.799   8.454  18.019  0.00  0.00    +0.000 C 
ATOM      6  N   UNL     1       2.797   7.067  18.484  0.00  0.00    +0.000 N 
ATOM      7  C   UNL     1       2.753   7.001  19.956  0.00  0.00    +0.000 C 
ATOM      8  C   UNL     1       1.398   7.568  20.423  0.00  0.00    +0.000 C 
ENDROOT
BRANCH   6   9
ATOM      9  C   UNL     1       3.439   6.058  17.775  0.00  0.00    +0.000 A 
ATOM     10  C   UNL     1       4.579   6.327  16.997  0.00  0.00    +0.000 A 
ATOM     11  C   UNL     1       5.226   5.329  16.257  0.00  0.00    +0.000 A 
ATOM     12  C   UNL     1       4.747   4.025  16.268  0.00  0.00    +0.000 A 
ATOM     13  C   UNL     1       3.601   3.733  17.016  0.00  0.00    +0.000 A 
ATOM     14  C   UNL     1       2.955   4.728  17.745  0.00  0.00    +0.000 A 
ATOM     15 CL   UNL     1       1.454   4.260  18.493  0.00  0.00    +0.000 Cl
ENDBRANCH   6   9
BRANCH   2  16
ATOM     16  C   UNL     1      -0.249  10.966  19.973  0.00  0.00    +0.000 A 
ATOM     17  C   UNL     1      -1.028  10.999  18.819  0.00  0.00    +0.000 A 
ATOM     18  C   UNL     1      -1.250  12.224  18.195  0.00  0.00    +0.000 A 
ATOM     19  C   UNL     1      -0.692  13.371  18.741  0.00  0.00    +0.000 A 
ATOM     20  N   UNL     1       0.012  13.324  19.898  0.00  0.00    +0.000 N 
ATOM     21  C   UNL     1       0.183  12.151  20.550  0.00  0.00    +0.000 A 
BRANCH  20  22
ATOM     22  C   UNL     1       0.762  14.517  20.362  0.00  0.00    +0.000 C 
BRANCH  22  23
ATOM     23  C   UNL     1       1.849  14.886  19.381  0.00  0.00    +0.000 A 
ATOM     24  C   UNL     1       1.790  16.109  18.695  0.00  0.00    +0.000 A 
ATOM     25  C   UNL     1       2.755  16.431  17.740  0.00  0.00    +0.000 A 
ATOM     26  C   UNL     1       3.789  15.540  17.463  0.00  0.00    +0.000 A 
ATOM     27  C   UNL     1       3.877  14.338  18.161  0.00  0.00    +0.000 A 
ATOM     28  C   UNL     1       2.916  14.013  19.120  0.00  0.00    +0.000 A 
ENDBRANCH  22  23
ENDBRANCH  20  22
ENDBRANCH   2  16
TORSDOF 4
ENDMDL
MODEL 9
REMARK VINA RESULT:      -7.3      2.389      3.312
REMARK  Name = 
REMARK  4 active torsions:
REMARK  status: ('A' for Active; 'I' for Inactive)
REMARK    1  A    between atoms: C_2  and  C_3
REMARK    2  A    between atoms: N_7  and  C_8
REMARK    3  A    between atoms: C_8  and  C_9
REMARK    4  A    between atoms: N_19  and  C_20
REMARK                            x       y       z     vdW  Elec       q    Type
REMARK                         _______ _______ _______ _____ _____    ______ ____
ROOT
ATOM      1  O   UNL     1       2.712   8.482  17.409  0.00  0.00    +0.000 OA
ATOM      2  C   UNL     1       2.247   8.189  18.508  0.00  0.00    +0.000 C 
ATOM      3  N   UNL     1       1.475   9.043  19.294  0.00  0.00    +0.000 N 
ATOM      4  C   UNL     1       0.849   8.686  20.587  0.00  0.00    +0.000 C 
ATOM      5  C   UNL     1       0.576   9.861  21.535  0.00  0.00    +0.000 C 
ATOM      6  N   UNL     1      -0.097  10.909  20.769  0.00  0.00    +0.000 N 
ATOM      7  C   UNL     1       0.778  11.434  19.705  0.00  0.00    +0.000 C 
ATOM      8  C   UNL     1       1.024  10.306  18.684  0.00  0.00    +0.000 C 
ENDROOT
BRANCH   6   9
ATOM      9  C   UNL     1      -1.041  11.748  21.351  0.00  0.00    +0.000 A 
ATOM     10  C   UNL     1      -1.038  11.997  22.735  0.00  0.00    +0.000 A 
ATOM     11  C   UNL     1      -1.995  12.819  23.344  0.00  0.00    +0.000 A 
ATOM     12  C   UNL     1      -2.992  13.417  22.584  0.00  0.00    +0.000 A 
ATOM     13  C   UNL     1      -3.033  13.169  21.208  0.00  0.00    +0.000 A 
ATOM     14  C   UNL     1      -2.086  12.345  20.605  0.00  0.00    +0.000 A 
ATOM     15 CL   UNL     1      -2.354  11.995  18.922  0.00  0.00    +0.000 Cl
ENDBRANCH   6   9
BRANCH   2  16
ATOM     16  C   UNL     1       2.570   6.847  19.013  0.00  0.00    +0.000 A 
ATOM     17  C   UNL     1       1.794   6.179  19.958  0.00  0.00    +0.000 A 
ATOM     18  C   UNL     1       2.296   5.016  20.536  0.00  0.00    +0.000 A 
ATOM     19  C   UNL     1       3.548   4.558  20.152  0.00  0.00    +0.000 A 
ATOM     20  N   UNL     1       4.259   5.189  19.187  0.00  0.00    +0.000 N 
ATOM     21  C   UNL     1       3.758   6.284  18.571  0.00  0.00    +0.000 A 
BRANCH  20  22
ATOM     22  C   UNL     1       5.668   4.805  18.928  0.00  0.00    +0.000 C 
BRANCH  22  23
ATOM     23  C   UNL     1       5.914   4.616  17.451  0.00  0.00    +0.000 A 
ATOM     24  C   UNL     1       7.075   5.135  16.859  0.00  0.00    +0.000 A 
ATOM     25  C   UNL     1       7.279   5.020  15.482  0.00  0.00    +0.000 A 
ATOM     26  C   UNL     1       6.331   4.383  14.686  0.00  0.00    +0.000 A 
ATOM     27  C   UNL     1       5.190   3.834  15.266  0.00  0.00    +0.000 A 
ATOM     28  C   UNL     1       4.983   3.944  16.643  0.00  0.00    +0.000 A 
ENDBRANCH  22  23
ENDBRANCH  20  22
ENDBRANCH   2  16
TORSDOF 4
ENDMDL
