MODEL 1
REMARK VINA RESULT:      -6.4      0.000      0.000
REMARK  Name = 
REMARK  11 active torsions:
REMARK  status: ('A' for Active; 'I' for Inactive)
REMARK    1  A    between atoms: C_1  and  C_2
REMARK    2  A    between atoms: C_2  and  C_3
REMARK    3  A    between atoms: C_3  and  C_4
REMARK    4  A    between atoms: N_6  and  C_7
REMARK    5  A    between atoms: C_14  and  C_15
REMARK    6  A    between atoms: C_17  and  O_18
REMARK    7  A    between atoms: O_18  and  C_19
REMARK    8  A    between atoms: C_20  and  O_21
REMARK    9  A    between atoms: C_22  and  N_23
REMARK   10  A    between atoms: C_27  and  C_28
REMARK   11  A    between atoms: C_30  and  N_31
REMARK                            x       y       z     vdW  Elec       q    Type
REMARK                         _______ _______ _______ _____ _____    ______ ____
ROOT
ATOM      1  C   UNL     1      -3.485  10.803  18.199  0.00  0.00    +0.000 A 
ATOM      2  N   UNL     1      -4.813  10.830  18.379  0.00  0.00    +0.000 NA
ATOM      3  N   UNL     1      -5.034  11.902  19.178  0.00  0.00    +0.000 N 
ATOM      4  C   UNL     1      -3.874  12.524  19.537  0.00  0.00    +0.000 A 
ATOM      5  C   UNL     1      -2.857  11.858  18.893  0.00  0.00    +0.000 A 
ATOM      6  C   UNL     1      -1.454  12.303  19.067  0.00  0.00    +0.000 C 
ATOM      7  C   UNL     1      -1.374  13.363  20.144  0.00  0.00    +0.000 C 
ATOM      8  C   UNL     1      -2.455  13.918  20.749  0.00  0.00    +0.000 C 
ATOM      9  O   UNL     1      -3.767  13.552  20.383  0.00  0.00    +0.000 OA
ENDROOT
BRANCH   6  10
ATOM     10  C   UNL     1      -0.642  11.081  19.460  0.00  0.00    +0.000 A 
ATOM     11  C   UNL     1      -0.804  10.481  20.726  0.00  0.00    +0.000 A 
ATOM     12  C   UNL     1      -0.025   9.392  21.113  0.00  0.00    +0.000 A 
ATOM     13  C   UNL     1       0.915   8.871  20.216  0.00  0.00    +0.000 A 
ATOM     14  C   UNL     1       1.084   9.466  18.968  0.00  0.00    +0.000 A 
ATOM     15  C   UNL     1       0.331  10.579  18.586  0.00  0.00    +0.000 A 
BRANCH  14  16
ATOM     16  N   UNL     1       2.013   8.920  18.001  0.00  0.00    +0.000 N 
ATOM     17  O   UNL     1       2.548   9.706  17.209  0.00  0.00    +0.000 OA
ATOM     18  O   UNL     1       2.139   7.689  17.989  0.00  0.00    +0.000 OA
ENDBRANCH  14  16
BRANCH  12  19
ATOM     19  O   UNL     1      -0.109   8.762  22.329  0.00  0.00    +0.000 OA
ATOM     20  C   UNL     1      -0.053   9.603  23.481  0.00  0.00    +0.000 C 
ENDBRANCH  12  19
BRANCH  13  21
ATOM     21  O   UNL     1       1.631   7.766  20.584  0.00  0.00    +0.000 OA
ATOM     22  H   UNL     1       0.977   7.047  20.693  0.00  0.00    +0.000 HD
ENDBRANCH  13  21
ENDBRANCH   6  10
BRANCH   3  23
ATOM     23  C   UNL     1      -6.383  12.249  19.570  0.00  0.00    +0.000 C 
ATOM     24  C   UNL     1      -6.654  12.063  21.063  0.00  0.00    +0.000 C 
ATOM     25  C   UNL     1      -7.916  12.875  21.308  0.00  0.00    +0.000 C 
ATOM     26  C   UNL     1      -7.897  14.007  20.282  0.00  0.00    +0.000 C 
ATOM     27  C   UNL     1      -6.741  13.716  19.329  0.00  0.00    +0.000 C 
ENDBRANCH   3  23
BRANCH   8  28
ATOM     28  N   UNL     1      -2.406  14.837  21.770  0.00  0.00    +0.000 N 
ATOM     29  H   UNL     1      -3.186  14.830  22.422  0.00  0.00    +0.000 HD
ATOM     30  H   UNL     1      -1.498  14.873  22.227  0.00  0.00    +0.000 HD
ENDBRANCH   8  28
BRANCH   7  31
ATOM     31  C   UNL     1       0.038  13.701  20.592  0.00  0.00    +0.000 C 
ATOM     32  N   UNL     1       1.210  13.982  20.964  0.00  0.00    +0.000 NA
ENDBRANCH   7  31
BRANCH   1  33
ATOM     33  C   UNL     1      -2.852   9.705  17.405  0.00  0.00    +0.000 C 
BRANCH  33  35
ATOM     34  C   UNL     1      -3.298  10.048  14.970  0.00  0.00    +0.000 C 
ATOM     35  C   UNL     1      -2.268  10.172  16.082  0.00  0.00    +0.000 C 
ENDBRANCH  33  35
ENDBRANCH   1  33
TORSDOF 9
ENDMDL
MODEL 2
REMARK VINA RESULT:      -6.4      0.950      1.318
REMARK  Name = 
REMARK  11 active torsions:
REMARK  status: ('A' for Active; 'I' for Inactive)
REMARK    1  A    between atoms: C_1  and  C_2
REMARK    2  A    between atoms: C_2  and  C_3
REMARK    3  A    between atoms: C_3  and  C_4
REMARK    4  A    between atoms: N_6  and  C_7
REMARK    5  A    between atoms: C_14  and  C_15
REMARK    6  A    between atoms: C_17  and  O_18
REMARK    7  A    between atoms: O_18  and  C_19
REMARK    8  A    between atoms: C_20  and  O_21
REMARK    9  A    between atoms: C_22  and  N_23
REMARK   10  A    between atoms: C_27  and  C_28
REMARK   11  A    between atoms: C_30  and  N_31
REMARK                            x       y       z     vdW  Elec       q    Type
REMARK                         _______ _______ _______ _____ _____    ______ ____
ROOT
ATOM      1  C   UNL     1      -2.884  11.116  18.567  0.00  0.00    +0.000 A 
ATOM      2  N   UNL     1      -4.146  11.418  18.903  0.00  0.00    +0.000 NA
ATOM      3  N   UNL     1      -4.054  12.583  19.590  0.00  0.00    +0.000 N 
ATOM      4  C   UNL     1      -2.762  12.998  19.730  0.00  0.00    +0.000 A 
ATOM      5  C   UNL     1      -1.984  12.088  19.050  0.00  0.00    +0.000 A 
ATOM      6  C   UNL     1      -0.513  12.266  18.999  0.00  0.00    +0.000 C 
ATOM      7  C   UNL     1      -0.092  13.386  19.926  0.00  0.00    +0.000 C 
ATOM      8  C   UNL     1      -0.958  14.195  20.587  0.00  0.00    +0.000 C 
ATOM      9  O   UNL     1      -2.353  14.060  20.428  0.00  0.00    +0.000 OA
ENDROOT
BRANCH   6  10
ATOM     10  C   UNL     1       0.111  10.951  19.434  0.00  0.00    +0.000 A 
ATOM     11  C   UNL     1      -0.017  10.492  20.761  0.00  0.00    +0.000 A 
ATOM     12  C   UNL     1       0.598   9.314  21.179  0.00  0.00    +0.000 A 
ATOM     13  C   UNL     1       1.333   8.561  20.256  0.00  0.00    +0.000 A 
ATOM     14  C   UNL     1       1.470   9.015  18.946  0.00  0.00    +0.000 A 
ATOM     15  C   UNL     1       0.885  10.213  18.528  0.00  0.00    +0.000 A 
BRANCH  14  16
ATOM     16  N   UNL     1       2.183   8.235  17.956  0.00  0.00    +0.000 N 
ATOM     17  O   UNL     1       2.174   7.003  18.080  0.00  0.00    +0.000 OA
ATOM     18  O   UNL     1       2.817   8.869  17.105  0.00  0.00    +0.000 OA
ENDBRANCH  14  16
BRANCH  12  19
ATOM     19  O   UNL     1       0.535   8.806  22.453  0.00  0.00    +0.000 OA
ATOM     20  C   UNL     1      -0.186   9.585  23.407  0.00  0.00    +0.000 C 
ENDBRANCH  12  19
BRANCH  13  21
ATOM     21  O   UNL     1       1.881   7.377  20.662  0.00  0.00    +0.000 OA
ATOM     22  H   UNL     1       2.113   6.893  19.844  0.00  0.00    +0.000 HD
ENDBRANCH  13  21
ENDBRANCH   6  10
BRANCH   3  23
ATOM     23  C   UNL     1      -5.249  13.221  20.098  0.00  0.00    +0.000 C 
ATOM     24  C   UNL     1      -6.408  13.231  19.100  0.00  0.00    +0.000 C 
ATOM     25  C   UNL     1      -7.628  13.522  19.963  0.00  0.00    +0.000 C 
ATOM     26  C   UNL     1      -7.315  12.953  21.345  0.00  0.00    +0.000 C 
ATOM     27  C   UNL     1      -5.848  12.529  21.324  0.00  0.00    +0.000 C 
ENDBRANCH   3  23
BRANCH   8  28
ATOM     28  N   UNL     1      -0.600  15.179  21.478  0.00  0.00    +0.000 N 
ATOM     29  H   UNL     1      -0.058  15.953  21.104  0.00  0.00    +0.000 HD
ATOM     30  H   UNL     1      -1.371  15.474  22.071  0.00  0.00    +0.000 HD
ENDBRANCH   8  28
BRANCH   7  31
ATOM     31  C   UNL     1       1.408  13.483  20.156  0.00  0.00    +0.000 C 
ATOM     32  N   UNL     1       2.651  13.563  20.348  0.00  0.00    +0.000 NA
ENDBRANCH   7  31
BRANCH   1  33
ATOM     33  C   UNL     1      -2.579   9.847  17.839  0.00  0.00    +0.000 C 
BRANCH  33  35
ATOM     34  C   UNL     1      -3.291  10.608  15.567  0.00  0.00    +0.000 C 
ATOM     35  C   UNL     1      -2.141  10.063  16.399  0.00  0.00    +0.000 C 
ENDBRANCH  33  35
ENDBRANCH   1  33
TORSDOF 9
ENDMDL
MODEL 3
REMARK VINA RESULT:      -6.4     10.244     13.276
REMARK  Name = 
REMARK  11 active torsions:
REMARK  status: ('A' for Active; 'I' for Inactive)
REMARK    1  A    between atoms: C_1  and  C_2
REMARK    2  A    between atoms: C_2  and  C_3
REMARK    3  A    between atoms: C_3  and  C_4
REMARK    4  A    between atoms: N_6  and  C_7
REMARK    5  A    between atoms: C_14  and  C_15
REMARK    6  A    between atoms: C_17  and  O_18
REMARK    7  A    between atoms: O_18  and  C_19
REMARK    8  A    between atoms: C_20  and  O_21
REMARK    9  A    between atoms: C_22  and  N_23
REMARK   10  A    between atoms: C_27  and  C_28
REMARK   11  A    between atoms: C_30  and  N_31
REMARK                            x       y       z     vdW  Elec       q    Type
REMARK                         _______ _______ _______ _____ _____    ______ ____
ROOT
ATOM      1  C   UNL     1       9.394  14.758  22.857  0.00  0.00    +0.000 A 
ATOM      2  N   UNL     1       8.677  14.137  23.804  0.00  0.00    +0.000 NA
ATOM      3  N   UNL     1       8.547  12.862  23.363  0.00  0.00    +0.000 N 
ATOM      4  C   UNL     1       9.129  12.678  22.143  0.00  0.00    +0.000 A 
ATOM      5  C   UNL     1       9.714  13.876  21.804  0.00  0.00    +0.000 A 
ATOM      6  C   UNL     1      10.451  14.004  20.523  0.00  0.00    +0.000 C 
ATOM      7  C   UNL     1      10.247  12.763  19.681  0.00  0.00    +0.000 C 
ATOM      8  C   UNL     1       9.604  11.647  20.109  0.00  0.00    +0.000 C 
ATOM      9  O   UNL     1       9.090  11.556  21.419  0.00  0.00    +0.000 OA
ENDROOT
BRANCH   6  10
ATOM     10  C   UNL     1       9.901  15.228  19.812  0.00  0.00    +0.000 A 
ATOM     11  C   UNL     1      10.747  16.296  19.450  0.00  0.00    +0.000 A 
ATOM     12  C   UNL     1      10.242  17.445  18.845  0.00  0.00    +0.000 A 
ATOM     13  C   UNL     1       8.872  17.525  18.570  0.00  0.00    +0.000 A 
ATOM     14  C   UNL     1       8.031  16.476  18.934  0.00  0.00    +0.000 A 
ATOM     15  C   UNL     1       8.525  15.336  19.571  0.00  0.00    +0.000 A 
BRANCH  14  16
ATOM     16  N   UNL     1       6.617  16.509  18.618  0.00  0.00    +0.000 N 
ATOM     17  O   UNL     1       6.129  15.517  18.063  0.00  0.00    +0.000 OA
ATOM     18  O   UNL     1       6.023  17.567  18.855  0.00  0.00    +0.000 OA
ENDBRANCH  14  16
BRANCH  12  19
ATOM     19  O   UNL     1      10.993  18.532  18.477  0.00  0.00    +0.000 OA
ATOM     20  C   UNL     1      12.033  18.289  17.530  0.00  0.00    +0.000 C 
ENDBRANCH  12  19
BRANCH  13  21
ATOM     21  O   UNL     1       8.396  18.631  17.922  0.00  0.00    +0.000 OA
ATOM     22  H   UNL     1       7.426  18.619  18.047  0.00  0.00    +0.000 HD
ENDBRANCH  13  21
ENDBRANCH   6  10
BRANCH   3  23
ATOM     23  C   UNL     1       7.831  11.889  24.159  0.00  0.00    +0.000 C 
ATOM     24  C   UNL     1       7.795  12.225  25.650  0.00  0.00    +0.000 C 
ATOM     25  C   UNL     1       6.667  11.360  26.192  0.00  0.00    +0.000 C 
ATOM     26  C   UNL     1       5.683  11.177  25.038  0.00  0.00    +0.000 C 
ATOM     27  C   UNL     1       6.351  11.758  23.794  0.00  0.00    +0.000 C 
ENDBRANCH   3  23
BRANCH   8  28
ATOM     28  N   UNL     1       9.355  10.534  19.342  0.00  0.00    +0.000 N 
ATOM     29  H   UNL     1       8.388  10.383  19.064  0.00  0.00    +0.000 HD
ATOM     30  H   UNL     1      10.017  10.423  18.579  0.00  0.00    +0.000 HD
ENDBRANCH   8  28
BRANCH   7  31
ATOM     31  C   UNL     1      10.733  12.890  18.246  0.00  0.00    +0.000 C 
ATOM     32  N   UNL     1      11.135  12.995  17.055  0.00  0.00    +0.000 NA
ENDBRANCH   7  31
BRANCH   1  33
ATOM     33  C   UNL     1       9.693  16.218  22.970  0.00  0.00    +0.000 C 
BRANCH  33  35
ATOM     34  C   UNL     1      11.467  16.771  24.642  0.00  0.00    +0.000 C 
ATOM     35  C   UNL     1      11.169  16.522  23.172  0.00  0.00    +0.000 C 
ENDBRANCH  33  35
ENDBRANCH   1  33
TORSDOF 9
ENDMDL
MODEL 4
REMARK VINA RESULT:      -6.2      2.052      3.270
REMARK  Name = 
REMARK  11 active torsions:
REMARK  status: ('A' for Active; 'I' for Inactive)
REMARK    1  A    between atoms: C_1  and  C_2
REMARK    2  A    between atoms: C_2  and  C_3
REMARK    3  A    between atoms: C_3  and  C_4
REMARK    4  A    between atoms: N_6  and  C_7
REMARK    5  A    between atoms: C_14  and  C_15
REMARK    6  A    between atoms: C_17  and  O_18
REMARK    7  A    between atoms: O_18  and  C_19
REMARK    8  A    between atoms: C_20  and  O_21
REMARK    9  A    between atoms: C_22  and  N_23
REMARK   10  A    between atoms: C_27  and  C_28
REMARK   11  A    between atoms: C_30  and  N_31
REMARK                            x       y       z     vdW  Elec       q    Type
REMARK                         _______ _______ _______ _____ _____    ______ ____
ROOT
ATOM      1  C   UNL     1      -3.962  12.479  19.960  0.00  0.00    +0.000 A 
ATOM      2  N   UNL     1      -5.231  12.408  20.388  0.00  0.00    +0.000 NA
ATOM      3  N   UNL     1      -5.275  13.212  21.478  0.00  0.00    +0.000 N 
ATOM      4  C   UNL     1      -4.058  13.753  21.769  0.00  0.00    +0.000 A 
ATOM      5  C   UNL     1      -3.195  13.326  20.786  0.00  0.00    +0.000 A 
ATOM      6  C   UNL     1      -1.776  13.757  20.808  0.00  0.00    +0.000 C 
ATOM      7  C   UNL     1      -1.474  14.484  22.101  0.00  0.00    +0.000 C 
ATOM      8  C   UNL     1      -2.409  14.813  23.028  0.00  0.00    +0.000 C 
ATOM      9  O   UNL     1      -3.773  14.514  22.830  0.00  0.00    +0.000 OA
ENDROOT
BRANCH   6  10
ATOM     10  C   UNL     1      -0.927  12.504  20.689  0.00  0.00    +0.000 A 
ATOM     11  C   UNL     1      -0.098  12.294  19.567  0.00  0.00    +0.000 A 
ATOM     12  C   UNL     1       0.643  11.123  19.426  0.00  0.00    +0.000 A 
ATOM     13  C   UNL     1       0.582  10.151  20.431  0.00  0.00    +0.000 A 
ATOM     14  C   UNL     1      -0.241  10.349  21.537  0.00  0.00    +0.000 A 
ATOM     15  C   UNL     1      -1.013  11.506  21.669  0.00  0.00    +0.000 A 
BRANCH  14  16
ATOM     16  N   UNL     1      -0.287   9.384  22.616  0.00  0.00    +0.000 N 
ATOM     17  O   UNL     1       0.242   9.697  23.690  0.00  0.00    +0.000 OA
ATOM     18  O   UNL     1      -0.783   8.283  22.351  0.00  0.00    +0.000 OA
ENDBRANCH  14  16
BRANCH  12  19
ATOM     19  O   UNL     1       1.459  10.836  18.361  0.00  0.00    +0.000 OA
ATOM     20  C   UNL     1       2.404  11.843  18.000  0.00  0.00    +0.000 C 
ENDBRANCH  12  19
BRANCH  13  21
ATOM     21  O   UNL     1       1.360   9.033  20.311  0.00  0.00    +0.000 OA
ATOM     22  H   UNL     1       2.202   9.242  20.763  0.00  0.00    +0.000 HD
ENDBRANCH  13  21
ENDBRANCH   6  10
BRANCH   3  23
ATOM     23  C   UNL     1      -6.518  13.389  22.197  0.00  0.00    +0.000 C 
ATOM     24  C   UNL     1      -6.457  12.917  23.650  0.00  0.00    +0.000 C 
ATOM     25  C   UNL     1      -7.660  13.584  24.301  0.00  0.00    +0.000 C 
ATOM     26  C   UNL     1      -7.893  14.882  23.530  0.00  0.00    +0.000 C 
ATOM     27  C   UNL     1      -6.961  14.848  22.322  0.00  0.00    +0.000 C 
ENDBRANCH   3  23
BRANCH   8  28
ATOM     28  N   UNL     1      -2.149  15.418  24.234  0.00  0.00    +0.000 N 
ATOM     29  H   UNL     1      -1.363  15.050  24.765  0.00  0.00    +0.000 HD
ATOM     30  H   UNL     1      -2.158  16.433  24.177  0.00  0.00    +0.000 HD
ENDBRANCH   8  28
BRANCH   7  31
ATOM     31  C   UNL     1       0.005  14.737  22.349  0.00  0.00    +0.000 C 
ATOM     32  N   UNL     1       1.231  14.947  22.555  0.00  0.00    +0.000 NA
ENDBRANCH   7  31
BRANCH   1  33
ATOM     33  C   UNL     1      -3.513  11.664  18.790  0.00  0.00    +0.000 C 
BRANCH  33  35
ATOM     34  C   UNL     1      -4.108  11.198  16.408  0.00  0.00    +0.000 C 
ATOM     35  C   UNL     1      -4.636  11.310  17.829  0.00  0.00    +0.000 C 
ENDBRANCH  33  35
ENDBRANCH   1  33
TORSDOF 9
ENDMDL
MODEL 5
REMARK VINA RESULT:      -6.1      2.212      4.426
REMARK  Name = 
REMARK  11 active torsions:
REMARK  status: ('A' for Active; 'I' for Inactive)
REMARK    1  A    between atoms: C_1  and  C_2
REMARK    2  A    between atoms: C_2  and  C_3
REMARK    3  A    between atoms: C_3  and  C_4
REMARK    4  A    between atoms: N_6  and  C_7
REMARK    5  A    between atoms: C_14  and  C_15
REMARK    6  A    between atoms: C_17  and  O_18
REMARK    7  A    between atoms: O_18  and  C_19
REMARK    8  A    between atoms: C_20  and  O_21
REMARK    9  A    between atoms: C_22  and  N_23
REMARK   10  A    between atoms: C_27  and  C_28
REMARK   11  A    between atoms: C_30  and  N_31
REMARK                            x       y       z     vdW  Elec       q    Type
REMARK                         _______ _______ _______ _____ _____    ______ ____
ROOT
ATOM      1  C   UNL     1      -2.157  12.438  21.984  0.00  0.00    +0.000 A 
ATOM      2  N   UNL     1      -2.773  13.396  22.691  0.00  0.00    +0.000 NA
ATOM      3  N   UNL     1      -3.865  13.723  21.958  0.00  0.00    +0.000 N 
ATOM      4  C   UNL     1      -3.929  13.022  20.789  0.00  0.00    +0.000 A 
ATOM      5  C   UNL     1      -2.857  12.159  20.792  0.00  0.00    +0.000 A 
ATOM      6  C   UNL     1      -2.648  11.236  19.650  0.00  0.00    +0.000 C 
ATOM      7  C   UNL     1      -3.609  11.569  18.530  0.00  0.00    +0.000 C 
ATOM      8  C   UNL     1      -4.607  12.484  18.627  0.00  0.00    +0.000 C 
ATOM      9  O   UNL     1      -4.840  13.188  19.827  0.00  0.00    +0.000 OA
ENDROOT
BRANCH   6  10
ATOM     10  C   UNL     1      -1.211  11.412  19.191  0.00  0.00    +0.000 A 
ATOM     11  C   UNL     1      -0.689  12.694  18.919  0.00  0.00    +0.000 A 
ATOM     12  C   UNL     1       0.611  12.859  18.447  0.00  0.00    +0.000 A 
ATOM     13  C   UNL     1       1.420  11.730  18.265  0.00  0.00    +0.000 A 
ATOM     14  C   UNL     1       0.906  10.462  18.524  0.00  0.00    +0.000 A 
ATOM     15  C   UNL     1      -0.408  10.286  18.966  0.00  0.00    +0.000 A 
BRANCH  14  16
ATOM     16  N   UNL     1       1.734   9.280  18.393  0.00  0.00    +0.000 N 
ATOM     17  O   UNL     1       2.279   9.079  17.300  0.00  0.00    +0.000 OA
ATOM     18  O   UNL     1       1.765   8.517  19.365  0.00  0.00    +0.000 OA
ENDBRANCH  14  16
BRANCH  12  19
ATOM     19  O   UNL     1       1.188  14.066  18.144  0.00  0.00    +0.000 OA
ATOM     20  C   UNL     1       1.107  15.074  19.152  0.00  0.00    +0.000 C 
ENDBRANCH  12  19
BRANCH  13  21
ATOM     21  O   UNL     1       2.713  11.908  17.859  0.00  0.00    +0.000 OA
ATOM     22  H   UNL     1       2.805  12.862  17.664  0.00  0.00    +0.000 HD
ENDBRANCH  13  21
ENDBRANCH   6  10
BRANCH   3  23
ATOM     23  C   UNL     1      -4.785  14.731  22.437  0.00  0.00    +0.000 C 
ATOM     24  C   UNL     1      -6.040  14.154  23.092  0.00  0.00    +0.000 C 
ATOM     25  C   UNL     1      -6.609  15.322  23.884  0.00  0.00    +0.000 C 
ATOM     26  C   UNL     1      -5.414  16.191  24.273  0.00  0.00    +0.000 C 
ATOM     27  C   UNL     1      -4.204  15.632  23.529  0.00  0.00    +0.000 C 
ENDBRANCH   3  23
BRANCH   8  28
ATOM     28  N   UNL     1      -5.452  12.845  17.605  0.00  0.00    +0.000 N 
ATOM     29  H   UNL     1      -5.016  13.240  16.776  0.00  0.00    +0.000 HD
ATOM     30  H   UNL     1      -6.147  12.133  17.396  0.00  0.00    +0.000 HD
ENDBRANCH   8  28
BRANCH   7  31
ATOM     31  C   UNL     1      -3.310  10.867  17.215  0.00  0.00    +0.000 C 
ATOM     32  N   UNL     1      -3.063  10.285  16.124  0.00  0.00    +0.000 NA
ENDBRANCH   7  31
BRANCH   1  33
ATOM     33  C   UNL     1      -0.862  11.863  22.458  0.00  0.00    +0.000 C 
BRANCH  33  35
ATOM     34  C   UNL     1      -0.202   9.453  22.535  0.00  0.00    +0.000 C 
ATOM     35  C   UNL     1      -1.018  10.547  23.204  0.00  0.00    +0.000 C 
ENDBRANCH  33  35
ENDBRANCH   1  33
TORSDOF 9
ENDMDL
MODEL 6
REMARK VINA RESULT:      -6.0      1.016      1.241
REMARK  Name = 
REMARK  11 active torsions:
REMARK  status: ('A' for Active; 'I' for Inactive)
REMARK    1  A    between atoms: C_1  and  C_2
REMARK    2  A    between atoms: C_2  and  C_3
REMARK    3  A    between atoms: C_3  and  C_4
REMARK    4  A    between atoms: N_6  and  C_7
REMARK    5  A    between atoms: C_14  and  C_15
REMARK    6  A    between atoms: C_17  and  O_18
REMARK    7  A    between atoms: O_18  and  C_19
REMARK    8  A    between atoms: C_20  and  O_21
REMARK    9  A    between atoms: C_22  and  N_23
REMARK   10  A    between atoms: C_27  and  C_28
REMARK   11  A    between atoms: C_30  and  N_31
REMARK                            x       y       z     vdW  Elec       q    Type
REMARK                         _______ _______ _______ _____ _____    ______ ____
ROOT
ATOM      1  C   UNL     1      -3.676  11.750  18.909  0.00  0.00    +0.000 A 
ATOM      2  N   UNL     1      -4.984  11.745  19.207  0.00  0.00    +0.000 NA
ATOM      3  N   UNL     1      -5.113  12.632  20.224  0.00  0.00    +0.000 N 
ATOM      4  C   UNL     1      -3.913  13.163  20.599  0.00  0.00    +0.000 A 
ATOM      5  C   UNL     1      -2.970  12.639  19.746  0.00  0.00    +0.000 A 
ATOM      6  C   UNL     1      -1.547  13.033  19.883  0.00  0.00    +0.000 C 
ATOM      7  C   UNL     1      -1.354  13.851  21.142  0.00  0.00    +0.000 C 
ATOM      8  C   UNL     1      -2.367  14.275  21.939  0.00  0.00    +0.000 C 
ATOM      9  O   UNL     1      -3.713  13.997  21.623  0.00  0.00    +0.000 OA
ENDROOT
BRANCH   6  10
ATOM     10  C   UNL     1      -0.732  11.754  19.947  0.00  0.00    +0.000 A 
ATOM     11  C   UNL     1      -0.853  10.872  21.040  0.00  0.00    +0.000 A 
ATOM     12  C   UNL     1      -0.070   9.723  21.132  0.00  0.00    +0.000 A 
ATOM     13  C   UNL     1       0.834   9.429  20.103  0.00  0.00    +0.000 A 
ATOM     14  C   UNL     1       0.963  10.302  19.026  0.00  0.00    +0.000 A 
ATOM     15  C   UNL     1       0.205  11.473  18.944  0.00  0.00    +0.000 A 
BRANCH  14  16
ATOM     16  N   UNL     1       1.853  10.000  17.923  0.00  0.00    +0.000 N 
ATOM     17  O   UNL     1       1.866   8.838  17.497  0.00  0.00    +0.000 OA
ATOM     18  O   UNL     1       2.595  10.914  17.546  0.00  0.00    +0.000 OA
ENDBRANCH  14  16
BRANCH  12  19
ATOM     19  O   UNL     1      -0.115   8.824  22.167  0.00  0.00    +0.000 OA
ATOM     20  C   UNL     1      -0.042   9.372  23.482  0.00  0.00    +0.000 C 
ENDBRANCH  12  19
BRANCH  13  21
ATOM     21  O   UNL     1       1.553   8.269  20.173  0.00  0.00    +0.000 OA
ATOM     22  H   UNL     1       2.250   8.425  20.841  0.00  0.00    +0.000 HD
ENDBRANCH  13  21
ENDBRANCH   6  10
BRANCH   3  23
ATOM     23  C   UNL     1      -6.416  12.897  20.794  0.00  0.00    +0.000 C 
ATOM     24  C   UNL     1      -6.479  12.673  22.305  0.00  0.00    +0.000 C 
ATOM     25  C   UNL     1      -7.741  13.410  22.730  0.00  0.00    +0.000 C 
ATOM     26  C   UNL     1      -7.916  14.556  21.736  0.00  0.00    +0.000 C 
ATOM     27  C   UNL     1      -6.880  14.345  20.635  0.00  0.00    +0.000 C 
ENDBRANCH   3  23
BRANCH   8  28
ATOM     28  N   UNL     1      -2.211  14.965  23.118  0.00  0.00    +0.000 N 
ATOM     29  H   UNL     1      -1.716  15.851  23.060  0.00  0.00    +0.000 HD
ATOM     30  H   UNL     1      -3.068  15.016  23.662  0.00  0.00    +0.000 HD
ENDBRANCH   8  28
BRANCH   7  31
ATOM     31  C   UNL     1       0.099  14.085  21.524  0.00  0.00    +0.000 C 
ATOM     32  N   UNL     1       1.304  14.279  21.841  0.00  0.00    +0.000 NA
ENDBRANCH   7  31
BRANCH   1  33
ATOM     33  C   UNL     1      -3.138  10.835  17.857  0.00  0.00    +0.000 C 
BRANCH  33  35
ATOM     34  C   UNL     1      -2.755  10.406  15.424  0.00  0.00    +0.000 C 
ATOM     35  C   UNL     1      -3.128  11.449  16.466  0.00  0.00    +0.000 C 
ENDBRANCH  33  35
ENDBRANCH   1  33
TORSDOF 9
ENDMDL
MODEL 7
REMARK VINA RESULT:      -6.0      2.490      4.737
REMARK  Name = 
REMARK  11 active torsions:
REMARK  status: ('A' for Active; 'I' for Inactive)
REMARK    1  A    between atoms: C_1  and  C_2
REMARK    2  A    between atoms: C_2  and  C_3
REMARK    3  A    between atoms: C_3  and  C_4
REMARK    4  A    between atoms: N_6  and  C_7
REMARK    5  A    between atoms: C_14  and  C_15
REMARK    6  A    between atoms: C_17  and  O_18
REMARK    7  A    between atoms: O_18  and  C_19
REMARK    8  A    between atoms: C_20  and  O_21
REMARK    9  A    between atoms: C_22  and  N_23
REMARK   10  A    between atoms: C_27  and  C_28
REMARK   11  A    between atoms: C_30  and  N_31
REMARK                            x       y       z     vdW  Elec       q    Type
REMARK                         _______ _______ _______ _____ _____    ______ ____
ROOT
ATOM      1  C   UNL     1      -2.195  12.692  22.494  0.00  0.00    +0.000 A 
ATOM      2  N   UNL     1      -2.685  13.634  23.313  0.00  0.00    +0.000 NA
ATOM      3  N   UNL     1      -3.808  14.080  22.698  0.00  0.00    +0.000 N 
ATOM      4  C   UNL     1      -4.013  13.470  21.495  0.00  0.00    +0.000 A 
ATOM      5  C   UNL     1      -3.006  12.543  21.350  0.00  0.00    +0.000 A 
ATOM      6  C   UNL     1      -2.952  11.693  20.136  0.00  0.00    +0.000 C 
ATOM      7  C   UNL     1      -3.975  12.164  19.126  0.00  0.00    +0.000 C 
ATOM      8  C   UNL     1      -4.897  13.130  19.367  0.00  0.00    +0.000 C 
ATOM      9  O   UNL     1      -4.984  13.760  20.626  0.00  0.00    +0.000 OA
ENDROOT
BRANCH   6  10
ATOM     10  C   UNL     1      -1.548  11.811  19.570  0.00  0.00    +0.000 A 
ATOM     11  C   UNL     1      -1.000  13.070  19.248  0.00  0.00    +0.000 A 
ATOM     12  C   UNL     1       0.266  13.182  18.678  0.00  0.00    +0.000 A 
ATOM     13  C   UNL     1       1.016  12.022  18.447  0.00  0.00    +0.000 A 
ATOM     14  C   UNL     1       0.476  10.776  18.755  0.00  0.00    +0.000 A 
ATOM     15  C   UNL     1      -0.807  10.654  19.295  0.00  0.00    +0.000 A 
BRANCH  14  16
ATOM     16  N   UNL     1       1.246   9.563  18.573  0.00  0.00    +0.000 N 
ATOM     17  O   UNL     1       1.390   8.821  19.553  0.00  0.00    +0.000 OA
ATOM     18  O   UNL     1       1.773   9.404  17.465  0.00  0.00    +0.000 OA
ENDBRANCH  14  16
BRANCH  12  19
ATOM     19  O   UNL     1       0.864  14.364  18.322  0.00  0.00    +0.000 OA
ATOM     20  C   UNL     1       0.492  15.513  19.083  0.00  0.00    +0.000 C 
ENDBRANCH  12  19
BRANCH  13  21
ATOM     21  O   UNL     1       2.281  12.148  17.944  0.00  0.00    +0.000 OA
ATOM     22  H   UNL     1       2.589  13.037  18.210  0.00  0.00    +0.000 HD
ENDBRANCH  13  21
ENDBRANCH   6  10
BRANCH   3  23
ATOM     23  C   UNL     1      -4.615  15.107  23.319  0.00  0.00    +0.000 C 
ATOM     24  C   UNL     1      -4.081  15.568  24.675  0.00  0.00    +0.000 C 
ATOM     25  C   UNL     1      -4.787  16.894  24.913  0.00  0.00    +0.000 C 
ATOM     26  C   UNL     1      -5.057  17.485  23.531  0.00  0.00    +0.000 C 
ATOM     27  C   UNL     1      -4.694  16.405  22.514  0.00  0.00    +0.000 C 
ENDBRANCH   3  23
BRANCH   8  28
ATOM     28  N   UNL     1      -5.795  13.616  18.447  0.00  0.00    +0.000 N 
ATOM     29  H   UNL     1      -6.747  13.755  18.774  0.00  0.00    +0.000 HD
ATOM     30  H   UNL     1      -5.431  14.403  17.916  0.00  0.00    +0.000 HD
ENDBRANCH   8  28
BRANCH   7  31
ATOM     31  C   UNL     1      -3.832  11.540  17.747  0.00  0.00    +0.000 C 
ATOM     32  N   UNL     1      -3.713  11.023  16.603  0.00  0.00    +0.000 NA
ENDBRANCH   7  31
BRANCH   1  33
ATOM     33  C   UNL     1      -0.908  12.004  22.818  0.00  0.00    +0.000 C 
BRANCH  33  35
ATOM     34  C   UNL     1       0.106   9.721  22.742  0.00  0.00    +0.000 C 
ATOM     35  C   UNL     1      -1.081  10.547  23.213  0.00  0.00    +0.000 C 
ENDBRANCH  33  35
ENDBRANCH   1  33
TORSDOF 9
ENDMDL
MODEL 8
REMARK VINA RESULT:      -6.0      2.071      3.476
REMARK  Name = 
REMARK  11 active torsions:
REMARK  status: ('A' for Active; 'I' for Inactive)
REMARK    1  A    between atoms: C_1  and  C_2
REMARK    2  A    between atoms: C_2  and  C_3
REMARK    3  A    between atoms: C_3  and  C_4
REMARK    4  A    between atoms: N_6  and  C_7
REMARK    5  A    between atoms: C_14  and  C_15
REMARK    6  A    between atoms: C_17  and  O_18
REMARK    7  A    between atoms: O_18  and  C_19
REMARK    8  A    between atoms: C_20  and  O_21
REMARK    9  A    between atoms: C_22  and  N_23
REMARK   10  A    between atoms: C_27  and  C_28
REMARK   11  A    between atoms: C_30  and  N_31
REMARK                            x       y       z     vdW  Elec       q    Type
REMARK                         _______ _______ _______ _____ _____    ______ ____
ROOT
ATOM      1  C   UNL     1      -3.485  12.788  20.306  0.00  0.00    +0.000 A 
ATOM      2  N   UNL     1      -4.677  12.927  20.904  0.00  0.00    +0.000 NA
ATOM      3  N   UNL     1      -4.457  13.796  21.921  0.00  0.00    +0.000 N 
ATOM      4  C   UNL     1      -3.149  14.175  22.000  0.00  0.00    +0.000 A 
ATOM      5  C   UNL     1      -2.502  13.567  20.949  0.00  0.00    +0.000 A 
ATOM      6  C   UNL     1      -1.050  13.791  20.745  0.00  0.00    +0.000 C 
ATOM      7  C   UNL     1      -0.471  14.548  21.921  0.00  0.00    +0.000 C 
ATOM      8  C   UNL     1      -1.210  15.065  22.935  0.00  0.00    +0.000 C 
ATOM      9  O   UNL     1      -2.616  14.953  22.946  0.00  0.00    +0.000 OA
ENDROOT
BRANCH   6  10
ATOM     10  C   UNL     1      -0.401  12.425  20.618  0.00  0.00    +0.000 A 
ATOM     11  C   UNL     1       0.347  12.081  19.472  0.00  0.00    +0.000 A 
ATOM     12  C   UNL     1       0.901  10.812  19.324  0.00  0.00    +0.000 A 
ATOM     13  C   UNL     1       0.732   9.870  20.347  0.00  0.00    +0.000 A 
ATOM     14  C   UNL     1      -0.012  10.201  21.476  0.00  0.00    +0.000 A 
ATOM     15  C   UNL     1      -0.599  11.462  21.616  0.00  0.00    +0.000 A 
BRANCH  14  16
ATOM     16  N   UNL     1      -0.162   9.266  22.572  0.00  0.00    +0.000 N 
ATOM     17  O   UNL     1      -0.735   8.194  22.338  0.00  0.00    +0.000 OA
ATOM     18  O   UNL     1       0.224   9.649  23.682  0.00  0.00    +0.000 OA
ENDBRANCH  14  16
BRANCH  12  19
ATOM     19  O   UNL     1       1.626  10.394  18.237  0.00  0.00    +0.000 OA
ATOM     20  C   UNL     1       2.582  11.321  17.723  0.00  0.00    +0.000 C 
ENDBRANCH  12  19
BRANCH  13  21
ATOM     21  O   UNL     1       1.331   8.648  20.219  0.00  0.00    +0.000 OA
ATOM     22  H   UNL     1       1.795   8.665  19.358  0.00  0.00    +0.000 HD
ENDBRANCH  13  21
ENDBRANCH   6  10
BRANCH   3  23
ATOM     23  C   UNL     1      -5.549  14.195  22.782  0.00  0.00    +0.000 C 
ATOM     24  C   UNL     1      -6.858  14.449  22.034  0.00  0.00    +0.000 C 
ATOM     25  C   UNL     1      -7.916  14.409  23.127  0.00  0.00    +0.000 C 
ATOM     26  C   UNL     1      -7.379  13.467  24.202  0.00  0.00    +0.000 C 
ATOM     27  C   UNL     1      -5.938  13.140  23.819  0.00  0.00    +0.000 C 
ENDBRANCH   3  23
BRANCH   8  28
ATOM     28  N   UNL     1      -0.701  15.702  24.041  0.00  0.00    +0.000 N 
ATOM     29  H   UNL     1      -0.916  15.283  24.943  0.00  0.00    +0.000 HD
ATOM     30  H   UNL     1       0.278  15.955  23.936  0.00  0.00    +0.000 HD
ENDBRANCH   8  28
BRANCH   7  31
ATOM     31  C   UNL     1       1.048  14.602  21.948  0.00  0.00    +0.000 C 
ATOM     32  N   UNL     1       2.308  14.647  21.971  0.00  0.00    +0.000 NA
ENDBRANCH   7  31
BRANCH   1  33
ATOM     33  C   UNL     1      -3.321  11.845  19.158  0.00  0.00    +0.000 C 
BRANCH  33  35
ATOM     34  C   UNL     1      -4.140  11.136  16.905  0.00  0.00    +0.000 C 
ATOM     35  C   UNL     1      -4.504  11.840  18.203  0.00  0.00    +0.000 C 
ENDBRANCH  33  35
ENDBRANCH   1  33
TORSDOF 9
ENDMDL
MODEL 9
REMARK VINA RESULT:      -5.9      1.599      2.841
REMARK  Name = 
REMARK  11 active torsions:
REMARK  status: ('A' for Active; 'I' for Inactive)
REMARK    1  A    between atoms: C_1  and  C_2
REMARK    2  A    between atoms: C_2  and  C_3
REMARK    3  A    between atoms: C_3  and  C_4
REMARK    4  A    between atoms: N_6  and  C_7
REMARK    5  A    between atoms: C_14  and  C_15
REMARK    6  A    between atoms: C_17  and  O_18
REMARK    7  A    between atoms: O_18  and  C_19
REMARK    8  A    between atoms: C_20  and  O_21
REMARK    9  A    between atoms: C_22  and  N_23
REMARK   10  A    between atoms: C_27  and  C_28
REMARK   11  A    between atoms: C_30  and  N_31
REMARK                            x       y       z     vdW  Elec       q    Type
REMARK                         _______ _______ _______ _____ _____    ______ ____
ROOT
ATOM      1  C   UNL     1      -2.699  11.484  18.826  0.00  0.00    +0.000 A 
ATOM      2  N   UNL     1      -3.927  11.849  19.221  0.00  0.00    +0.000 NA
ATOM      3  N   UNL     1      -3.751  13.033  19.858  0.00  0.00    +0.000 N 
ATOM      4  C   UNL     1      -2.438  13.399  19.909  0.00  0.00    +0.000 A 
ATOM      5  C   UNL     1      -1.736  12.435  19.221  0.00  0.00    +0.000 A 
ATOM      6  C   UNL     1      -0.264  12.551  19.080  0.00  0.00    +0.000 C 
ATOM      7  C   UNL     1       0.252  13.685  19.939  0.00  0.00    +0.000 C 
ATOM      8  C   UNL     1      -0.542  14.552  20.617  0.00  0.00    +0.000 C 
ATOM      9  O   UNL     1      -1.948  14.468  20.543  0.00  0.00    +0.000 OA
ENDROOT
BRANCH   6  10
ATOM     10  C   UNL     1       0.333  11.229  19.527  0.00  0.00    +0.000 A 
ATOM     11  C   UNL     1       0.828  10.302  18.587  0.00  0.00    +0.000 A 
ATOM     12  C   UNL     1       1.328   9.065  18.986  0.00  0.00    +0.000 A 
ATOM     13  C   UNL     1       1.362   8.750  20.350  0.00  0.00    +0.000 A 
ATOM     14  C   UNL     1       0.867   9.658  21.282  0.00  0.00    +0.000 A 
ATOM     15  C   UNL     1       0.332  10.887  20.887  0.00  0.00    +0.000 A 
BRANCH  14  16
ATOM     16  N   UNL     1       0.934   9.381  22.702  0.00  0.00    +0.000 N 
ATOM     17  O   UNL     1      -0.134   9.240  23.312  0.00  0.00    +0.000 OA
ATOM     18  O   UNL     1       2.060   9.390  23.214  0.00  0.00    +0.000 OA
ENDBRANCH  14  16
BRANCH  12  19
ATOM     19  O   UNL     1       1.813   8.103  18.136  0.00  0.00    +0.000 OA
ATOM     20  C   UNL     1       3.128   8.318  17.626  0.00  0.00    +0.000 C 
ENDBRANCH  12  19
BRANCH  13  21
ATOM     21  O   UNL     1       1.911   7.558  20.735  0.00  0.00    +0.000 OA
ATOM     22  H   UNL     1       2.658   7.397  20.126  0.00  0.00    +0.000 HD
ENDBRANCH  13  21
ENDBRANCH   6  10
BRANCH   3  23
ATOM     23  C   UNL     1      -4.889  13.736  20.408  0.00  0.00    +0.000 C 
ATOM     24  C   UNL     1      -6.221  13.339  19.770  0.00  0.00    +0.000 C 
ATOM     25  C   UNL     1      -7.262  13.836  20.762  0.00  0.00    +0.000 C 
ATOM     26  C   UNL     1      -6.594  13.792  22.135  0.00  0.00    +0.000 C 
ATOM     27  C   UNL     1      -5.121  13.471  21.897  0.00  0.00    +0.000 C 
ENDBRANCH   3  23
BRANCH   8  28
ATOM     28  N   UNL     1      -0.095  15.550  21.450  0.00  0.00    +0.000 N 
ATOM     29  H   UNL     1      -0.010  16.477  21.039  0.00  0.00    +0.000 HD
ATOM     30  H   UNL     1      -0.561  15.550  22.353  0.00  0.00    +0.000 HD
ENDBRANCH   8  28
BRANCH   7  31
ATOM     31  C   UNL     1       1.765  13.729  20.080  0.00  0.00    +0.000 C 
ATOM     32  N   UNL     1       3.020  13.765  20.198  0.00  0.00    +0.000 NA
ENDBRANCH   7  31
BRANCH   1  33
ATOM     33  C   UNL     1      -2.486  10.179  18.130  0.00  0.00    +0.000 C 
BRANCH  33  35
ATOM     34  C   UNL     1      -2.695  10.463  15.655  0.00  0.00    +0.000 C 
ATOM     35  C   UNL     1      -3.386   9.981  16.921  0.00  0.00    +0.000 C 
ENDBRANCH  33  35
ENDBRANCH   1  33
TORSDOF 9
ENDMDL
