MODEL 1
REMARK VINA RESULT:      -7.5      0.000      0.000
REMARK  Name = 
REMARK  13 active torsions:
REMARK  status: ('A' for Active; 'I' for Inactive)
REMARK    1  A    between atoms: N_1  and  C_2
REMARK    2  A    between atoms: C_2  and  N_4
REMARK    3  A    between atoms: N_4  and  C_5
REMARK    4  A    between atoms: C_9  and  O_10
REMARK    5  A    between atoms: O_10  and  C_11
REMARK    6  A    between atoms: C_11  and  C_12
REMARK    7  A    between atoms: C_12  and  C_13
REMARK    8  A    between atoms: C_13  and  C_14
REMARK    9  A    between atoms: C_14  and  C_15
REMARK   10  A    between atoms: C_15  and  O_16
REMARK   11  A    between atoms: O_16  and  C_17
REMARK   12  A    between atoms: C_21  and  O_22
REMARK   13  A    between atoms: O_22  and  C_23
REMARK                            x       y       z     vdW  Elec       q    Type
REMARK                         _______ _______ _______ _____ _____    ______ ____
ROOT
ATOM      1  C   UNL     1       7.781   7.342  18.197  0.00  0.00    +0.000 C 
ENDROOT
BRANCH   1   2
ATOM      2  C   UNL     1       7.696   8.812  17.752  0.00  0.00    +0.000 C 
BRANCH   2   3
ATOM      3  C   UNL     1       8.872   9.621  18.281  0.00  0.00    +0.000 C 
BRANCH   3   4
ATOM      4  O   UNL     1       8.711  11.010  17.986  0.00  0.00    +0.000 OA
BRANCH   4   9
ATOM      5  C   UNL     1      11.029  13.873  18.532  0.00  0.00    +0.000 A 
ATOM      6  C   UNL     1      11.881  13.277  19.463  0.00  0.00    +0.000 A 
ATOM      7  C   UNL     1      11.649  11.970  19.901  0.00  0.00    +0.000 A 
ATOM      8  C   UNL     1      10.571  11.241  19.399  0.00  0.00    +0.000 A 
ATOM      9  C   UNL     1       9.744  11.804  18.429  0.00  0.00    +0.000 A 
ATOM     10  C   UNL     1      10.002  13.106  17.983  0.00  0.00    +0.000 A 
BRANCH   5  11
ATOM     11  N   UNL     1      11.266  15.217  18.166  0.00  0.00    +0.000 N 
ATOM     12  H   UNL     1      11.959  15.699  18.725  0.00  0.00    +0.000 HD
BRANCH  11  13
ATOM     13  C   UNL     1      10.504  16.062  17.394  0.00  0.00    +0.000 C 
ATOM     14  S   UNL     1       9.345  17.183  17.813  0.00  0.00    +0.000 S 
BRANCH  13  15
ATOM     15  N   UNL     1      10.836  15.981  16.070  0.00  0.00    +0.000 N 
ATOM     16  H   UNL     1      11.810  15.775  15.873  0.00  0.00    +0.000 HD
ATOM     17  H   UNL     1      10.365  16.568  15.392  0.00  0.00    +0.000 HD
ENDBRANCH  13  15
ENDBRANCH  11  13
ENDBRANCH   5  11
ENDBRANCH   4   9
ENDBRANCH   3   4
ENDBRANCH   2   3
ENDBRANCH   1   2
BRANCH   1  18
ATOM     18  C   UNL     1       7.199   6.328  17.201  0.00  0.00    +0.000 C 
BRANCH  18  19
ATOM     19  C   UNL     1       5.782   5.911  17.574  0.00  0.00    +0.000 C 
BRANCH  19  20
ATOM     20  O   UNL     1       4.831   6.749  16.914  0.00  0.00    +0.000 OA
BRANCH  20  21
ATOM     21  C   UNL     1       3.759   7.121  17.687  0.00  0.00    +0.000 A 
ATOM     22  C   UNL     1       3.207   8.370  17.399  0.00  0.00    +0.000 A 
ATOM     23  C   UNL     1       2.152   8.870  18.167  0.00  0.00    +0.000 A 
ATOM     24  C   UNL     1       1.673   8.144  19.258  0.00  0.00    +0.000 A 
ATOM     25  C   UNL     1       2.237   6.907  19.564  0.00  0.00    +0.000 A 
ATOM     26  C   UNL     1       3.221   6.367  18.731  0.00  0.00    +0.000 A 
BRANCH  25  27
ATOM     27  O   UNL     1       1.773   6.258  20.688  0.00  0.00    +0.000 OA
BRANCH  27  28
ATOM     28  C   UNL     1       1.750   4.876  20.697  0.00  0.00    +0.000 A 
ATOM     29  C   UNL     1       2.459   4.081  21.605  0.00  0.00    +0.000 A 
ATOM     30  C   UNL     1       2.422   2.690  21.502  0.00  0.00    +0.000 A 
ATOM     31  C   UNL     1       1.627   2.084  20.531  0.00  0.00    +0.000 A 
ATOM     32  C   UNL     1       0.868   2.871  19.666  0.00  0.00    +0.000 A 
ATOM     33  C   UNL     1       0.931   4.265  19.745  0.00  0.00    +0.000 A 
ENDBRANCH  27  28
ENDBRANCH  25  27
ENDBRANCH  20  21
ENDBRANCH  19  20
ENDBRANCH  18  19
ENDBRANCH   1  18
TORSDOF 13
ENDMDL
MODEL 2
REMARK VINA RESULT:      -7.4      7.152      9.848
REMARK  Name = 
REMARK  13 active torsions:
REMARK  status: ('A' for Active; 'I' for Inactive)
REMARK    1  A    between atoms: N_1  and  C_2
REMARK    2  A    between atoms: C_2  and  N_4
REMARK    3  A    between atoms: N_4  and  C_5
REMARK    4  A    between atoms: C_9  and  O_10
REMARK    5  A    between atoms: O_10  and  C_11
REMARK    6  A    between atoms: C_11  and  C_12
REMARK    7  A    between atoms: C_12  and  C_13
REMARK    8  A    between atoms: C_13  and  C_14
REMARK    9  A    between atoms: C_14  and  C_15
REMARK   10  A    between atoms: C_15  and  O_16
REMARK   11  A    between atoms: O_16  and  C_17
REMARK   12  A    between atoms: C_21  and  O_22
REMARK   13  A    between atoms: O_22  and  C_23
REMARK                            x       y       z     vdW  Elec       q    Type
REMARK                         _______ _______ _______ _____ _____    ______ ____
ROOT
ATOM      1  C   UNL     1       1.547   8.954  19.630  0.00  0.00    +0.000 C 
ENDROOT
BRANCH   1   2
ATOM      2  C   UNL     1       0.652  10.036  20.258  0.00  0.00    +0.000 C 
BRANCH   2   3
ATOM      3  C   UNL     1      -0.261  10.673  19.219  0.00  0.00    +0.000 C 
BRANCH   3   4
ATOM      4  O   UNL     1      -1.541  10.039  19.206  0.00  0.00    +0.000 OA
BRANCH   4   9
ATOM      5  C   UNL     1      -4.186  11.567  17.076  0.00  0.00    +0.000 A 
ATOM      6  C   UNL     1      -3.811  11.017  15.849  0.00  0.00    +0.000 A 
ATOM      7  C   UNL     1      -2.688  10.189  15.758  0.00  0.00    +0.000 A 
ATOM      8  C   UNL     1      -1.939   9.891  16.897  0.00  0.00    +0.000 A 
ATOM      9  C   UNL     1      -2.333  10.391  18.137  0.00  0.00    +0.000 A 
ATOM     10  C   UNL     1      -3.473  11.200  18.216  0.00  0.00    +0.000 A 
BRANCH   5  11
ATOM     11  N   UNL     1      -5.290  12.449  17.108  0.00  0.00    +0.000 N 
ATOM     12  H   UNL     1      -5.320  13.128  16.359  0.00  0.00    +0.000 HD
BRANCH  11  13
ATOM     13  C   UNL     1      -6.150  12.738  18.142  0.00  0.00    +0.000 C 
ATOM     14  S   UNL     1      -5.982  13.747  19.457  0.00  0.00    +0.000 S 
BRANCH  13  15
ATOM     15  N   UNL     1      -7.360  12.121  17.986  0.00  0.00    +0.000 N 
ATOM     16  H   UNL     1      -7.692  11.595  18.788  0.00  0.00    +0.000 HD
ATOM     17  H   UNL     1      -7.633  11.760  17.080  0.00  0.00    +0.000 HD
ENDBRANCH  13  15
ENDBRANCH  11  13
ENDBRANCH   5  11
ENDBRANCH   4   9
ENDBRANCH   3   4
ENDBRANCH   2   3
ENDBRANCH   1   2
BRANCH   1  18
ATOM     18  C   UNL     1       1.943   9.207  18.168  0.00  0.00    +0.000 C 
BRANCH  18  19
ATOM     19  C   UNL     1       2.342   7.921  17.454  0.00  0.00    +0.000 C 
BRANCH  19  20
ATOM     20  O   UNL     1       3.759   7.743  17.514  0.00  0.00    +0.000 OA
BRANCH  20  21
ATOM     21  C   UNL     1       4.192   6.478  17.203  0.00  0.00    +0.000 A 
ATOM     22  C   UNL     1       5.188   6.400  16.228  0.00  0.00    +0.000 A 
ATOM     23  C   UNL     1       5.656   5.156  15.795  0.00  0.00    +0.000 A 
ATOM     24  C   UNL     1       5.096   3.982  16.299  0.00  0.00    +0.000 A 
ATOM     25  C   UNL     1       4.084   4.056  17.254  0.00  0.00    +0.000 A 
ATOM     26  C   UNL     1       3.694   5.299  17.759  0.00  0.00    +0.000 A 
BRANCH  25  27
ATOM     27  O   UNL     1       3.520   2.869  17.674  0.00  0.00    +0.000 OA
BRANCH  27  28
ATOM     28  C   UNL     1       2.763   2.865  18.830  0.00  0.00    +0.000 A 
ATOM     29  C   UNL     1       1.369   2.999  18.861  0.00  0.00    +0.000 A 
ATOM     30  C   UNL     1       0.692   3.042  20.081  0.00  0.00    +0.000 A 
ATOM     31  C   UNL     1       1.396   2.889  21.274  0.00  0.00    +0.000 A 
ATOM     32  C   UNL     1       2.776   2.690  21.245  0.00  0.00    +0.000 A 
ATOM     33  C   UNL     1       3.460   2.681  20.026  0.00  0.00    +0.000 A 
ENDBRANCH  27  28
ENDBRANCH  25  27
ENDBRANCH  20  21
ENDBRANCH  19  20
ENDBRANCH  18  19
ENDBRANCH   1  18
TORSDOF 13
ENDMDL
MODEL 3
REMARK VINA RESULT:      -7.3      5.555      8.434
REMARK  Name = 
REMARK  13 active torsions:
REMARK  status: ('A' for Active; 'I' for Inactive)
REMARK    1  A    between atoms: N_1  and  C_2
REMARK    2  A    between atoms: C_2  and  N_4
REMARK    3  A    between atoms: N_4  and  C_5
REMARK    4  A    between atoms: C_9  and  O_10
REMARK    5  A    between atoms: O_10  and  C_11
REMARK    6  A    between atoms: C_11  and  C_12
REMARK    7  A    between atoms: C_12  and  C_13
REMARK    8  A    between atoms: C_13  and  C_14
REMARK    9  A    between atoms: C_14  and  C_15
REMARK   10  A    between atoms: C_15  and  O_16
REMARK   11  A    between atoms: O_16  and  C_17
REMARK   12  A    between atoms: C_21  and  O_22
REMARK   13  A    between atoms: O_22  and  C_23
REMARK                            x       y       z     vdW  Elec       q    Type
REMARK                         _______ _______ _______ _____ _____    ______ ____
ROOT
ATOM      1  C   UNL     1       1.247   2.729  19.329  0.00  0.00    +0.000 C 
ENDROOT
BRANCH   1   2
ATOM      2  C   UNL     1       0.950   3.942  20.227  0.00  0.00    +0.000 C 
BRANCH   2   3
ATOM      3  C   UNL     1       2.233   4.630  20.673  0.00  0.00    +0.000 C 
BRANCH   3   4
ATOM      4  O   UNL     1       1.958   5.926  21.207  0.00  0.00    +0.000 OA
BRANCH   4   9
ATOM      5  C   UNL     1       1.417   9.173  19.466  0.00  0.00    +0.000 A 
ATOM      6  C   UNL     1       2.024   8.862  18.248  0.00  0.00    +0.000 A 
ATOM      7  C   UNL     1       2.614   7.610  18.052  0.00  0.00    +0.000 A 
ATOM      8  C   UNL     1       2.589   6.653  19.066  0.00  0.00    +0.000 A 
ATOM      9  C   UNL     1       1.940   6.932  20.267  0.00  0.00    +0.000 A 
ATOM     10  C   UNL     1       1.333   8.181  20.442  0.00  0.00    +0.000 A 
BRANCH   5  11
ATOM     11  N   UNL     1       0.890  10.473  19.641  0.00  0.00    +0.000 N 
ATOM     12  H   UNL     1       0.183  10.557  20.360  0.00  0.00    +0.000 HD
BRANCH  11  13
ATOM     13  C   UNL     1       0.948  11.562  18.803  0.00  0.00    +0.000 C 
ATOM     14  S   UNL     1       2.184  12.632  18.481  0.00  0.00    +0.000 S 
BRANCH  13  15
ATOM     15  N   UNL     1      -0.205  11.715  18.084  0.00  0.00    +0.000 N 
ATOM     16  H   UNL     1      -0.255  12.546  17.505  0.00  0.00    +0.000 HD
ATOM     17  H   UNL     1      -1.086  11.390  18.464  0.00  0.00    +0.000 HD
ENDBRANCH  13  15
ENDBRANCH  11  13
ENDBRANCH   5  11
ENDBRANCH   4   9
ENDBRANCH   3   4
ENDBRANCH   2   3
ENDBRANCH   1   2
BRANCH   1  18
ATOM     18  C   UNL     1       1.877   3.067  17.970  0.00  0.00    +0.000 C 
BRANCH  18  19
ATOM     19  C   UNL     1       3.282   2.494  17.834  0.00  0.00    +0.000 C 
BRANCH  19  20
ATOM     20  O   UNL     1       4.155   3.095  18.794  0.00  0.00    +0.000 OA
BRANCH  20  21
ATOM     21  C   UNL     1       5.026   4.022  18.278  0.00  0.00    +0.000 A 
ATOM     22  C   UNL     1       5.894   4.616  19.195  0.00  0.00    +0.000 A 
ATOM     23  C   UNL     1       6.779   5.616  18.784  0.00  0.00    +0.000 A 
ATOM     24  C   UNL     1       6.768   6.062  17.461  0.00  0.00    +0.000 A 
ATOM     25  C   UNL     1       5.886   5.489  16.548  0.00  0.00    +0.000 A 
ATOM     26  C   UNL     1       5.077   4.419  16.941  0.00  0.00    +0.000 A 
BRANCH  25  27
ATOM     27  O   UNL     1       5.869   6.007  15.271  0.00  0.00    +0.000 OA
BRANCH  27  28
ATOM     28  C   UNL     1       6.114   5.161  14.206  0.00  0.00    +0.000 A 
ATOM     29  C   UNL     1       5.199   4.221  13.717  0.00  0.00    +0.000 A 
ATOM     30  C   UNL     1       5.555   3.367  12.672  0.00  0.00    +0.000 A 
ATOM     31  C   UNL     1       6.806   3.489  12.069  0.00  0.00    +0.000 A 
ATOM     32  C   UNL     1       7.697   4.467  12.509  0.00  0.00    +0.000 A 
ATOM     33  C   UNL     1       7.354   5.300  13.578  0.00  0.00    +0.000 A 
ENDBRANCH  27  28
ENDBRANCH  25  27
ENDBRANCH  20  21
ENDBRANCH  19  20
ENDBRANCH  18  19
ENDBRANCH   1  18
TORSDOF 13
ENDMDL
MODEL 4
REMARK VINA RESULT:      -7.2      7.479     10.619
REMARK  Name = 
REMARK  13 active torsions:
REMARK  status: ('A' for Active; 'I' for Inactive)
REMARK    1  A    between atoms: N_1  and  C_2
REMARK    2  A    between atoms: C_2  and  N_4
REMARK    3  A    between atoms: N_4  and  C_5
REMARK    4  A    between atoms: C_9  and  O_10
REMARK    5  A    between atoms: O_10  and  C_11
REMARK    6  A    between atoms: C_11  and  C_12
REMARK    7  A    between atoms: C_12  and  C_13
REMARK    8  A    between atoms: C_13  and  C_14
REMARK    9  A    between atoms: C_14  and  C_15
REMARK   10  A    between atoms: C_15  and  O_16
REMARK   11  A    between atoms: O_16  and  C_17
REMARK   12  A    between atoms: C_21  and  O_22
REMARK   13  A    between atoms: O_22  and  C_23
REMARK                            x       y       z     vdW  Elec       q    Type
REMARK                         _______ _______ _______ _____ _____    ______ ____
ROOT
ATOM      1  C   UNL     1       1.463  10.309  19.333  0.00  0.00    +0.000 C 
ENDROOT
BRANCH   1   2
ATOM      2  C   UNL     1      -0.012  10.644  19.613  0.00  0.00    +0.000 C 
BRANCH   2   3
ATOM      3  C   UNL     1      -0.387  12.010  19.055  0.00  0.00    +0.000 C 
BRANCH   3   4
ATOM      4  O   UNL     1      -1.751  12.322  19.343  0.00  0.00    +0.000 OA
BRANCH   4   9
ATOM      5  C   UNL     1      -4.871  11.206  17.643  0.00  0.00    +0.000 A 
ATOM      6  C   UNL     1      -4.324  10.866  16.404  0.00  0.00    +0.000 A 
ATOM      7  C   UNL     1      -2.959  11.042  16.161  0.00  0.00    +0.000 A 
ATOM      8  C   UNL     1      -2.125  11.545  17.160  0.00  0.00    +0.000 A 
ATOM      9  C   UNL     1      -2.648  11.839  18.418  0.00  0.00    +0.000 A 
ATOM     10  C   UNL     1      -4.013  11.635  18.654  0.00  0.00    +0.000 A 
BRANCH   5  11
ATOM     11  N   UNL     1      -6.266  11.070  17.822  0.00  0.00    +0.000 N 
ATOM     12  H   UNL     1      -6.835  11.475  17.089  0.00  0.00    +0.000 HD
BRANCH  11  13
ATOM     13  C   UNL     1      -6.978  10.762  18.957  0.00  0.00    +0.000 C 
ATOM     14  S   UNL     1      -7.501  11.720  20.216  0.00  0.00    +0.000 S 
BRANCH  13  15
ATOM     15  N   UNL     1      -7.354   9.448  18.982  0.00  0.00    +0.000 N 
ATOM     16  H   UNL     1      -7.937   9.173  19.766  0.00  0.00    +0.000 HD
ATOM     17  H   UNL     1      -6.730   8.734  18.626  0.00  0.00    +0.000 HD
ENDBRANCH  13  15
ENDBRANCH  11  13
ENDBRANCH   5  11
ENDBRANCH   4   9
ENDBRANCH   3   4
ENDBRANCH   2   3
ENDBRANCH   1   2
BRANCH   1  18
ATOM     18  C   UNL     1       1.748   9.767  17.924  0.00  0.00    +0.000 C 
BRANCH  18  19
ATOM     19  C   UNL     1       2.075   8.278  17.942  0.00  0.00    +0.000 C 
BRANCH  19  20
ATOM     20  O   UNL     1       2.225   7.822  19.289  0.00  0.00    +0.000 OA
BRANCH  20  21
ATOM     21  C   UNL     1       2.358   6.462  19.423  0.00  0.00    +0.000 A 
ATOM     22  C   UNL     1       1.826   5.912  20.590  0.00  0.00    +0.000 A 
ATOM     23  C   UNL     1       1.961   4.547  20.853  0.00  0.00    +0.000 A 
ATOM     24  C   UNL     1       2.673   3.730  19.973  0.00  0.00    +0.000 A 
ATOM     25  C   UNL     1       3.227   4.280  18.819  0.00  0.00    +0.000 A 
ATOM     26  C   UNL     1       2.999   5.624  18.510  0.00  0.00    +0.000 A 
BRANCH  25  27
ATOM     27  O   UNL     1       3.974   3.446  18.015  0.00  0.00    +0.000 OA
BRANCH  27  28
ATOM     28  C   UNL     1       5.065   3.968  17.346  0.00  0.00    +0.000 A 
ATOM     29  C   UNL     1       6.249   4.382  17.970  0.00  0.00    +0.000 A 
ATOM     30  C   UNL     1       7.278   4.952  17.219  0.00  0.00    +0.000 A 
ATOM     31  C   UNL     1       7.158   5.053  15.834  0.00  0.00    +0.000 A 
ATOM     32  C   UNL     1       6.008   4.581  15.202  0.00  0.00    +0.000 A 
ATOM     33  C   UNL     1       4.962   4.042  15.955  0.00  0.00    +0.000 A 
ENDBRANCH  27  28
ENDBRANCH  25  27
ENDBRANCH  20  21
ENDBRANCH  19  20
ENDBRANCH  18  19
ENDBRANCH   1  18
TORSDOF 13
ENDMDL
MODEL 5
REMARK VINA RESULT:      -7.1      7.139      9.136
REMARK  Name = 
REMARK  13 active torsions:
REMARK  status: ('A' for Active; 'I' for Inactive)
REMARK    1  A    between atoms: N_1  and  C_2
REMARK    2  A    between atoms: C_2  and  N_4
REMARK    3  A    between atoms: N_4  and  C_5
REMARK    4  A    between atoms: C_9  and  O_10
REMARK    5  A    between atoms: O_10  and  C_11
REMARK    6  A    between atoms: C_11  and  C_12
REMARK    7  A    between atoms: C_12  and  C_13
REMARK    8  A    between atoms: C_13  and  C_14
REMARK    9  A    between atoms: C_14  and  C_15
REMARK   10  A    between atoms: C_15  and  O_16
REMARK   11  A    between atoms: O_16  and  C_17
REMARK   12  A    between atoms: C_21  and  O_22
REMARK   13  A    between atoms: O_22  and  C_23
REMARK                            x       y       z     vdW  Elec       q    Type
REMARK                         _______ _______ _______ _____ _____    ______ ____
ROOT
ATOM      1  C   UNL     1       1.180   9.047  19.942  0.00  0.00    +0.000 C 
ENDROOT
BRANCH   1   2
ATOM      2  C   UNL     1       1.185  10.252  18.986  0.00  0.00    +0.000 C 
BRANCH   2   3
ATOM      3  C   UNL     1       0.940  11.555  19.734  0.00  0.00    +0.000 C 
BRANCH   3   4
ATOM      4  O   UNL     1       0.841  11.326  21.141  0.00  0.00    +0.000 OA
BRANCH   4   9
ATOM      5  C   UNL     1      -2.190  12.437  22.998  0.00  0.00    +0.000 A 
ATOM      6  C   UNL     1      -1.922  13.806  23.037  0.00  0.00    +0.000 A 
ATOM      7  C   UNL     1      -0.744  14.312  22.480  0.00  0.00    +0.000 A 
ATOM      8  C   UNL     1       0.169  13.456  21.865  0.00  0.00    +0.000 A 
ATOM      9  C   UNL     1      -0.112  12.094  21.771  0.00  0.00    +0.000 A 
ATOM     10  C   UNL     1      -1.306  11.604  22.313  0.00  0.00    +0.000 A 
BRANCH   5  11
ATOM     11  N   UNL     1      -3.363  11.963  23.629  0.00  0.00    +0.000 N 
ATOM     12  H   UNL     1      -3.555  10.978  23.496  0.00  0.00    +0.000 HD
BRANCH  11  13
ATOM     13  C   UNL     1      -4.435  12.666  24.126  0.00  0.00    +0.000 C 
ATOM     14  S   UNL     1      -5.684  13.451  23.352  0.00  0.00    +0.000 S 
BRANCH  13  15
ATOM     15  N   UNL     1      -4.478  12.633  25.492  0.00  0.00    +0.000 N 
ATOM     16  H   UNL     1      -5.220  12.071  25.895  0.00  0.00    +0.000 HD
ATOM     17  H   UNL     1      -4.201  13.446  26.028  0.00  0.00    +0.000 HD
ENDBRANCH  13  15
ENDBRANCH  11  13
ENDBRANCH   5  11
ENDBRANCH   4   9
ENDBRANCH   3   4
ENDBRANCH   2   3
ENDBRANCH   1   2
BRANCH   1  18
ATOM     18  C   UNL     1       2.034   7.854  19.486  0.00  0.00    +0.000 C 
BRANCH  18  19
ATOM     19  C   UNL     1       2.352   7.916  17.997  0.00  0.00    +0.000 C 
BRANCH  19  20
ATOM     20  O   UNL     1       3.760   7.787  17.787  0.00  0.00    +0.000 OA
BRANCH  20  21
ATOM     21  C   UNL     1       4.167   6.545  17.367  0.00  0.00    +0.000 A 
ATOM     22  C   UNL     1       4.977   6.523  16.231  0.00  0.00    +0.000 A 
ATOM     23  C   UNL     1       5.396   5.307  15.685  0.00  0.00    +0.000 A 
ATOM     24  C   UNL     1       4.967   4.102  16.244  0.00  0.00    +0.000 A 
ATOM     25  C   UNL     1       4.137   4.120  17.363  0.00  0.00    +0.000 A 
ATOM     26  C   UNL     1       3.807   5.337  17.966  0.00  0.00    +0.000 A 
BRANCH  25  27
ATOM     27  O   UNL     1       3.689   2.906  17.839  0.00  0.00    +0.000 OA
BRANCH  27  28
ATOM     28  C   UNL     1       2.946   2.881  19.004  0.00  0.00    +0.000 A 
ATOM     29  C   UNL     1       3.486   2.689  20.282  0.00  0.00    +0.000 A 
ATOM     30  C   UNL     1       2.650   2.621  21.397  0.00  0.00    +0.000 A 
ATOM     31  C   UNL     1       1.277   2.808  21.251  0.00  0.00    +0.000 A 
ATOM     32  C   UNL     1       0.741   3.065  19.990  0.00  0.00    +0.000 A 
ATOM     33  C   UNL     1       1.573   3.099  18.867  0.00  0.00    +0.000 A 
ENDBRANCH  27  28
ENDBRANCH  25  27
ENDBRANCH  20  21
ENDBRANCH  19  20
ENDBRANCH  18  19
ENDBRANCH   1  18
TORSDOF 13
ENDMDL
MODEL 6
REMARK VINA RESULT:      -7.1      7.163     10.127
REMARK  Name = 
REMARK  13 active torsions:
REMARK  status: ('A' for Active; 'I' for Inactive)
REMARK    1  A    between atoms: N_1  and  C_2
REMARK    2  A    between atoms: C_2  and  N_4
REMARK    3  A    between atoms: N_4  and  C_5
REMARK    4  A    between atoms: C_9  and  O_10
REMARK    5  A    between atoms: O_10  and  C_11
REMARK    6  A    between atoms: C_11  and  C_12
REMARK    7  A    between atoms: C_12  and  C_13
REMARK    8  A    between atoms: C_13  and  C_14
REMARK    9  A    between atoms: C_14  and  C_15
REMARK   10  A    between atoms: C_15  and  O_16
REMARK   11  A    between atoms: O_16  and  C_17
REMARK   12  A    between atoms: C_21  and  O_22
REMARK   13  A    between atoms: O_22  and  C_23
REMARK                            x       y       z     vdW  Elec       q    Type
REMARK                         _______ _______ _______ _____ _____    ______ ____
ROOT
ATOM      1  C   UNL     1       0.654  10.102  21.973  0.00  0.00    +0.000 C 
ENDROOT
BRANCH   1   2
ATOM      2  C   UNL     1      -0.364  10.175  20.823  0.00  0.00    +0.000 C 
BRANCH   2   3
ATOM      3  C   UNL     1      -0.222  11.471  20.036  0.00  0.00    +0.000 C 
BRANCH   3   4
ATOM      4  O   UNL     1      -0.269  11.223  18.630  0.00  0.00    +0.000 OA
BRANCH   4   9
ATOM      5  C   UNL     1      -3.881  11.650  17.830  0.00  0.00    +0.000 A 
ATOM      6  C   UNL     1      -4.046  10.537  17.004  0.00  0.00    +0.000 A 
ATOM      7  C   UNL     1      -2.961   9.703  16.715  0.00  0.00    +0.000 A 
ATOM      8  C   UNL     1      -1.705   9.967  17.262  0.00  0.00    +0.000 A 
ATOM      9  C   UNL     1      -1.539  11.044  18.131  0.00  0.00    +0.000 A 
ATOM     10  C   UNL     1      -2.639  11.857  18.429  0.00  0.00    +0.000 A 
BRANCH   5  11
ATOM     11  N   UNL     1      -4.990  12.500  18.042  0.00  0.00    +0.000 N 
ATOM     12  H   UNL     1      -5.198  13.134  17.282  0.00  0.00    +0.000 HD
BRANCH  11  13
ATOM     13  C   UNL     1      -5.634  12.823  19.214  0.00  0.00    +0.000 C 
ATOM     14  S   UNL     1      -6.344  11.862  20.374  0.00  0.00    +0.000 S 
BRANCH  13  15
ATOM     15  N   UNL     1      -5.604  14.168  19.458  0.00  0.00    +0.000 N 
ATOM     16  H   UNL     1      -5.272  14.440  20.378  0.00  0.00    +0.000 HD
ATOM     17  H   UNL     1      -6.302  14.774  19.045  0.00  0.00    +0.000 HD
ENDBRANCH  13  15
ENDBRANCH  11  13
ENDBRANCH   5  11
ENDBRANCH   4   9
ENDBRANCH   3   4
ENDBRANCH   2   3
ENDBRANCH   1   2
BRANCH   1  18
ATOM     18  C   UNL     1       1.445   8.788  22.056  0.00  0.00    +0.000 C 
BRANCH  18  19
ATOM     19  C   UNL     1       1.048   7.813  20.956  0.00  0.00    +0.000 C 
BRANCH  19  20
ATOM     20  O   UNL     1       2.169   7.538  20.111  0.00  0.00    +0.000 OA
BRANCH  20  21
ATOM     21  C   UNL     1       2.506   6.211  20.018  0.00  0.00    +0.000 A 
ATOM     22  C   UNL     1       1.620   5.315  20.619  0.00  0.00    +0.000 A 
ATOM     23  C   UNL     1       1.901   3.947  20.634  0.00  0.00    +0.000 A 
ATOM     24  C   UNL     1       3.095   3.469  20.091  0.00  0.00    +0.000 A 
ATOM     25  C   UNL     1       3.994   4.363  19.513  0.00  0.00    +0.000 A 
ATOM     26  C   UNL     1       3.660   5.716  19.408  0.00  0.00    +0.000 A 
BRANCH  25  27
ATOM     27  O   UNL     1       5.187   3.851  19.047  0.00  0.00    +0.000 OA
BRANCH  27  28
ATOM     28  C   UNL     1       5.658   4.275  17.819  0.00  0.00    +0.000 A 
ATOM     29  C   UNL     1       6.813   5.048  17.641  0.00  0.00    +0.000 A 
ATOM     30  C   UNL     1       7.182   5.479  16.366  0.00  0.00    +0.000 A 
ATOM     31  C   UNL     1       6.436   5.089  15.255  0.00  0.00    +0.000 A 
ATOM     32  C   UNL     1       5.324   4.265  15.421  0.00  0.00    +0.000 A 
ATOM     33  C   UNL     1       4.932   3.860  16.700  0.00  0.00    +0.000 A 
ENDBRANCH  27  28
ENDBRANCH  25  27
ENDBRANCH  20  21
ENDBRANCH  19  20
ENDBRANCH  18  19
ENDBRANCH   1  18
TORSDOF 13
ENDMDL
MODEL 7
REMARK VINA RESULT:      -7.1      5.730      8.325
REMARK  Name = 
REMARK  13 active torsions:
REMARK  status: ('A' for Active; 'I' for Inactive)
REMARK    1  A    between atoms: N_1  and  C_2
REMARK    2  A    between atoms: C_2  and  N_4
REMARK    3  A    between atoms: N_4  and  C_5
REMARK    4  A    between atoms: C_9  and  O_10
REMARK    5  A    between atoms: O_10  and  C_11
REMARK    6  A    between atoms: C_11  and  C_12
REMARK    7  A    between atoms: C_12  and  C_13
REMARK    8  A    between atoms: C_13  and  C_14
REMARK    9  A    between atoms: C_14  and  C_15
REMARK   10  A    between atoms: C_15  and  O_16
REMARK   11  A    between atoms: O_16  and  C_17
REMARK   12  A    between atoms: C_21  and  O_22
REMARK   13  A    between atoms: O_22  and  C_23
REMARK                            x       y       z     vdW  Elec       q    Type
REMARK                         _______ _______ _______ _____ _____    ______ ____
ROOT
ATOM      1  C   UNL     1       2.880   3.746  20.439  0.00  0.00    +0.000 C 
ENDROOT
BRANCH   1   2
ATOM      2  C   UNL     1       3.055   2.664  19.360  0.00  0.00    +0.000 C 
BRANCH   2   3
ATOM      3  C   UNL     1       4.476   2.651  18.813  0.00  0.00    +0.000 C 
BRANCH   3   4
ATOM      4  O   UNL     1       5.287   3.624  19.473  0.00  0.00    +0.000 OA
BRANCH   4   9
ATOM      5  C   UNL     1       6.362   5.507  16.446  0.00  0.00    +0.000 A 
ATOM      6  C   UNL     1       7.241   6.403  17.058  0.00  0.00    +0.000 A 
ATOM      7  C   UNL     1       7.427   6.377  18.443  0.00  0.00    +0.000 A 
ATOM      8  C   UNL     1       6.748   5.445  19.227  0.00  0.00    +0.000 A 
ATOM      9  C   UNL     1       5.909   4.510  18.624  0.00  0.00    +0.000 A 
ATOM     10  C   UNL     1       5.750   4.533  17.233  0.00  0.00    +0.000 A 
BRANCH   5  11
ATOM     11  N   UNL     1       6.158   5.612  15.051  0.00  0.00    +0.000 N 
ATOM     12  H   UNL     1       5.303   6.079  14.776  0.00  0.00    +0.000 HD
BRANCH  11  13
ATOM     13  C   UNL     1       6.760   4.925  14.024  0.00  0.00    +0.000 C 
ATOM     14  S   UNL     1       6.205   3.682  13.063  0.00  0.00    +0.000 S 
BRANCH  13  15
ATOM     15  N   UNL     1       7.999   5.425  13.733  0.00  0.00    +0.000 N 
ATOM     16  H   UNL     1       8.145   6.401  13.967  0.00  0.00    +0.000 HD
ATOM     17  H   UNL     1       8.506   5.086  12.924  0.00  0.00    +0.000 HD
ENDBRANCH  13  15
ENDBRANCH  11  13
ENDBRANCH   5  11
ENDBRANCH   4   9
ENDBRANCH   3   4
ENDBRANCH   2   3
ENDBRANCH   1   2
BRANCH   1  18
ATOM     18  C   UNL     1       1.444   4.265  20.610  0.00  0.00    +0.000 C 
BRANCH  18  19
ATOM     19  C   UNL     1       1.411   5.753  20.937  0.00  0.00    +0.000 C 
BRANCH  19  20
ATOM     20  O   UNL     1       2.426   6.442  20.204  0.00  0.00    +0.000 OA
BRANCH  20  21
ATOM     21  C   UNL     1       2.020   7.622  19.632  0.00  0.00    +0.000 A 
ATOM     22  C   UNL     1       2.472   7.854  18.332  0.00  0.00    +0.000 A 
ATOM     23  C   UNL     1       2.167   9.052  17.680  0.00  0.00    +0.000 A 
ATOM     24  C   UNL     1       1.447  10.047  18.343  0.00  0.00    +0.000 A 
ATOM     25  C   UNL     1       1.016   9.830  19.650  0.00  0.00    +0.000 A 
ATOM     26  C   UNL     1       1.234   8.591  20.258  0.00  0.00    +0.000 A 
BRANCH  25  27
ATOM     27  O   UNL     1       0.364  10.867  20.284  0.00  0.00    +0.000 OA
BRANCH  27  28
ATOM     28  C   UNL     1       0.609  12.161  19.865  0.00  0.00    +0.000 A 
ATOM     29  C   UNL     1       1.749  12.899  20.207  0.00  0.00    +0.000 A 
ATOM     30  C   UNL     1       1.885  14.222  19.785  0.00  0.00    +0.000 A 
ATOM     31  C   UNL     1       0.913  14.796  18.968  0.00  0.00    +0.000 A 
ATOM     32  C   UNL     1      -0.192  14.044  18.571  0.00  0.00    +0.000 A 
ATOM     33  C   UNL     1      -0.347  12.730  19.020  0.00  0.00    +0.000 A 
ENDBRANCH  27  28
ENDBRANCH  25  27
ENDBRANCH  20  21
ENDBRANCH  19  20
ENDBRANCH  18  19
ENDBRANCH   1  18
TORSDOF 13
ENDMDL
MODEL 8
REMARK VINA RESULT:      -7.0      6.491     10.096
REMARK  Name = 
REMARK  13 active torsions:
REMARK  status: ('A' for Active; 'I' for Inactive)
REMARK    1  A    between atoms: N_1  and  C_2
REMARK    2  A    between atoms: C_2  and  N_4
REMARK    3  A    between atoms: N_4  and  C_5
REMARK    4  A    between atoms: C_9  and  O_10
REMARK    5  A    between atoms: O_10  and  C_11
REMARK    6  A    between atoms: C_11  and  C_12
REMARK    7  A    between atoms: C_12  and  C_13
REMARK    8  A    between atoms: C_13  and  C_14
REMARK    9  A    between atoms: C_14  and  C_15
REMARK   10  A    between atoms: C_15  and  O_16
REMARK   11  A    between atoms: O_16  and  C_17
REMARK   12  A    between atoms: C_21  and  O_22
REMARK   13  A    between atoms: O_22  and  C_23
REMARK                            x       y       z     vdW  Elec       q    Type
REMARK                         _______ _______ _______ _____ _____    ______ ____
ROOT
ATOM      1  C   UNL     1      -0.512   9.853  21.893  0.00  0.00    +0.000 C 
ENDROOT
BRANCH   1   2
ATOM      2  C   UNL     1      -0.934  11.301  22.192  0.00  0.00    +0.000 C 
BRANCH   2   3
ATOM      3  C   UNL     1      -0.565  12.235  21.048  0.00  0.00    +0.000 C 
BRANCH   3   4
ATOM      4  O   UNL     1      -0.132  11.496  19.904  0.00  0.00    +0.000 OA
BRANCH   4   9
ATOM      5  C   UNL     1      -3.318  11.550  17.977  0.00  0.00    +0.000 A 
ATOM      6  C   UNL     1      -3.046  10.505  17.092  0.00  0.00    +0.000 A 
ATOM      7  C   UNL     1      -1.817   9.840  17.140  0.00  0.00    +0.000 A 
ATOM      8  C   UNL     1      -0.856  10.203  18.083  0.00  0.00    +0.000 A 
ATOM      9  C   UNL     1      -1.135  11.209  19.006  0.00  0.00    +0.000 A 
ATOM     10  C   UNL     1      -2.379  11.851  18.962  0.00  0.00    +0.000 A 
BRANCH   5  11
ATOM     11  N   UNL     1      -4.548  12.234  17.850  0.00  0.00    +0.000 N 
ATOM     12  H   UNL     1      -4.510  13.092  17.315  0.00  0.00    +0.000 HD
BRANCH  11  13
ATOM     13  C   UNL     1      -5.706  12.098  18.580  0.00  0.00    +0.000 C 
ATOM     14  S   UNL     1      -6.781  10.831  18.702  0.00  0.00    +0.000 S 
BRANCH  13  15
ATOM     15  N   UNL     1      -5.939  13.185  19.376  0.00  0.00    +0.000 N 
ATOM     16  H   UNL     1      -5.642  13.094  20.341  0.00  0.00    +0.000 HD
ATOM     17  H   UNL     1      -6.756  13.763  19.219  0.00  0.00    +0.000 HD
ENDBRANCH  13  15
ENDBRANCH  11  13
ENDBRANCH   5  11
ENDBRANCH   4   9
ENDBRANCH   3   4
ENDBRANCH   2   3
ENDBRANCH   1   2
BRANCH   1  18
ATOM     18  C   UNL     1       0.709   9.357  22.683  0.00  0.00    +0.000 C 
BRANCH  18  19
ATOM     19  C   UNL     1       1.848   8.932  21.764  0.00  0.00    +0.000 C 
BRANCH  19  20
ATOM     20  O   UNL     1       1.328   8.465  20.517  0.00  0.00    +0.000 OA
BRANCH  20  21
ATOM     21  C   UNL     1       1.788   7.231  20.129  0.00  0.00    +0.000 A 
ATOM     22  C   UNL     1       1.394   6.158  20.929  0.00  0.00    +0.000 A 
ATOM     23  C   UNL     1       1.856   4.867  20.658  0.00  0.00    +0.000 A 
ATOM     24  C   UNL     1       2.755   4.649  19.612  0.00  0.00    +0.000 A 
ATOM     25  C   UNL     1       3.171   5.722  18.827  0.00  0.00    +0.000 A 
ATOM     26  C   UNL     1       2.625   6.992  19.038  0.00  0.00    +0.000 A 
BRANCH  25  27
ATOM     27  O   UNL     1       4.108   5.467  17.848  0.00  0.00    +0.000 OA
BRANCH  27  28
ATOM     28  C   UNL     1       5.413   5.869  18.055  0.00  0.00    +0.000 A 
ATOM     29  C   UNL     1       6.279   5.291  18.992  0.00  0.00    +0.000 A 
ATOM     30  C   UNL     1       7.565   5.803  19.172  0.00  0.00    +0.000 A 
ATOM     31  C   UNL     1       8.015   6.853  18.375  0.00  0.00    +0.000 A 
ATOM     32  C   UNL     1       7.180   7.388  17.395  0.00  0.00    +0.000 A 
ATOM     33  C   UNL     1       5.880   6.901  17.236  0.00  0.00    +0.000 A 
ENDBRANCH  27  28
ENDBRANCH  25  27
ENDBRANCH  20  21
ENDBRANCH  19  20
ENDBRANCH  18  19
ENDBRANCH   1  18
TORSDOF 13
ENDMDL
MODEL 9
REMARK VINA RESULT:      -7.0      0.862      1.327
REMARK  Name = 
REMARK  13 active torsions:
REMARK  status: ('A' for Active; 'I' for Inactive)
REMARK    1  A    between atoms: N_1  and  C_2
REMARK    2  A    between atoms: C_2  and  N_4
REMARK    3  A    between atoms: N_4  and  C_5
REMARK    4  A    between atoms: C_9  and  O_10
REMARK    5  A    between atoms: O_10  and  C_11
REMARK    6  A    between atoms: C_11  and  C_12
REMARK    7  A    between atoms: C_12  and  C_13
REMARK    8  A    between atoms: C_13  and  C_14
REMARK    9  A    between atoms: C_14  and  C_15
REMARK   10  A    between atoms: C_15  and  O_16
REMARK   11  A    between atoms: O_16  and  C_17
REMARK   12  A    between atoms: C_21  and  O_22
REMARK   13  A    between atoms: O_22  and  C_23
REMARK                            x       y       z     vdW  Elec       q    Type
REMARK                         _______ _______ _______ _____ _____    ______ ____
ROOT
ATOM      1  C   UNL     1       7.842   7.383  18.110  0.00  0.00    +0.000 C 
ENDROOT
BRANCH   1   2
ATOM      2  C   UNL     1       7.856   8.885  17.779  0.00  0.00    +0.000 C 
BRANCH   2   3
ATOM      3  C   UNL     1       8.939   9.616  18.561  0.00  0.00    +0.000 C 
BRANCH   3   4
ATOM      4  O   UNL     1       8.641  11.009  18.666  0.00  0.00    +0.000 OA
BRANCH   4   9
ATOM      5  C   UNL     1      10.817  13.840  17.609  0.00  0.00    +0.000 A 
ATOM      6  C   UNL     1      12.021  13.396  18.159  0.00  0.00    +0.000 A 
ATOM      7  C   UNL     1      12.070  12.200  18.882  0.00  0.00    +0.000 A 
ATOM      8  C   UNL     1      10.919  11.430  19.047  0.00  0.00    +0.000 A 
ATOM      9  C   UNL     1       9.722  11.834  18.458  0.00  0.00    +0.000 A 
ATOM     10  C   UNL     1       9.693  13.022  17.717  0.00  0.00    +0.000 A 
BRANCH   5  11
ATOM     11  N   UNL     1      10.803  15.086  16.941  0.00  0.00    +0.000 N 
ATOM     12  H   UNL     1      11.560  15.231  16.286  0.00  0.00    +0.000 HD
BRANCH  11  13
ATOM     13  C   UNL     1      10.122  16.239  17.254  0.00  0.00    +0.000 C 
ATOM     14  S   UNL     1       8.765  16.492  18.187  0.00  0.00    +0.000 S 
BRANCH  13  15
ATOM     15  N   UNL     1      10.738  17.349  16.745  0.00  0.00    +0.000 N 
ATOM     16  H   UNL     1      10.751  17.419  15.733  0.00  0.00    +0.000 HD
ATOM     17  H   UNL     1      11.534  17.751  17.225  0.00  0.00    +0.000 HD
ENDBRANCH  13  15
ENDBRANCH  11  13
ENDBRANCH   5  11
ENDBRANCH   4   9
ENDBRANCH   3   4
ENDBRANCH   2   3
ENDBRANCH   1   2
BRANCH   1  18
ATOM     18  C   UNL     1       7.546   6.459  16.919  0.00  0.00    +0.000 C 
BRANCH  18  19
ATOM     19  C   UNL     1       6.804   5.199  17.347  0.00  0.00    +0.000 C 
BRANCH  19  20
ATOM     20  O   UNL     1       5.532   5.130  16.697  0.00  0.00    +0.000 OA
BRANCH  20  21
ATOM     21  C   UNL     1       4.553   5.904  17.269  0.00  0.00    +0.000 A 
ATOM     22  C   UNL     1       4.372   7.168  16.705  0.00  0.00    +0.000 A 
ATOM     23  C   UNL     1       3.443   8.058  17.250  0.00  0.00    +0.000 A 
ATOM     24  C   UNL     1       2.723   7.708  18.393  0.00  0.00    +0.000 A 
ATOM     25  C   UNL     1       2.919   6.457  18.974  0.00  0.00    +0.000 A 
ATOM     26  C   UNL     1       3.772   5.532  18.364  0.00  0.00    +0.000 A 
BRANCH  25  27
ATOM     27  O   UNL     1       2.231   6.182  20.137  0.00  0.00    +0.000 OA
BRANCH  27  28
ATOM     28  C   UNL     1       1.889   4.872  20.414  0.00  0.00    +0.000 A 
ATOM     29  C   UNL     1       1.031   4.096  19.625  0.00  0.00    +0.000 A 
ATOM     30  C   UNL     1       0.695   2.799  20.015  0.00  0.00    +0.000 A 
ATOM     31  C   UNL     1       1.264   2.247  21.161  0.00  0.00    +0.000 A 
ATOM     32  C   UNL     1       2.170   2.992  21.915  0.00  0.00    +0.000 A 
ATOM     33  C   UNL     1       2.481   4.304  21.545  0.00  0.00    +0.000 A 
ENDBRANCH  27  28
ENDBRANCH  25  27
ENDBRANCH  20  21
ENDBRANCH  19  20
ENDBRANCH  18  19
ENDBRANCH   1  18
TORSDOF 13
ENDMDL
