MODEL 1
REMARK VINA RESULT:      -7.9      0.000      0.000
REMARK  Name = 
REMARK  12 active torsions:
REMARK  status: ('A' for Active; 'I' for Inactive)
REMARK    1  A    between atoms: C_1  and  O_2
REMARK    2  A    between atoms: O_2  and  C_3
REMARK    3  A    between atoms: C_6  and  C_7
REMARK    4  A    between atoms: C_7  and  C_8
REMARK    5  A    between atoms: C_8  and  N_9
REMARK    6  A    between atoms: N_9  and  C_10
REMARK    7  A    between atoms: C_15  and  C_16
REMARK    8  A    between atoms: N_18  and  C_19
REMARK    9  A    between atoms: C_19  and  C_20
REMARK   10  A    between atoms: C_20  and  C_21
REMARK   11  A    between atoms: C_31  and  O_32
REMARK   12  A    between atoms: O_32  and  C_33
REMARK                            x       y       z     vdW  Elec       q    Type
REMARK                         _______ _______ _______ _____ _____    ______ ____
ROOT
ATOM      1  C   UNL     1       2.053   7.384  19.874  0.00  0.00    +0.000 A 
ATOM      2  C   UNL     1       2.427   7.205  18.512  0.00  0.00    +0.000 A 
ATOM      3  C   UNL     1       2.341   8.215  17.551  0.00  0.00    +0.000 A 
ATOM      4  C   UNL     1       1.861   9.445  17.925  0.00  0.00    +0.000 A 
ATOM      5  C   UNL     1       1.456   9.659  19.238  0.00  0.00    +0.000 A 
ATOM      6  C   UNL     1       1.527   8.650  20.240  0.00  0.00    +0.000 A 
ENDROOT
BRANCH   6   7
ATOM      7  C   UNL     1       1.036   9.115  21.603  0.00  0.00    +0.000 C 
ATOM      8  O   UNL     1       1.837   9.208  22.530  0.00  0.00    +0.000 OA
ATOM      9  N   UNL     1      -0.273   9.518  21.743  0.00  0.00    +0.000 N 
ATOM     10  H   UNL     1      -0.870   9.345  20.938  0.00  0.00    +0.000 HD
BRANCH   9  11
ATOM     11  C   UNL     1      -0.923  10.009  22.989  0.00  0.00    +0.000 C 
BRANCH  11  12
ATOM     12  C   UNL     1      -1.514  11.479  23.146  0.00  0.00    +0.000 C 
BRANCH  12  13
ATOM     13  C   UNL     1      -1.336  12.354  21.939  0.00  0.00    +0.000 A 
ATOM     14  C   UNL     1      -2.389  13.128  21.446  0.00  0.00    +0.000 A 
ATOM     15  N   UNL     1      -2.302  12.681  20.124  0.00  0.00    +0.000 N 
ATOM     16  C   UNL     1      -0.988  13.019  19.819  0.00  0.00    +0.000 A 
ATOM     17  C   UNL     1      -0.451  13.445  18.606  0.00  0.00    +0.000 A 
ATOM     18  C   UNL     1       0.906  13.720  18.597  0.00  0.00    +0.000 A 
ATOM     19  C   UNL     1       1.684  13.452  19.728  0.00  0.00    +0.000 A 
ATOM     20  C   UNL     1       1.130  12.906  20.923  0.00  0.00    +0.000 A 
ATOM     21  C   UNL     1      -0.278  12.750  21.008  0.00  0.00    +0.000 A 
ATOM     22  H   UNL     1      -2.590  11.733  19.926  0.00  0.00    +0.000 HD
ENDBRANCH  12  13
ENDBRANCH  11  12
ENDBRANCH   9  11
ENDBRANCH   6   7
BRANCH   1  23
ATOM     23  N   UNL     1       2.236   6.319  20.807  0.00  0.00    +0.000 N 
ATOM     24  H   UNL     1       3.235   6.279  21.023  0.00  0.00    +0.000 HD
BRANCH  23  25
ATOM     25  C   UNL     1       1.746   4.985  20.370  0.00  0.00    +0.000 C 
BRANCH  25  26
ATOM     26  C   UNL     1       2.817   3.897  20.437  0.00  0.00    +0.000 C 
BRANCH  26  30
ATOM     27  C   UNL     1       5.440   4.420  17.015  0.00  0.00    +0.000 A 
ATOM     28  C   UNL     1       4.093   4.065  16.847  0.00  0.00    +0.000 A 
ATOM     29  C   UNL     1       3.247   3.886  17.945  0.00  0.00    +0.000 A 
ATOM     30  C   UNL     1       3.744   4.004  19.242  0.00  0.00    +0.000 A 
ATOM     31  C   UNL     1       5.106   4.295  19.411  0.00  0.00    +0.000 A 
ATOM     32  C   UNL     1       5.963   4.508  18.315  0.00  0.00    +0.000 A 
BRANCH  27  34
ATOM     33  C   UNL     1       6.046   3.803  14.811  0.00  0.00    +0.000 C 
ATOM     34  O   UNL     1       6.254   4.655  15.937  0.00  0.00    +0.000 OA
ENDBRANCH  27  34
BRANCH  32  35
ATOM     35  O   UNL     1       7.242   4.799  18.714  0.00  0.00    +0.000 OA
ATOM     36  C   UNL     1       7.668   6.152  18.742  0.00  0.00    +0.000 C 
ENDBRANCH  32  35
ENDBRANCH  26  30
ENDBRANCH  25  26
ENDBRANCH  23  25
ENDBRANCH   1  23
TORSDOF 10
ENDMDL
MODEL 2
REMARK VINA RESULT:      -7.8      2.239      4.546
REMARK  Name = 
REMARK  12 active torsions:
REMARK  status: ('A' for Active; 'I' for Inactive)
REMARK    1  A    between atoms: C_1  and  O_2
REMARK    2  A    between atoms: O_2  and  C_3
REMARK    3  A    between atoms: C_6  and  C_7
REMARK    4  A    between atoms: C_7  and  C_8
REMARK    5  A    between atoms: C_8  and  N_9
REMARK    6  A    between atoms: N_9  and  C_10
REMARK    7  A    between atoms: C_15  and  C_16
REMARK    8  A    between atoms: N_18  and  C_19
REMARK    9  A    between atoms: C_19  and  C_20
REMARK   10  A    between atoms: C_20  and  C_21
REMARK   11  A    between atoms: C_31  and  O_32
REMARK   12  A    between atoms: O_32  and  C_33
REMARK                            x       y       z     vdW  Elec       q    Type
REMARK                         _______ _______ _______ _____ _____    ______ ____
ROOT
ATOM      1  C   UNL     1       2.025   3.325  19.162  0.00  0.00    +0.000 A 
ATOM      2  C   UNL     1       2.173   2.514  20.323  0.00  0.00    +0.000 A 
ATOM      3  C   UNL     1       2.246   3.031  21.619  0.00  0.00    +0.000 A 
ATOM      4  C   UNL     1       2.185   4.391  21.792  0.00  0.00    +0.000 A 
ATOM      5  C   UNL     1       2.071   5.225  20.686  0.00  0.00    +0.000 A 
ATOM      6  C   UNL     1       1.997   4.730  19.353  0.00  0.00    +0.000 A 
ENDROOT
BRANCH   6   7
ATOM      7  C   UNL     1       1.867   5.827  18.307  0.00  0.00    +0.000 C 
ATOM      8  O   UNL     1       1.177   5.627  17.310  0.00  0.00    +0.000 OA
ATOM      9  N   UNL     1       2.442   7.054  18.546  0.00  0.00    +0.000 N 
ATOM     10  H   UNL     1       3.043   7.101  19.365  0.00  0.00    +0.000 HD
BRANCH   9  11
ATOM     11  C   UNL     1       2.411   8.241  17.647  0.00  0.00    +0.000 C 
BRANCH  11  12
ATOM     12  C   UNL     1       2.176   9.726  18.168  0.00  0.00    +0.000 C 
BRANCH  12  13
ATOM     13  C   UNL     1       1.022   9.880  19.116  0.00  0.00    +0.000 A 
ATOM     14  C   UNL     1      -0.254  10.211  18.654  0.00  0.00    +0.000 A 
ATOM     15  N   UNL     1      -0.455  11.290  19.521  0.00  0.00    +0.000 N 
ATOM     16  C   UNL     1      -0.302  10.667  20.755  0.00  0.00    +0.000 A 
ATOM     17  C   UNL     1      -0.953  10.932  21.958  0.00  0.00    +0.000 A 
ATOM     18  C   UNL     1      -0.600  10.138  23.036  0.00  0.00    +0.000 A 
ATOM     19  C   UNL     1       0.447   9.218  22.917  0.00  0.00    +0.000 A 
ATOM     20  C   UNL     1       1.176   9.045  21.704  0.00  0.00    +0.000 A 
ATOM     21  C   UNL     1       0.741   9.741  20.546  0.00  0.00    +0.000 A 
ATOM     22  H   UNL     1       0.082  12.131  19.362  0.00  0.00    +0.000 HD
ENDBRANCH  12  13
ENDBRANCH  11  12
ENDBRANCH   9  11
ENDBRANCH   6   7
BRANCH   1  23
ATOM     23  N   UNL     1       1.890   2.710  17.880  0.00  0.00    +0.000 N 
ATOM     24  H   UNL     1       1.713   1.716  18.041  0.00  0.00    +0.000 HD
BRANCH  23  25
ATOM     25  C   UNL     1       3.037   2.890  16.952  0.00  0.00    +0.000 C 
BRANCH  25  26
ATOM     26  C   UNL     1       4.395   2.763  17.641  0.00  0.00    +0.000 C 
BRANCH  26  30
ATOM     27  C   UNL     1       6.980   6.178  16.919  0.00  0.00    +0.000 A 
ATOM     28  C   UNL     1       6.300   6.029  18.137  0.00  0.00    +0.000 A 
ATOM     29  C   UNL     1       5.459   4.937  18.372  0.00  0.00    +0.000 A 
ATOM     30  C   UNL     1       5.235   3.995  17.369  0.00  0.00    +0.000 A 
ATOM     31  C   UNL     1       5.865   4.178  16.129  0.00  0.00    +0.000 A 
ATOM     32  C   UNL     1       6.737   5.256  15.889  0.00  0.00    +0.000 A 
BRANCH  27  34
ATOM     33  C   UNL     1       7.826   8.247  17.700  0.00  0.00    +0.000 C 
ATOM     34  O   UNL     1       7.851   7.217  16.713  0.00  0.00    +0.000 OA
ENDBRANCH  27  34
BRANCH  32  35
ATOM     35  O   UNL     1       7.252   5.225  14.619  0.00  0.00    +0.000 OA
ATOM     36  C   UNL     1       6.723   4.303  13.678  0.00  0.00    +0.000 C 
ENDBRANCH  32  35
ENDBRANCH  26  30
ENDBRANCH  25  26
ENDBRANCH  23  25
ENDBRANCH   1  23
TORSDOF 10
ENDMDL
MODEL 3
REMARK VINA RESULT:      -7.7      2.455      9.451
REMARK  Name = 
REMARK  12 active torsions:
REMARK  status: ('A' for Active; 'I' for Inactive)
REMARK    1  A    between atoms: C_1  and  O_2
REMARK    2  A    between atoms: O_2  and  C_3
REMARK    3  A    between atoms: C_6  and  C_7
REMARK    4  A    between atoms: C_7  and  C_8
REMARK    5  A    between atoms: C_8  and  N_9
REMARK    6  A    between atoms: N_9  and  C_10
REMARK    7  A    between atoms: C_15  and  C_16
REMARK    8  A    between atoms: N_18  and  C_19
REMARK    9  A    between atoms: C_19  and  C_20
REMARK   10  A    between atoms: C_20  and  C_21
REMARK   11  A    between atoms: C_31  and  O_32
REMARK   12  A    between atoms: O_32  and  C_33
REMARK                            x       y       z     vdW  Elec       q    Type
REMARK                         _______ _______ _______ _____ _____    ______ ____
ROOT
ATOM      1  C   UNL     1       2.425   4.626  19.713  0.00  0.00    +0.000 A 
ATOM      2  C   UNL     1       1.356   4.353  20.613  0.00  0.00    +0.000 A 
ATOM      3  C   UNL     1       1.368   3.294  21.523  0.00  0.00    +0.000 A 
ATOM      4  C   UNL     1       2.457   2.459  21.552  0.00  0.00    +0.000 A 
ATOM      5  C   UNL     1       3.512   2.669  20.673  0.00  0.00    +0.000 A 
ATOM      6  C   UNL     1       3.529   3.737  19.731  0.00  0.00    +0.000 A 
ENDROOT
BRANCH   6   7
ATOM      7  C   UNL     1       4.790   3.771  18.879  0.00  0.00    +0.000 C 
ATOM      8  O   UNL     1       4.893   2.998  17.930  0.00  0.00    +0.000 OA
ATOM      9  N   UNL     1       5.742   4.733  19.128  0.00  0.00    +0.000 N 
ATOM     10  H   UNL     1       5.596   5.283  19.971  0.00  0.00    +0.000 HD
BRANCH   9  11
ATOM     11  C   UNL     1       7.025   4.923  18.396  0.00  0.00    +0.000 C 
BRANCH  11  12
ATOM     12  C   UNL     1       7.194   5.933  17.177  0.00  0.00    +0.000 C 
BRANCH  12  13
ATOM     13  C   UNL     1       6.484   5.519  15.921  0.00  0.00    +0.000 A 
ATOM     14  C   UNL     1       5.091   5.577  15.825  0.00  0.00    +0.000 A 
ATOM     15  N   UNL     1       4.913   4.260  15.389  0.00  0.00    +0.000 N 
ATOM     16  C   UNL     1       5.690   4.258  14.237  0.00  0.00    +0.000 A 
ATOM     17  C   UNL     1       5.483   3.573  13.041  0.00  0.00    +0.000 A 
ATOM     18  C   UNL     1       6.430   3.767  12.049  0.00  0.00    +0.000 A 
ATOM     19  C   UNL     1       7.582   4.516  12.315  0.00  0.00    +0.000 A 
ATOM     20  C   UNL     1       7.826   5.113  13.586  0.00  0.00    +0.000 A 
ATOM     21  C   UNL     1       6.807   5.051  14.572  0.00  0.00    +0.000 A 
ATOM     22  H   UNL     1       5.075   3.516  16.054  0.00  0.00    +0.000 HD
ENDBRANCH  12  13
ENDBRANCH  11  12
ENDBRANCH   9  11
ENDBRANCH   6   7
BRANCH   1  23
ATOM     23  N   UNL     1       2.361   5.771  18.861  0.00  0.00    +0.000 N 
ATOM     24  H   UNL     1       3.190   5.745  18.262  0.00  0.00    +0.000 HD
BRANCH  23  25
ATOM     25  C   UNL     1       2.258   7.084  19.550  0.00  0.00    +0.000 C 
BRANCH  25  26
ATOM     26  C   UNL     1       2.191   8.267  18.585  0.00  0.00    +0.000 C 
BRANCH  26  30
ATOM     27  C   UNL     1      -0.822  11.030  20.051  0.00  0.00    +0.000 A 
ATOM     28  C   UNL     1      -0.703  10.748  18.681  0.00  0.00    +0.000 A 
ATOM     29  C   UNL     1       0.271   9.868  18.203  0.00  0.00    +0.000 A 
ATOM     30  C   UNL     1       1.187   9.289  19.081  0.00  0.00    +0.000 A 
ATOM     31  C   UNL     1       1.109   9.621  20.441  0.00  0.00    +0.000 A 
ATOM     32  C   UNL     1       0.114  10.482  20.941  0.00  0.00    +0.000 A 
BRANCH  27  34
ATOM     33  C   UNL     1      -1.540  13.245  20.481  0.00  0.00    +0.000 C 
ATOM     34  O   UNL     1      -1.817  11.846  20.525  0.00  0.00    +0.000 OA
ENDBRANCH  27  34
BRANCH  32  35
ATOM     35  O   UNL     1       0.215  10.647  22.298  0.00  0.00    +0.000 OA
ATOM     36  C   UNL     1       0.028   9.527  23.149  0.00  0.00    +0.000 C 
ENDBRANCH  32  35
ENDBRANCH  26  30
ENDBRANCH  25  26
ENDBRANCH  23  25
ENDBRANCH   1  23
TORSDOF 10
ENDMDL
MODEL 4
REMARK VINA RESULT:      -7.7      2.080      3.295
REMARK  Name = 
REMARK  12 active torsions:
REMARK  status: ('A' for Active; 'I' for Inactive)
REMARK    1  A    between atoms: C_1  and  O_2
REMARK    2  A    between atoms: O_2  and  C_3
REMARK    3  A    between atoms: C_6  and  C_7
REMARK    4  A    between atoms: C_7  and  C_8
REMARK    5  A    between atoms: C_8  and  N_9
REMARK    6  A    between atoms: N_9  and  C_10
REMARK    7  A    between atoms: C_15  and  C_16
REMARK    8  A    between atoms: N_18  and  C_19
REMARK    9  A    between atoms: C_19  and  C_20
REMARK   10  A    between atoms: C_20  and  C_21
REMARK   11  A    between atoms: C_31  and  O_32
REMARK   12  A    between atoms: O_32  and  C_33
REMARK                            x       y       z     vdW  Elec       q    Type
REMARK                         _______ _______ _______ _____ _____    ______ ____
ROOT
ATOM      1  C   UNL     1       1.712   7.969  20.006  0.00  0.00    +0.000 A 
ATOM      2  C   UNL     1       2.216   7.845  18.680  0.00  0.00    +0.000 A 
ATOM      3  C   UNL     1       2.149   8.869  17.732  0.00  0.00    +0.000 A 
ATOM      4  C   UNL     1       1.558  10.057  18.083  0.00  0.00    +0.000 A 
ATOM      5  C   UNL     1       1.025  10.215  19.357  0.00  0.00    +0.000 A 
ATOM      6  C   UNL     1       1.075   9.190  20.344  0.00  0.00    +0.000 A 
ENDROOT
BRANCH   6   7
ATOM      7  C   UNL     1       0.435   9.593  21.666  0.00  0.00    +0.000 C 
ATOM      8  O   UNL     1       0.824   9.065  22.705  0.00  0.00    +0.000 OA
ATOM      9  N   UNL     1      -0.493  10.608  21.680  0.00  0.00    +0.000 N 
ATOM     10  H   UNL     1      -0.794  10.936  20.766  0.00  0.00    +0.000 HD
BRANCH   9  11
ATOM     11  C   UNL     1      -1.211  11.138  22.872  0.00  0.00    +0.000 C 
BRANCH  11  12
ATOM     12  C   UNL     1      -1.453  12.691  23.127  0.00  0.00    +0.000 C 
BRANCH  12  13
ATOM     13  C   UNL     1      -2.884  13.067  23.379  0.00  0.00    +0.000 A 
ATOM     14  C   UNL     1      -3.239  13.883  24.455  0.00  0.00    +0.000 A 
ATOM     15  N   UNL     1      -4.222  13.035  24.973  0.00  0.00    +0.000 N 
ATOM     16  C   UNL     1      -5.072  12.918  23.879  0.00  0.00    +0.000 A 
ATOM     17  C   UNL     1      -6.459  12.791  23.856  0.00  0.00    +0.000 A 
ATOM     18  C   UNL     1      -7.047  12.699  22.605  0.00  0.00    +0.000 A 
ATOM     19  C   UNL     1      -6.249  12.615  21.459  0.00  0.00    +0.000 A 
ATOM     20  C   UNL     1      -4.825  12.632  21.518  0.00  0.00    +0.000 A 
ATOM     21  C   UNL     1      -4.201  12.870  22.771  0.00  0.00    +0.000 A 
ATOM     22  H   UNL     1      -3.921  12.177  25.415  0.00  0.00    +0.000 HD
ENDBRANCH  12  13
ENDBRANCH  11  12
ENDBRANCH   9  11
ENDBRANCH   6   7
BRANCH   1  23
ATOM     23  N   UNL     1       1.882   6.897  20.933  0.00  0.00    +0.000 N 
ATOM     24  H   UNL     1       2.842   6.953  21.283  0.00  0.00    +0.000 HD
BRANCH  23  25
ATOM     25  C   UNL     1       1.600   5.536  20.407  0.00  0.00    +0.000 C 
BRANCH  25  26
ATOM     26  C   UNL     1       2.698   4.524  20.731  0.00  0.00    +0.000 C 
BRANCH  26  30
ATOM     27  C   UNL     1       5.304   4.295  17.264  0.00  0.00    +0.000 A 
ATOM     28  C   UNL     1       4.218   3.419  17.413  0.00  0.00    +0.000 A 
ATOM     29  C   UNL     1       3.382   3.481  18.531  0.00  0.00    +0.000 A 
ATOM     30  C   UNL     1       3.647   4.389  19.557  0.00  0.00    +0.000 A 
ATOM     31  C   UNL     1       4.769   5.221  19.438  0.00  0.00    +0.000 A 
ATOM     32  C   UNL     1       5.602   5.190  18.304  0.00  0.00    +0.000 A 
BRANCH  27  34
ATOM     33  C   UNL     1       5.409   4.540  14.911  0.00  0.00    +0.000 C 
ATOM     34  O   UNL     1       6.086   4.273  16.139  0.00  0.00    +0.000 OA
ENDBRANCH  27  34
BRANCH  32  35
ATOM     35  O   UNL     1       6.623   6.101  18.393  0.00  0.00    +0.000 OA
ATOM     36  C   UNL     1       7.794   5.761  19.120  0.00  0.00    +0.000 C 
ENDBRANCH  32  35
ENDBRANCH  26  30
ENDBRANCH  25  26
ENDBRANCH  23  25
ENDBRANCH   1  23
TORSDOF 10
ENDMDL
MODEL 5
REMARK VINA RESULT:      -7.6      1.853      4.081
REMARK  Name = 
REMARK  12 active torsions:
REMARK  status: ('A' for Active; 'I' for Inactive)
REMARK    1  A    between atoms: C_1  and  O_2
REMARK    2  A    between atoms: O_2  and  C_3
REMARK    3  A    between atoms: C_6  and  C_7
REMARK    4  A    between atoms: C_7  and  C_8
REMARK    5  A    between atoms: C_8  and  N_9
REMARK    6  A    between atoms: N_9  and  C_10
REMARK    7  A    between atoms: C_15  and  C_16
REMARK    8  A    between atoms: N_18  and  C_19
REMARK    9  A    between atoms: C_19  and  C_20
REMARK   10  A    between atoms: C_20  and  C_21
REMARK   11  A    between atoms: C_31  and  O_32
REMARK   12  A    between atoms: O_32  and  C_33
REMARK                            x       y       z     vdW  Elec       q    Type
REMARK                         _______ _______ _______ _____ _____    ______ ____
ROOT
ATOM      1  C   UNL     1       1.884   3.832  19.154  0.00  0.00    +0.000 A 
ATOM      2  C   UNL     1       1.879   2.476  19.591  0.00  0.00    +0.000 A 
ATOM      3  C   UNL     1       1.969   2.100  20.933  0.00  0.00    +0.000 A 
ATOM      4  C   UNL     1       2.081   3.079  21.888  0.00  0.00    +0.000 A 
ATOM      5  C   UNL     1       2.120   4.415  21.508  0.00  0.00    +0.000 A 
ATOM      6  C   UNL     1       2.034   4.832  20.149  0.00  0.00    +0.000 A 
ENDROOT
BRANCH   6   7
ATOM      7  C   UNL     1       2.091   6.343  19.974  0.00  0.00    +0.000 C 
ATOM      8  O   UNL     1       2.475   6.808  18.905  0.00  0.00    +0.000 OA
ATOM      9  N   UNL     1       1.616   7.153  20.981  0.00  0.00    +0.000 N 
ATOM     10  H   UNL     1       1.380   6.677  21.848  0.00  0.00    +0.000 HD
BRANCH   9  11
ATOM     11  C   UNL     1       1.584   8.641  20.982  0.00  0.00    +0.000 C 
BRANCH  11  12
ATOM     12  C   UNL     1       0.973   9.503  19.790  0.00  0.00    +0.000 C 
BRANCH  12  13
ATOM     13  C   UNL     1       0.417  10.834  20.204  0.00  0.00    +0.000 A 
ATOM     14  C   UNL     1       0.415  11.921  19.327  0.00  0.00    +0.000 A 
ATOM     15  N   UNL     1       1.031  12.823  20.200  0.00  0.00    +0.000 N 
ATOM     16  C   UNL     1       0.149  12.794  21.274  0.00  0.00    +0.000 A 
ATOM     17  C   UNL     1      -0.214  13.825  22.139  0.00  0.00    +0.000 A 
ATOM     18  C   UNL     1      -1.131  13.504  23.126  0.00  0.00    +0.000 A 
ATOM     19  C   UNL     1      -1.550  12.180  23.293  0.00  0.00    +0.000 A 
ATOM     20  C   UNL     1      -1.074  11.120  22.465  0.00  0.00    +0.000 A 
ATOM     21  C   UNL     1      -0.247  11.443  21.358  0.00  0.00    +0.000 A 
ATOM     22  H   UNL     1       2.011  12.686  20.407  0.00  0.00    +0.000 HD
ENDBRANCH  12  13
ENDBRANCH  11  12
ENDBRANCH   9  11
ENDBRANCH   6   7
BRANCH   1  23
ATOM     23  N   UNL     1       1.719   4.131  17.768  0.00  0.00    +0.000 N 
ATOM     24  H   UNL     1       0.727   4.008  17.551  0.00  0.00    +0.000 HD
BRANCH  23  25
ATOM     25  C   UNL     1       2.558   3.338  16.831  0.00  0.00    +0.000 C 
BRANCH  25  26
ATOM     26  C   UNL     1       3.933   2.992  17.398  0.00  0.00    +0.000 C 
BRANCH  26  30
ATOM     27  C   UNL     1       6.822   6.198  16.912  0.00  0.00    +0.000 A 
ATOM     28  C   UNL     1       6.128   6.026  18.119  0.00  0.00    +0.000 A 
ATOM     29  C   UNL     1       5.190   5.002  18.278  0.00  0.00    +0.000 A 
ATOM     30  C   UNL     1       4.884   4.157  17.211  0.00  0.00    +0.000 A 
ATOM     31  C   UNL     1       5.531   4.370  15.985  0.00  0.00    +0.000 A 
ATOM     32  C   UNL     1       6.499   5.378  15.820  0.00  0.00    +0.000 A 
BRANCH  27  34
ATOM     33  C   UNL     1       8.008   7.977  17.929  0.00  0.00    +0.000 C 
ATOM     34  O   UNL     1       7.785   7.165  16.778  0.00  0.00    +0.000 OA
ENDBRANCH  27  34
BRANCH  32  35
ATOM     35  O   UNL     1       7.014   5.390  14.549  0.00  0.00    +0.000 OA
ATOM     36  C   UNL     1       6.710   4.320  13.668  0.00  0.00    +0.000 C 
ENDBRANCH  32  35
ENDBRANCH  26  30
ENDBRANCH  25  26
ENDBRANCH  23  25
ENDBRANCH   1  23
TORSDOF 10
ENDMDL
MODEL 6
REMARK VINA RESULT:      -7.6      3.679     10.122
REMARK  Name = 
REMARK  12 active torsions:
REMARK  status: ('A' for Active; 'I' for Inactive)
REMARK    1  A    between atoms: C_1  and  O_2
REMARK    2  A    between atoms: O_2  and  C_3
REMARK    3  A    between atoms: C_6  and  C_7
REMARK    4  A    between atoms: C_7  and  C_8
REMARK    5  A    between atoms: C_8  and  N_9
REMARK    6  A    between atoms: N_9  and  C_10
REMARK    7  A    between atoms: C_15  and  C_16
REMARK    8  A    between atoms: N_18  and  C_19
REMARK    9  A    between atoms: C_19  and  C_20
REMARK   10  A    between atoms: C_20  and  C_21
REMARK   11  A    between atoms: C_31  and  O_32
REMARK   12  A    between atoms: O_32  and  C_33
REMARK                            x       y       z     vdW  Elec       q    Type
REMARK                         _______ _______ _______ _____ _____    ______ ____
ROOT
ATOM      1  C   UNL     1      -0.009  10.111  19.711  0.00  0.00    +0.000 A 
ATOM      2  C   UNL     1      -0.616  10.266  20.989  0.00  0.00    +0.000 A 
ATOM      3  C   UNL     1      -0.142   9.645  22.147  0.00  0.00    +0.000 A 
ATOM      4  C   UNL     1       0.959   8.830  22.057  0.00  0.00    +0.000 A 
ATOM      5  C   UNL     1       1.568   8.625  20.825  0.00  0.00    +0.000 A 
ATOM      6  C   UNL     1       1.108   9.240  19.626  0.00  0.00    +0.000 A 
ENDROOT
BRANCH   6   7
ATOM      7  C   UNL     1       1.935   8.874  18.402  0.00  0.00    +0.000 C 
ATOM      8  O   UNL     1       1.953   9.638  17.440  0.00  0.00    +0.000 OA
ATOM      9  N   UNL     1       2.724   7.747  18.438  0.00  0.00    +0.000 N 
ATOM     10  H   UNL     1       2.593   7.149  19.249  0.00  0.00    +0.000 HD
BRANCH   9  11
ATOM     11  C   UNL     1       3.600   7.242  17.345  0.00  0.00    +0.000 C 
BRANCH  11  12
ATOM     12  C   UNL     1       4.524   5.953  17.492  0.00  0.00    +0.000 C 
BRANCH  12  13
ATOM     13  C   UNL     1       3.806   4.721  17.958  0.00  0.00    +0.000 A 
ATOM     14  C   UNL     1       3.998   3.490  17.327  0.00  0.00    +0.000 A 
ATOM     15  N   UNL     1       2.644   3.211  17.120  0.00  0.00    +0.000 N 
ATOM     16  C   UNL     1       2.163   3.257  18.423  0.00  0.00    +0.000 A 
ATOM     17  C   UNL     1       1.150   2.502  19.012  0.00  0.00    +0.000 A 
ATOM     18  C   UNL     1       0.887   2.761  20.347  0.00  0.00    +0.000 A 
ATOM     19  C   UNL     1       1.535   3.816  20.998  0.00  0.00    +0.000 A 
ATOM     20  C   UNL     1       2.487   4.649  20.340  0.00  0.00    +0.000 A 
ATOM     21  C   UNL     1       2.880   4.316  19.018  0.00  0.00    +0.000 A 
ATOM     22  H   UNL     1       2.149   3.758  16.429  0.00  0.00    +0.000 HD
ENDBRANCH  12  13
ENDBRANCH  11  12
ENDBRANCH   9  11
ENDBRANCH   6   7
BRANCH   1  23
ATOM     23  N   UNL     1      -0.517  10.836  18.591  0.00  0.00    +0.000 N 
ATOM     24  H   UNL     1      -0.779  11.765  18.929  0.00  0.00    +0.000 HD
BRANCH  23  25
ATOM     25  C   UNL     1      -1.656  10.204  17.874  0.00  0.00    +0.000 C 
BRANCH  25  26
ATOM     26  C   UNL     1      -2.376  11.160  16.924  0.00  0.00    +0.000 C 
BRANCH  26  30
ATOM     27  C   UNL     1      -6.185  12.229  18.718  0.00  0.00    +0.000 A 
ATOM     28  C   UNL     1      -6.071  12.008  17.337  0.00  0.00    +0.000 A 
ATOM     29  C   UNL     1      -4.846  11.673  16.753  0.00  0.00    +0.000 A 
ATOM     30  C   UNL     1      -3.691  11.606  17.532  0.00  0.00    +0.000 A 
ATOM     31  C   UNL     1      -3.793  11.890  18.902  0.00  0.00    +0.000 A 
ATOM     32  C   UNL     1      -5.025  12.199  19.508  0.00  0.00    +0.000 A 
BRANCH  27  34
ATOM     33  C   UNL     1      -7.858  13.842  19.172  0.00  0.00    +0.000 C 
ATOM     34  O   UNL     1      -7.398  12.497  19.298  0.00  0.00    +0.000 OA
ENDBRANCH  27  34
BRANCH  32  35
ATOM     35  O   UNL     1      -4.892  12.419  20.855  0.00  0.00    +0.000 OA
ATOM     36  C   UNL     1      -4.654  13.738  21.322  0.00  0.00    +0.000 C 
ENDBRANCH  32  35
ENDBRANCH  26  30
ENDBRANCH  25  26
ENDBRANCH  23  25
ENDBRANCH   1  23
TORSDOF 10
ENDMDL
MODEL 7
REMARK VINA RESULT:      -7.6      4.580      8.804
REMARK  Name = 
REMARK  12 active torsions:
REMARK  status: ('A' for Active; 'I' for Inactive)
REMARK    1  A    between atoms: C_1  and  O_2
REMARK    2  A    between atoms: O_2  and  C_3
REMARK    3  A    between atoms: C_6  and  C_7
REMARK    4  A    between atoms: C_7  and  C_8
REMARK    5  A    between atoms: C_8  and  N_9
REMARK    6  A    between atoms: N_9  and  C_10
REMARK    7  A    between atoms: C_15  and  C_16
REMARK    8  A    between atoms: N_18  and  C_19
REMARK    9  A    between atoms: C_19  and  C_20
REMARK   10  A    between atoms: C_20  and  C_21
REMARK   11  A    between atoms: C_31  and  O_32
REMARK   12  A    between atoms: O_32  and  C_33
REMARK                            x       y       z     vdW  Elec       q    Type
REMARK                         _______ _______ _______ _____ _____    ______ ____
ROOT
ATOM      1  C   UNL     1       5.126   5.299  17.632  0.00  0.00    +0.000 A 
ATOM      2  C   UNL     1       4.487   4.404  16.727  0.00  0.00    +0.000 A 
ATOM      3  C   UNL     1       5.119   3.864  15.604  0.00  0.00    +0.000 A 
ATOM      4  C   UNL     1       6.419   4.218  15.343  0.00  0.00    +0.000 A 
ATOM      5  C   UNL     1       7.074   5.112  16.182  0.00  0.00    +0.000 A 
ATOM      6  C   UNL     1       6.458   5.682  17.332  0.00  0.00    +0.000 A 
ENDROOT
BRANCH   6   7
ATOM      7  C   UNL     1       7.370   6.627  18.101  0.00  0.00    +0.000 C 
ATOM      8  O   UNL     1       7.885   6.242  19.149  0.00  0.00    +0.000 OA
ATOM      9  N   UNL     1       7.679   7.853  17.558  0.00  0.00    +0.000 N 
ATOM     10  H   UNL     1       7.155   8.104  16.724  0.00  0.00    +0.000 HD
BRANCH   9  11
ATOM     11  C   UNL     1       8.555   8.896  18.160  0.00  0.00    +0.000 C 
BRANCH  11  12
ATOM     12  C   UNL     1       8.397  10.451  17.856  0.00  0.00    +0.000 C 
BRANCH  12  13
ATOM     13  C   UNL     1       9.385  11.329  18.566  0.00  0.00    +0.000 A 
ATOM     14  C   UNL     1       9.681  11.140  19.918  0.00  0.00    +0.000 A 
ATOM     15  N   UNL     1       9.457  12.463  20.310  0.00  0.00    +0.000 N 
ATOM     16  C   UNL     1      10.355  13.136  19.490  0.00  0.00    +0.000 A 
ATOM     17  C   UNL     1      11.097  14.285  19.757  0.00  0.00    +0.000 A 
ATOM     18  C   UNL     1      11.926  14.732  18.742  0.00  0.00    +0.000 A 
ATOM     19  C   UNL     1      11.899  14.111  17.489  0.00  0.00    +0.000 A 
ATOM     20  C   UNL     1      11.045  13.005  17.204  0.00  0.00    +0.000 A 
ATOM     21  C   UNL     1      10.293  12.438  18.266  0.00  0.00    +0.000 A 
ATOM     22  H   UNL     1       8.504  12.799  20.320  0.00  0.00    +0.000 HD
ENDBRANCH  12  13
ENDBRANCH  11  12
ENDBRANCH   9  11
ENDBRANCH   6   7
BRANCH   1  23
ATOM     23  N   UNL     1       4.429   5.751  18.794  0.00  0.00    +0.000 N 
ATOM     24  H   UNL     1       4.605   5.067  19.534  0.00  0.00    +0.000 HD
BRANCH  23  25
ATOM     25  C   UNL     1       2.968   5.971  18.627  0.00  0.00    +0.000 C 
BRANCH  25  26
ATOM     26  C   UNL     1       2.626   7.351  18.067  0.00  0.00    +0.000 C 
BRANCH  26  30
ATOM     27  C   UNL     1       0.779   9.818  21.128  0.00  0.00    +0.000 A 
ATOM     28  C   UNL     1       1.203   8.511  21.410  0.00  0.00    +0.000 A 
ATOM     29  C   UNL     1       1.788   7.709  20.427  0.00  0.00    +0.000 A 
ATOM     30  C   UNL     1       1.915   8.179  19.120  0.00  0.00    +0.000 A 
ATOM     31  C   UNL     1       1.433   9.462  18.823  0.00  0.00    +0.000 A 
ATOM     32  C   UNL     1       0.868  10.292  19.809  0.00  0.00    +0.000 A 
BRANCH  27  34
ATOM     33  C   UNL     1      -0.443   9.952  23.152  0.00  0.00    +0.000 C 
ATOM     34  O   UNL     1       0.260  10.625  22.108  0.00  0.00    +0.000 OA
ENDBRANCH  27  34
BRANCH  32  35
ATOM     35  O   UNL     1       0.486  11.506  19.300  0.00  0.00    +0.000 OA
ATOM     36  C   UNL     1      -0.883  11.731  18.997  0.00  0.00    +0.000 C 
ENDBRANCH  32  35
ENDBRANCH  26  30
ENDBRANCH  25  26
ENDBRANCH  23  25
ENDBRANCH   1  23
TORSDOF 10
ENDMDL
MODEL 8
REMARK VINA RESULT:      -7.5      2.239      4.091
REMARK  Name = 
REMARK  12 active torsions:
REMARK  status: ('A' for Active; 'I' for Inactive)
REMARK    1  A    between atoms: C_1  and  O_2
REMARK    2  A    between atoms: O_2  and  C_3
REMARK    3  A    between atoms: C_6  and  C_7
REMARK    4  A    between atoms: C_7  and  C_8
REMARK    5  A    between atoms: C_8  and  N_9
REMARK    6  A    between atoms: N_9  and  C_10
REMARK    7  A    between atoms: C_15  and  C_16
REMARK    8  A    between atoms: N_18  and  C_19
REMARK    9  A    between atoms: C_19  and  C_20
REMARK   10  A    between atoms: C_20  and  C_21
REMARK   11  A    between atoms: C_31  and  O_32
REMARK   12  A    between atoms: O_32  and  C_33
REMARK                            x       y       z     vdW  Elec       q    Type
REMARK                         _______ _______ _______ _____ _____    ______ ____
ROOT
ATOM      1  C   UNL     1       1.765   3.681  19.177  0.00  0.00    +0.000 A 
ATOM      2  C   UNL     1       1.800   2.383  19.763  0.00  0.00    +0.000 A 
ATOM      3  C   UNL     1       1.985   2.160  21.129  0.00  0.00    +0.000 A 
ATOM      4  C   UNL     1       2.157   3.241  21.958  0.00  0.00    +0.000 A 
ATOM      5  C   UNL     1       2.160   4.525  21.428  0.00  0.00    +0.000 A 
ATOM      6  C   UNL     1       1.976   4.786  20.040  0.00  0.00    +0.000 A 
ENDROOT
BRANCH   6   7
ATOM      7  C   UNL     1       2.009   6.268  19.694  0.00  0.00    +0.000 C 
ATOM      8  O   UNL     1       2.356   6.612  18.567  0.00  0.00    +0.000 OA
ATOM      9  N   UNL     1       1.556   7.183  20.616  0.00  0.00    +0.000 N 
ATOM     10  H   UNL     1       1.351   6.807  21.538  0.00  0.00    +0.000 HD
BRANCH   9  11
ATOM     11  C   UNL     1       1.506   8.662  20.449  0.00  0.00    +0.000 C 
BRANCH  11  12
ATOM     12  C   UNL     1       1.568   9.383  19.031  0.00  0.00    +0.000 C 
BRANCH  12  13
ATOM     13  C   UNL     1       0.473  10.381  18.791  0.00  0.00    +0.000 A 
ATOM     14  C   UNL     1       0.638  11.729  19.118  0.00  0.00    +0.000 A 
ATOM     15  N   UNL     1      -0.533  11.847  19.873  0.00  0.00    +0.000 N 
ATOM     16  C   UNL     1      -1.489  11.471  18.936  0.00  0.00    +0.000 A 
ATOM     17  C   UNL     1      -2.792  11.939  18.775  0.00  0.00    +0.000 A 
ATOM     18  C   UNL     1      -3.522  11.380  17.739  0.00  0.00    +0.000 A 
ATOM     19  C   UNL     1      -2.992  10.319  16.998  0.00  0.00    +0.000 A 
ATOM     20  C   UNL     1      -1.697   9.781  17.257  0.00  0.00    +0.000 A 
ATOM     21  C   UNL     1      -0.873  10.427  18.215  0.00  0.00    +0.000 A 
ATOM     22  H   UNL     1      -0.565  11.386  20.772  0.00  0.00    +0.000 HD
ENDBRANCH  12  13
ENDBRANCH  11  12
ENDBRANCH   9  11
ENDBRANCH   6   7
BRANCH   1  23
ATOM     23  N   UNL     1       1.502   3.822  17.781  0.00  0.00    +0.000 N 
ATOM     24  H   UNL     1       0.699   3.226  17.565  0.00  0.00    +0.000 HD
BRANCH  23  25
ATOM     25  C   UNL     1       2.638   3.512  16.874  0.00  0.00    +0.000 C 
BRANCH  25  26
ATOM     26  C   UNL     1       3.971   3.366  17.606  0.00  0.00    +0.000 C 
BRANCH  26  30
ATOM     27  C   UNL     1       7.079   5.054  15.083  0.00  0.00    +0.000 A 
ATOM     28  C   UNL     1       6.202   4.074  14.594  0.00  0.00    +0.000 A 
ATOM     29  C   UNL     1       5.206   3.520  15.404  0.00  0.00    +0.000 A 
ATOM     30  C   UNL     1       5.100   3.895  16.743  0.00  0.00    +0.000 A 
ATOM     31  C   UNL     1       6.018   4.828  17.249  0.00  0.00    +0.000 A 
ATOM     32  C   UNL     1       7.006   5.415  16.437  0.00  0.00    +0.000 A 
BRANCH  27  34
ATOM     33  C   UNL     1       7.907   5.328  12.882  0.00  0.00    +0.000 C 
ATOM     34  O   UNL     1       8.015   5.639  14.271  0.00  0.00    +0.000 OA
ENDBRANCH  27  34
BRANCH  32  35
ATOM     35  O   UNL     1       7.775   6.311  17.135  0.00  0.00    +0.000 OA
ATOM     36  C   UNL     1       7.299   7.635  17.324  0.00  0.00    +0.000 C 
ENDBRANCH  32  35
ENDBRANCH  26  30
ENDBRANCH  25  26
ENDBRANCH  23  25
ENDBRANCH   1  23
TORSDOF 10
ENDMDL
MODEL 9
REMARK VINA RESULT:      -7.5      3.468      9.254
REMARK  Name = 
REMARK  12 active torsions:
REMARK  status: ('A' for Active; 'I' for Inactive)
REMARK    1  A    between atoms: C_1  and  O_2
REMARK    2  A    between atoms: O_2  and  C_3
REMARK    3  A    between atoms: C_6  and  C_7
REMARK    4  A    between atoms: C_7  and  C_8
REMARK    5  A    between atoms: C_8  and  N_9
REMARK    6  A    between atoms: N_9  and  C_10
REMARK    7  A    between atoms: C_15  and  C_16
REMARK    8  A    between atoms: N_18  and  C_19
REMARK    9  A    between atoms: C_19  and  C_20
REMARK   10  A    between atoms: C_20  and  C_21
REMARK   11  A    between atoms: C_31  and  O_32
REMARK   12  A    between atoms: O_32  and  C_33
REMARK                            x       y       z     vdW  Elec       q    Type
REMARK                         _______ _______ _______ _____ _____    ______ ____
ROOT
ATOM      1  C   UNL     1       0.239  11.065  21.223  0.00  0.00    +0.000 A 
ATOM      2  C   UNL     1      -0.454  10.988  22.465  0.00  0.00    +0.000 A 
ATOM      3  C   UNL     1      -0.743   9.785  23.111  0.00  0.00    +0.000 A 
ATOM      4  C   UNL     1      -0.354   8.608  22.523  0.00  0.00    +0.000 A 
ATOM      5  C   UNL     1       0.299   8.631  21.296  0.00  0.00    +0.000 A 
ATOM      6  C   UNL     1       0.606   9.840  20.610  0.00  0.00    +0.000 A 
ENDROOT
BRANCH   6   7
ATOM      7  C   UNL     1       1.330   9.619  19.290  0.00  0.00    +0.000 C 
ATOM      8  O   UNL     1       1.361  10.528  18.463  0.00  0.00    +0.000 OA
ATOM      9  N   UNL     1       2.019   8.445  19.091  0.00  0.00    +0.000 N 
ATOM     10  H   UNL     1       1.881   7.732  19.803  0.00  0.00    +0.000 HD
BRANCH   9  11
ATOM     11  C   UNL     1       2.788   8.061  17.874  0.00  0.00    +0.000 C 
BRANCH  11  12
ATOM     12  C   UNL     1       3.118   6.552  17.490  0.00  0.00    +0.000 C 
BRANCH  12  13
ATOM     13  C   UNL     1       3.354   5.646  18.663  0.00  0.00    +0.000 A 
ATOM     14  C   UNL     1       4.621   5.524  19.238  0.00  0.00    +0.000 A 
ATOM     15  N   UNL     1       4.678   4.128  19.189  0.00  0.00    +0.000 N 
ATOM     16  C   UNL     1       3.545   3.792  19.922  0.00  0.00    +0.000 A 
ATOM     17  C   UNL     1       3.341   2.708  20.773  0.00  0.00    +0.000 A 
ATOM     18  C   UNL     1       2.099   2.630  21.383  0.00  0.00    +0.000 A 
ATOM     19  C   UNL     1       1.091   3.538  21.040  0.00  0.00    +0.000 A 
ATOM     20  C   UNL     1       1.290   4.572  20.079  0.00  0.00    +0.000 A 
ATOM     21  C   UNL     1       2.592   4.762  19.548  0.00  0.00    +0.000 A 
ATOM     22  H   UNL     1       4.784   3.691  18.283  0.00  0.00    +0.000 HD
ENDBRANCH  12  13
ENDBRANCH  11  12
ENDBRANCH   9  11
ENDBRANCH   6   7
BRANCH   1  23
ATOM     23  N   UNL     1       0.554  12.340  20.663  0.00  0.00    +0.000 N 
ATOM     24  H   UNL     1       0.885  12.931  21.430  0.00  0.00    +0.000 HD
BRANCH  23  25
ATOM     25  C   UNL     1      -0.549  13.015  19.929  0.00  0.00    +0.000 C 
BRANCH  25  26
ATOM     26  C   UNL     1      -1.914  12.369  20.164  0.00  0.00    +0.000 C 
BRANCH  26  30
ATOM     27  C   UNL     1      -3.650  10.922  16.455  0.00  0.00    +0.000 A 
ATOM     28  C   UNL     1      -2.268  11.130  16.575  0.00  0.00    +0.000 A 
ATOM     29  C   UNL     1      -1.704  11.605  17.763  0.00  0.00    +0.000 A 
ATOM     30  C   UNL     1      -2.521  11.936  18.844  0.00  0.00    +0.000 A 
ATOM     31  C   UNL     1      -3.908  11.789  18.703  0.00  0.00    +0.000 A 
ATOM     32  C   UNL     1      -4.486  11.283  17.523  0.00  0.00    +0.000 A 
BRANCH  27  34
ATOM     33  C   UNL     1      -3.265  10.083  14.275  0.00  0.00    +0.000 C 
ATOM     34  O   UNL     1      -4.194  10.399  15.311  0.00  0.00    +0.000 OA
ENDBRANCH  27  34
BRANCH  32  35
ATOM     35  O   UNL     1      -5.852  11.206  17.615  0.00  0.00    +0.000 OA
ATOM     36  C   UNL     1      -6.441  10.759  18.827  0.00  0.00    +0.000 C 
ENDBRANCH  32  35
ENDBRANCH  26  30
ENDBRANCH  25  26
ENDBRANCH  23  25
ENDBRANCH   1  23
TORSDOF 10
ENDMDL
