MODEL 1
REMARK VINA RESULT:      -7.5      0.000      0.000
REMARK  Name = 
REMARK  6 active torsions:
REMARK  status: ('A' for Active; 'I' for Inactive)
REMARK    1  A    between atoms: C_1  and  C_2
REMARK    2  A    between atoms: C_2  and  C_4
REMARK    3  A    between atoms: C_4  and  C_5
REMARK    4  A    between atoms: C_10  and  C_12
REMARK    5  A    between atoms: C_14  and  C_15
REMARK    6  A    between atoms: C_23  and  C_24
REMARK                            x       y       z     vdW  Elec       q    Type
REMARK                         _______ _______ _______ _____ _____    ______ ____
ROOT
ATOM      1  C   UNL     1       0.300   9.970  20.928  0.00  0.00    +0.000 A 
ATOM      2  N   UNL     1       0.354  10.683  19.796  0.00  0.00    +0.000 NA
ATOM      3  S   UNL     1       1.250   9.777  18.710  0.00  0.00    +0.000 S 
ATOM      4  C   UNL     1       1.469   8.493  19.814  0.00  0.00    +0.000 A 
ATOM      5  N   UNL     1       2.156   7.406  19.362  0.00  0.00    +0.000 N 
ATOM      6  C   UNL     1       2.225   6.232  20.080  0.00  0.00    +0.000 C 
ATOM      7  O   UNL     1       1.682   6.032  21.162  0.00  0.00    +0.000 OA
ATOM      8  N   UNL     1       0.921   8.727  20.979  0.00  0.00    +0.000 NA
ATOM      9  H   UNL     1       2.581   7.438  18.445  0.00  0.00    +0.000 HD
ENDROOT
BRANCH   6  10
ATOM     10  C   UNL     1       2.998   5.205  19.400  0.00  0.00    +0.000 A 
ATOM     11  O   UNL     1       3.739   5.551  18.297  0.00  0.00    +0.000 OA
ATOM     12  C   UNL     1       4.424   4.444  17.889  0.00  0.00    +0.000 A 
ATOM     13  C   UNL     1       4.062   3.369  18.676  0.00  0.00    +0.000 A 
ATOM     14  C   UNL     1       3.159   3.852  19.661  0.00  0.00    +0.000 A 
ATOM     15  C   UNL     1       2.525   3.062  20.747  0.00  0.00    +0.000 C 
BRANCH  12  16
ATOM     16  C   UNL     1       5.339   4.587  16.757  0.00  0.00    +0.000 A 
ATOM     17  C   UNL     1       4.846   4.287  15.470  0.00  0.00    +0.000 A 
ATOM     18  C   UNL     1       5.674   4.316  14.346  0.00  0.00    +0.000 A 
ATOM     19  C   UNL     1       7.016   4.650  14.482  0.00  0.00    +0.000 A 
ATOM     20  C   UNL     1       7.523   4.966  15.741  0.00  0.00    +0.000 A 
ATOM     21  C   UNL     1       6.696   4.939  16.874  0.00  0.00    +0.000 A 
ATOM     22 CL   UNL     1       7.459   5.302  18.387  0.00  0.00    +0.000 Cl
ENDBRANCH  12  16
ENDBRANCH   6  10
BRANCH   1  23
ATOM     23  C   UNL     1      -0.379  10.500  22.136  0.00  0.00    +0.000 C 
BRANCH  23  25
ATOM     24  C   UNL     1      -2.104  12.409  21.828  0.00  0.00    +0.000 C 
ATOM     25  C   UNL     1      -0.670  11.977  22.011  0.00  0.00    +0.000 C 
ATOM     26  O   UNL     1       0.225  12.817  22.142  0.00  0.00    +0.000 OA
ENDBRANCH  23  25
ENDBRANCH   1  23
TORSDOF 4
ENDMDL
MODEL 2
REMARK VINA RESULT:      -7.4      4.182      8.631
REMARK  Name = 
REMARK  6 active torsions:
REMARK  status: ('A' for Active; 'I' for Inactive)
REMARK    1  A    between atoms: C_1  and  C_2
REMARK    2  A    between atoms: C_2  and  C_4
REMARK    3  A    between atoms: C_4  and  C_5
REMARK    4  A    between atoms: C_10  and  C_12
REMARK    5  A    between atoms: C_14  and  C_15
REMARK    6  A    between atoms: C_23  and  C_24
REMARK                            x       y       z     vdW  Elec       q    Type
REMARK                         _______ _______ _______ _____ _____    ______ ____
ROOT
ATOM      1  C   UNL     1       5.054   4.951  18.449  0.00  0.00    +0.000 A 
ATOM      2  N   UNL     1       4.523   3.949  19.159  0.00  0.00    +0.000 NA
ATOM      3  S   UNL     1       3.114   4.545  19.839  0.00  0.00    +0.000 S 
ATOM      4  C   UNL     1       3.298   6.079  19.110  0.00  0.00    +0.000 A 
ATOM      5  N   UNL     1       2.310   6.989  19.339  0.00  0.00    +0.000 N 
ATOM      6  C   UNL     1       2.239   8.181  18.652  0.00  0.00    +0.000 C 
ATOM      7  O   UNL     1       3.018   8.541  17.775  0.00  0.00    +0.000 OA
ATOM      8  N   UNL     1       4.392   6.174  18.398  0.00  0.00    +0.000 NA
ATOM      9  H   UNL     1       1.571   6.761  19.990  0.00  0.00    +0.000 HD
ENDROOT
BRANCH   6  10
ATOM     10  C   UNL     1       1.096   8.988  19.049  0.00  0.00    +0.000 A 
ATOM     11  O   UNL     1       0.151   9.312  18.107  0.00  0.00    +0.000 OA
ATOM     12  C   UNL     1      -0.846  10.001  18.733  0.00  0.00    +0.000 A 
ATOM     13  C   UNL     1      -0.506  10.190  20.057  0.00  0.00    +0.000 A 
ATOM     14  C   UNL     1       0.732   9.529  20.274  0.00  0.00    +0.000 A 
ATOM     15  C   UNL     1       1.477   9.435  21.556  0.00  0.00    +0.000 C 
BRANCH  12  16
ATOM     16  C   UNL     1      -2.005  10.400  17.935  0.00  0.00    +0.000 A 
ATOM     17  C   UNL     1      -2.167   9.804  16.667  0.00  0.00    +0.000 A 
ATOM     18  C   UNL     1      -3.197  10.189  15.806  0.00  0.00    +0.000 A 
ATOM     19  C   UNL     1      -4.094  11.177  16.196  0.00  0.00    +0.000 A 
ATOM     20  C   UNL     1      -3.964  11.769  17.450  0.00  0.00    +0.000 A 
ATOM     21  C   UNL     1      -2.931  11.387  18.319  0.00  0.00    +0.000 A 
ATOM     22 CL   UNL     1      -2.848  12.235  19.829  0.00  0.00    +0.000 Cl
ENDBRANCH  12  16
ENDBRANCH   6  10
BRANCH   1  23
ATOM     23  C   UNL     1       6.350   4.791  17.746  0.00  0.00    +0.000 C 
BRANCH  23  25
ATOM     24  C   UNL     1       7.838   6.819  18.369  0.00  0.00    +0.000 C 
ATOM     25  C   UNL     1       6.949   6.125  17.367  0.00  0.00    +0.000 C 
ATOM     26  O   UNL     1       6.792   6.597  16.237  0.00  0.00    +0.000 OA
ENDBRANCH  23  25
ENDBRANCH   1  23
TORSDOF 4
ENDMDL
MODEL 3
REMARK VINA RESULT:      -7.4      3.502      8.571
REMARK  Name = 
REMARK  6 active torsions:
REMARK  status: ('A' for Active; 'I' for Inactive)
REMARK    1  A    between atoms: C_1  and  C_2
REMARK    2  A    between atoms: C_2  and  C_4
REMARK    3  A    between atoms: C_4  and  C_5
REMARK    4  A    between atoms: C_10  and  C_12
REMARK    5  A    between atoms: C_14  and  C_15
REMARK    6  A    between atoms: C_23  and  C_24
REMARK                            x       y       z     vdW  Elec       q    Type
REMARK                         _______ _______ _______ _____ _____    ______ ____
ROOT
ATOM      1  C   UNL     1       6.307   4.417  15.565  0.00  0.00    +0.000 A 
ATOM      2  N   UNL     1       7.381   5.154  15.875  0.00  0.00    +0.000 NA
ATOM      3  S   UNL     1       6.891   6.225  17.067  0.00  0.00    +0.000 S 
ATOM      4  C   UNL     1       5.299   5.605  17.103  0.00  0.00    +0.000 A 
ATOM      5  N   UNL     1       4.446   6.158  18.011  0.00  0.00    +0.000 N 
ATOM      6  C   UNL     1       3.208   5.616  18.278  0.00  0.00    +0.000 C 
ATOM      7  O   UNL     1       2.754   4.600  17.761  0.00  0.00    +0.000 OA
ATOM      8  N   UNL     1       5.109   4.644  16.236  0.00  0.00    +0.000 NA
ATOM      9  H   UNL     1       4.751   6.958  18.550  0.00  0.00    +0.000 HD
ENDROOT
BRANCH   6  10
ATOM     10  C   UNL     1       2.477   6.363  19.289  0.00  0.00    +0.000 A 
ATOM     11  O   UNL     1       2.241   7.700  19.087  0.00  0.00    +0.000 OA
ATOM     12  C   UNL     1       1.483   8.153  20.127  0.00  0.00    +0.000 A 
ATOM     13  C   UNL     1       1.300   7.131  21.036  0.00  0.00    +0.000 A 
ATOM     14  C   UNL     1       1.921   5.972  20.499  0.00  0.00    +0.000 A 
ATOM     15  C   UNL     1       1.958   4.619  21.112  0.00  0.00    +0.000 C 
BRANCH  12  16
ATOM     16  C   UNL     1       1.048   9.549  20.096  0.00  0.00    +0.000 A 
ATOM     17  C   UNL     1       1.178  10.252  18.881  0.00  0.00    +0.000 A 
ATOM     18  C   UNL     1       0.866  11.611  18.786  0.00  0.00    +0.000 A 
ATOM     19  C   UNL     1       0.412  12.297  19.906  0.00  0.00    +0.000 A 
ATOM     20  C   UNL     1       0.260  11.621  21.115  0.00  0.00    +0.000 A 
ATOM     21  C   UNL     1       0.572  10.256  21.216  0.00  0.00    +0.000 A 
ATOM     22 CL   UNL     1       0.389   9.544  22.785  0.00  0.00    +0.000 Cl
ENDBRANCH  12  16
ENDBRANCH   6  10
BRANCH   1  23
ATOM     23  C   UNL     1       6.365   3.391  14.496  0.00  0.00    +0.000 C 
BRANCH  23  25
ATOM     24  C   UNL     1       5.255   3.656  12.169  0.00  0.00    +0.000 C 
ATOM     25  C   UNL     1       6.369   4.017  13.121  0.00  0.00    +0.000 C 
ATOM     26  O   UNL     1       7.207   4.867  12.809  0.00  0.00    +0.000 OA
ENDBRANCH  23  25
ENDBRANCH   1  23
TORSDOF 4
ENDMDL
MODEL 4
REMARK VINA RESULT:      -7.4      4.023      9.085
REMARK  Name = 
REMARK  6 active torsions:
REMARK  status: ('A' for Active; 'I' for Inactive)
REMARK    1  A    between atoms: C_1  and  C_2
REMARK    2  A    between atoms: C_2  and  C_4
REMARK    3  A    between atoms: C_4  and  C_5
REMARK    4  A    between atoms: C_10  and  C_12
REMARK    5  A    between atoms: C_14  and  C_15
REMARK    6  A    between atoms: C_23  and  C_24
REMARK                            x       y       z     vdW  Elec       q    Type
REMARK                         _______ _______ _______ _____ _____    ______ ____
ROOT
ATOM      1  C   UNL     1       4.581   6.328  17.194  0.00  0.00    +0.000 A 
ATOM      2  N   UNL     1       4.142   5.159  17.673  0.00  0.00    +0.000 NA
ATOM      3  S   UNL     1       2.746   5.496  18.534  0.00  0.00    +0.000 S 
ATOM      4  C   UNL     1       2.812   7.164  18.175  0.00  0.00    +0.000 A 
ATOM      5  N   UNL     1       1.795   7.935  18.652  0.00  0.00    +0.000 N 
ATOM      6  C   UNL     1       1.626   9.247  18.265  0.00  0.00    +0.000 C 
ATOM      7  O   UNL     1       2.336   9.845  17.463  0.00  0.00    +0.000 OA
ATOM      8  N   UNL     1       3.859   7.487  17.458  0.00  0.00    +0.000 NA
ATOM      9  H   UNL     1       1.106   7.519  19.264  0.00  0.00    +0.000 HD
ENDROOT
BRANCH   6  10
ATOM     10  C   UNL     1       0.469   9.869  18.888  0.00  0.00    +0.000 A 
ATOM     11  O   UNL     1      -0.577  10.271  18.095  0.00  0.00    +0.000 OA
ATOM     12  C   UNL     1      -1.561  10.750  18.910  0.00  0.00    +0.000 A 
ATOM     13  C   UNL     1      -1.117  10.731  20.218  0.00  0.00    +0.000 A 
ATOM     14  C   UNL     1       0.180  10.152  20.215  0.00  0.00    +0.000 A 
ATOM     15  C   UNL     1       1.041   9.898  21.399  0.00  0.00    +0.000 C 
BRANCH  12  16
ATOM     16  C   UNL     1      -2.812  11.182  18.289  0.00  0.00    +0.000 A 
ATOM     17  C   UNL     1      -3.694  11.966  19.062  0.00  0.00    +0.000 A 
ATOM     18  C   UNL     1      -4.945  12.350  18.576  0.00  0.00    +0.000 A 
ATOM     19  C   UNL     1      -5.344  11.962  17.302  0.00  0.00    +0.000 A 
ATOM     20  C   UNL     1      -4.484  11.200  16.513  0.00  0.00    +0.000 A 
ATOM     21  C   UNL     1      -3.226  10.811  16.996  0.00  0.00    +0.000 A 
ATOM     22 CL   UNL     1      -2.272   9.822  15.938  0.00  0.00    +0.000 Cl
ENDBRANCH  12  16
ENDBRANCH   6  10
BRANCH   1  23
ATOM     23  C   UNL     1       5.843   6.414  16.417  0.00  0.00    +0.000 C 
BRANCH  23  25
ATOM     24  C   UNL     1       7.368   6.003  18.472  0.00  0.00    +0.000 C 
ATOM     25  C   UNL     1       7.002   6.853  17.281  0.00  0.00    +0.000 C 
ATOM     26  O   UNL     1       7.690   7.832  16.976  0.00  0.00    +0.000 OA
ENDBRANCH  23  25
ENDBRANCH   1  23
TORSDOF 4
ENDMDL
MODEL 5
REMARK VINA RESULT:      -7.3      1.749      2.013
REMARK  Name = 
REMARK  6 active torsions:
REMARK  status: ('A' for Active; 'I' for Inactive)
REMARK    1  A    between atoms: C_1  and  C_2
REMARK    2  A    between atoms: C_2  and  C_4
REMARK    3  A    between atoms: C_4  and  C_5
REMARK    4  A    between atoms: C_10  and  C_12
REMARK    5  A    between atoms: C_14  and  C_15
REMARK    6  A    between atoms: C_23  and  C_24
REMARK                            x       y       z     vdW  Elec       q    Type
REMARK                         _______ _______ _______ _____ _____    ______ ____
ROOT
ATOM      1  C   UNL     1       0.065  11.195  21.035  0.00  0.00    +0.000 A 
ATOM      2  N   UNL     1       0.107  10.838  22.325  0.00  0.00    +0.000 NA
ATOM      3  S   UNL     1       0.812   9.320  22.372  0.00  0.00    +0.000 S 
ATOM      4  C   UNL     1       1.039   9.267  20.679  0.00  0.00    +0.000 A 
ATOM      5  N   UNL     1       1.662   8.164  20.178  0.00  0.00    +0.000 N 
ATOM      6  C   UNL     1       2.082   8.091  18.868  0.00  0.00    +0.000 C 
ATOM      7  O   UNL     1       1.963   8.986  18.036  0.00  0.00    +0.000 OA
ATOM      8  N   UNL     1       0.579  10.332  20.073  0.00  0.00    +0.000 NA
ATOM      9  H   UNL     1       1.877   7.395  20.798  0.00  0.00    +0.000 HD
ENDROOT
BRANCH   6  10
ATOM     10  C   UNL     1       2.733   6.828  18.558  0.00  0.00    +0.000 A 
ATOM     11  O   UNL     1       3.620   6.777  17.511  0.00  0.00    +0.000 OA
ATOM     12  C   UNL     1       4.147   5.519  17.471  0.00  0.00    +0.000 A 
ATOM     13  C   UNL     1       3.542   4.741  18.437  0.00  0.00    +0.000 A 
ATOM     14  C   UNL     1       2.643   5.578  19.151  0.00  0.00    +0.000 A 
ATOM     15  C   UNL     1       1.790   5.186  20.302  0.00  0.00    +0.000 C 
BRANCH  12  16
ATOM     16  C   UNL     1       5.174   5.242  16.467  0.00  0.00    +0.000 A 
ATOM     17  C   UNL     1       4.796   4.507  15.325  0.00  0.00    +0.000 A 
ATOM     18  C   UNL     1       5.731   4.126  14.359  0.00  0.00    +0.000 A 
ATOM     19  C   UNL     1       7.067   4.476  14.512  0.00  0.00    +0.000 A 
ATOM     20  C   UNL     1       7.463   5.215  15.625  0.00  0.00    +0.000 A 
ATOM     21  C   UNL     1       6.529   5.600  16.598  0.00  0.00    +0.000 A 
ATOM     22 CL   UNL     1       7.156   6.473  17.958  0.00  0.00    +0.000 Cl
ENDBRANCH  12  16
ENDBRANCH   6  10
BRANCH   1  23
ATOM     23  C   UNL     1      -0.553  12.476  20.615  0.00  0.00    +0.000 C 
BRANCH  23  25
ATOM     24  C   UNL     1      -3.010  12.789  21.376  0.00  0.00    +0.000 C 
ATOM     25  C   UNL     1      -2.029  12.319  20.332  0.00  0.00    +0.000 C 
ATOM     26  O   UNL     1      -2.428  11.899  19.242  0.00  0.00    +0.000 OA
ENDBRANCH  23  25
ENDBRANCH   1  23
TORSDOF 4
ENDMDL
MODEL 6
REMARK VINA RESULT:      -7.3      3.195      8.505
REMARK  Name = 
REMARK  6 active torsions:
REMARK  status: ('A' for Active; 'I' for Inactive)
REMARK    1  A    between atoms: C_1  and  C_2
REMARK    2  A    between atoms: C_2  and  C_4
REMARK    3  A    between atoms: C_4  and  C_5
REMARK    4  A    between atoms: C_10  and  C_12
REMARK    5  A    between atoms: C_14  and  C_15
REMARK    6  A    between atoms: C_23  and  C_24
REMARK                            x       y       z     vdW  Elec       q    Type
REMARK                         _______ _______ _______ _____ _____    ______ ____
ROOT
ATOM      1  C   UNL     1       6.579   4.834  15.668  0.00  0.00    +0.000 A 
ATOM      2  N   UNL     1       7.431   5.849  15.853  0.00  0.00    +0.000 NA
ATOM      3  S   UNL     1       6.730   6.852  16.997  0.00  0.00    +0.000 S 
ATOM      4  C   UNL     1       5.364   5.843  17.184  0.00  0.00    +0.000 A 
ATOM      5  N   UNL     1       4.437   6.230  18.106  0.00  0.00    +0.000 N 
ATOM      6  C   UNL     1       3.402   5.408  18.492  0.00  0.00    +0.000 C 
ATOM      7  O   UNL     1       3.210   4.268  18.079  0.00  0.00    +0.000 OA
ATOM      8  N   UNL     1       5.396   4.796  16.400  0.00  0.00    +0.000 NA
ATOM      9  H   UNL     1       4.543   7.124  18.565  0.00  0.00    +0.000 HD
ENDROOT
BRANCH   6  10
ATOM     10  C   UNL     1       2.546   6.021  19.496  0.00  0.00    +0.000 A 
ATOM     11  O   UNL     1       2.316   7.373  19.436  0.00  0.00    +0.000 OA
ATOM     12  C   UNL     1       1.434   7.692  20.428  0.00  0.00    +0.000 A 
ATOM     13  C   UNL     1       1.161   6.562  21.173  0.00  0.00    +0.000 A 
ATOM     14  C   UNL     1       1.858   5.481  20.572  0.00  0.00    +0.000 A 
ATOM     15  C   UNL     1       1.843   4.061  21.011  0.00  0.00    +0.000 C 
BRANCH  12  16
ATOM     16  C   UNL     1       0.985   9.081  20.522  0.00  0.00    +0.000 A 
ATOM     17  C   UNL     1       0.647   9.577  21.797  0.00  0.00    +0.000 A 
ATOM     18  C   UNL     1       0.130  10.864  21.966  0.00  0.00    +0.000 A 
ATOM     19  C   UNL     1      -0.058  11.686  20.862  0.00  0.00    +0.000 A 
ATOM     20  C   UNL     1       0.283  11.223  19.592  0.00  0.00    +0.000 A 
ATOM     21  C   UNL     1       0.803   9.932  19.416  0.00  0.00    +0.000 A 
ATOM     22 CL   UNL     1       1.139   9.458  17.783  0.00  0.00    +0.000 Cl
ENDBRANCH  12  16
ENDBRANCH   6  10
BRANCH   1  23
ATOM     23  C   UNL     1       6.857   3.771  14.671  0.00  0.00    +0.000 C 
BRANCH  23  25
ATOM     24  C   UNL     1       7.253   4.636  12.261  0.00  0.00    +0.000 C 
ATOM     25  C   UNL     1       6.301   4.121  13.311  0.00  0.00    +0.000 C 
ATOM     26  O   UNL     1       5.117   3.910  13.033  0.00  0.00    +0.000 OA
ENDBRANCH  23  25
ENDBRANCH   1  23
TORSDOF 4
ENDMDL
MODEL 7
REMARK VINA RESULT:      -7.3      3.494      9.292
REMARK  Name = 
REMARK  6 active torsions:
REMARK  status: ('A' for Active; 'I' for Inactive)
REMARK    1  A    between atoms: C_1  and  C_2
REMARK    2  A    between atoms: C_2  and  C_4
REMARK    3  A    between atoms: C_4  and  C_5
REMARK    4  A    between atoms: C_10  and  C_12
REMARK    5  A    between atoms: C_14  and  C_15
REMARK    6  A    between atoms: C_23  and  C_24
REMARK                            x       y       z     vdW  Elec       q    Type
REMARK                         _______ _______ _______ _____ _____    ______ ____
ROOT
ATOM      1  C   UNL     1       4.214   6.139  18.037  0.00  0.00    +0.000 A 
ATOM      2  N   UNL     1       3.859   5.242  18.965  0.00  0.00    +0.000 NA
ATOM      3  S   UNL     1       2.576   5.916  19.805  0.00  0.00    +0.000 S 
ATOM      4  C   UNL     1       2.569   7.332  18.850  0.00  0.00    +0.000 A 
ATOM      5  N   UNL     1       1.607   8.256  19.130  0.00  0.00    +0.000 N 
ATOM      6  C   UNL     1       1.369   9.337  18.310  0.00  0.00    +0.000 C 
ATOM      7  O   UNL     1       1.963   9.576  17.263  0.00  0.00    +0.000 OA
ATOM      8  N   UNL     1       3.511   7.335  17.941  0.00  0.00    +0.000 NA
ATOM      9  H   UNL     1       1.008   8.116  19.932  0.00  0.00    +0.000 HD
ENDROOT
BRANCH   6  10
ATOM     10  C   UNL     1       0.289  10.181  18.796  0.00  0.00    +0.000 A 
ATOM     11  O   UNL     1       0.485  10.919  19.937  0.00  0.00    +0.000 OA
ATOM     12  C   UNL     1      -0.632  11.675  20.143  0.00  0.00    +0.000 A 
ATOM     13  C   UNL     1      -1.575  11.365  19.184  0.00  0.00    +0.000 A 
ATOM     14  C   UNL     1      -0.986  10.417  18.304  0.00  0.00    +0.000 A 
ATOM     15  C   UNL     1      -1.614   9.813  17.101  0.00  0.00    +0.000 C 
BRANCH  12  16
ATOM     16  C   UNL     1      -0.630  12.601  21.276  0.00  0.00    +0.000 A 
ATOM     17  C   UNL     1      -1.485  12.313  22.360  0.00  0.00    +0.000 A 
ATOM     18  C   UNL     1      -1.608  13.186  23.444  0.00  0.00    +0.000 A 
ATOM     19  C   UNL     1      -0.875  14.367  23.469  0.00  0.00    +0.000 A 
ATOM     20  C   UNL     1      -0.012  14.665  22.417  0.00  0.00    +0.000 A 
ATOM     21  C   UNL     1       0.115  13.793  21.326  0.00  0.00    +0.000 A 
ATOM     22 CL   UNL     1       1.182  14.303  20.058  0.00  0.00    +0.000 Cl
ENDBRANCH  12  16
ENDBRANCH   6  10
BRANCH   1  23
ATOM     23  C   UNL     1       5.366   5.893  17.135  0.00  0.00    +0.000 C 
BRANCH  23  25
ATOM     24  C   UNL     1       7.471   6.012  18.643  0.00  0.00    +0.000 C 
ATOM     25  C   UNL     1       6.599   6.642  17.586  0.00  0.00    +0.000 C 
ATOM     26  O   UNL     1       6.936   7.700  17.045  0.00  0.00    +0.000 OA
ENDBRANCH  23  25
ENDBRANCH   1  23
TORSDOF 4
ENDMDL
MODEL 8
REMARK VINA RESULT:      -7.2      1.196      1.291
REMARK  Name = 
REMARK  6 active torsions:
REMARK  status: ('A' for Active; 'I' for Inactive)
REMARK    1  A    between atoms: C_1  and  C_2
REMARK    2  A    between atoms: C_2  and  C_4
REMARK    3  A    between atoms: C_4  and  C_5
REMARK    4  A    between atoms: C_10  and  C_12
REMARK    5  A    between atoms: C_14  and  C_15
REMARK    6  A    between atoms: C_23  and  C_24
REMARK                            x       y       z     vdW  Elec       q    Type
REMARK                         _______ _______ _______ _____ _____    ______ ____
ROOT
ATOM      1  C   UNL     1       0.470  11.318  20.575  0.00  0.00    +0.000 A 
ATOM      2  N   UNL     1       0.573  11.886  19.368  0.00  0.00    +0.000 NA
ATOM      3  S   UNL     1       1.269  10.740  18.364  0.00  0.00    +0.000 S 
ATOM      4  C   UNL     1       1.350   9.566  19.602  0.00  0.00    +0.000 A 
ATOM      5  N   UNL     1       1.845   8.343  19.256  0.00  0.00    +0.000 N 
ATOM      6  C   UNL     1       1.775   7.259  20.103  0.00  0.00    +0.000 C 
ATOM      7  O   UNL     1       1.263   7.263  21.218  0.00  0.00    +0.000 OA
ATOM      8  N   UNL     1       0.902  10.007  20.750  0.00  0.00    +0.000 NA
ATOM      9  H   UNL     1       2.223   8.210  18.328  0.00  0.00    +0.000 HD
ENDROOT
BRANCH   6  10
ATOM     10  C   UNL     1       2.351   6.057  19.521  0.00  0.00    +0.000 A 
ATOM     11  O   UNL     1       3.401   6.181  18.645  0.00  0.00    +0.000 OA
ATOM     12  C   UNL     1       3.809   4.925  18.300  0.00  0.00    +0.000 A 
ATOM     13  C   UNL     1       2.972   3.998  18.889  0.00  0.00    +0.000 A 
ATOM     14  C   UNL     1       2.043   4.715  19.688  0.00  0.00    +0.000 A 
ATOM     15  C   UNL     1       0.966   4.137  20.533  0.00  0.00    +0.000 C 
BRANCH  12  16
ATOM     16  C   UNL     1       4.967   4.802  17.416  0.00  0.00    +0.000 A 
ATOM     17  C   UNL     1       4.743   4.359  16.096  0.00  0.00    +0.000 A 
ATOM     18  C   UNL     1       5.801   4.134  15.213  0.00  0.00    +0.000 A 
ATOM     19  C   UNL     1       7.110   4.350  15.628  0.00  0.00    +0.000 A 
ATOM     20  C   UNL     1       7.356   4.803  16.923  0.00  0.00    +0.000 A 
ATOM     21  C   UNL     1       6.297   5.031  17.815  0.00  0.00    +0.000 A 
ATOM     22 CL   UNL     1       6.738   5.543  19.411  0.00  0.00    +0.000 Cl
ENDBRANCH  12  16
ENDBRANCH   6  10
BRANCH   1  23
ATOM     23  C   UNL     1      -0.061  12.074  21.735  0.00  0.00    +0.000 C 
BRANCH  23  25
ATOM     24  C   UNL     1      -2.276  12.415  20.434  0.00  0.00    +0.000 C 
ATOM     25  C   UNL     1      -1.571  12.113  21.733  0.00  0.00    +0.000 C 
ATOM     26  O   UNL     1      -2.219  11.819  22.743  0.00  0.00    +0.000 OA
ENDBRANCH  23  25
ENDBRANCH   1  23
TORSDOF 4
ENDMDL
MODEL 9
REMARK VINA RESULT:      -7.2      1.855      2.171
REMARK  Name = 
REMARK  6 active torsions:
REMARK  status: ('A' for Active; 'I' for Inactive)
REMARK    1  A    between atoms: C_1  and  C_2
REMARK    2  A    between atoms: C_2  and  C_4
REMARK    3  A    between atoms: C_4  and  C_5
REMARK    4  A    between atoms: C_10  and  C_12
REMARK    5  A    between atoms: C_14  and  C_15
REMARK    6  A    between atoms: C_23  and  C_24
REMARK                            x       y       z     vdW  Elec       q    Type
REMARK                         _______ _______ _______ _____ _____    ______ ____
ROOT
ATOM      1  C   UNL     1      -0.396  11.221  21.231  0.00  0.00    +0.000 A 
ATOM      2  N   UNL     1      -0.523  10.884  22.520  0.00  0.00    +0.000 NA
ATOM      3  S   UNL     1       0.157   9.362  22.679  0.00  0.00    +0.000 S 
ATOM      4  C   UNL     1       0.599   9.282  21.030  0.00  0.00    +0.000 A 
ATOM      5  N   UNL     1       1.272   8.167  20.629  0.00  0.00    +0.000 N 
ATOM      6  C   UNL     1       1.856   8.072  19.386  0.00  0.00    +0.000 C 
ATOM      7  O   UNL     1       1.854   8.954  18.533  0.00  0.00    +0.000 OA
ATOM      8  N   UNL     1       0.231  10.341  20.355  0.00  0.00    +0.000 NA
ATOM      9  H   UNL     1       1.399   7.406  21.283  0.00  0.00    +0.000 HD
ENDROOT
BRANCH   6  10
ATOM     10  C   UNL     1       2.531   6.800  19.180  0.00  0.00    +0.000 A 
ATOM     11  O   UNL     1       3.505   6.712  18.216  0.00  0.00    +0.000 OA
ATOM     12  C   UNL     1       4.033   5.455  18.268  0.00  0.00    +0.000 A 
ATOM     13  C   UNL     1       3.346   4.711  19.207  0.00  0.00    +0.000 A 
ATOM     14  C   UNL     1       2.390   5.572  19.810  0.00  0.00    +0.000 A 
ATOM     15  C   UNL     1       1.441   5.221  20.897  0.00  0.00    +0.000 C 
BRANCH  12  16
ATOM     16  C   UNL     1       5.142   5.143  17.368  0.00  0.00    +0.000 A 
ATOM     17  C   UNL     1       4.830   4.778  16.042  0.00  0.00    +0.000 A 
ATOM     18  C   UNL     1       5.822   4.384  15.141  0.00  0.00    +0.000 A 
ATOM     19  C   UNL     1       7.151   4.349  15.544  0.00  0.00    +0.000 A 
ATOM     20  C   UNL     1       7.487   4.721  16.845  0.00  0.00    +0.000 A 
ATOM     21  C   UNL     1       6.495   5.117  17.755  0.00  0.00    +0.000 A 
ATOM     22 CL   UNL     1       7.035   5.505  19.355  0.00  0.00    +0.000 Cl
ENDBRANCH  12  16
ENDBRANCH   6  10
BRANCH   1  23
ATOM     23  C   UNL     1      -0.943  12.500  20.716  0.00  0.00    +0.000 C 
BRANCH  23  25
ATOM     24  C   UNL     1      -2.421  11.648  18.766  0.00  0.00    +0.000 C 
ATOM     25  C   UNL     1      -2.316  12.318  20.113  0.00  0.00    +0.000 C 
ATOM     26  O   UNL     1      -3.335  12.627  20.739  0.00  0.00    +0.000 OA
ENDBRANCH  23  25
ENDBRANCH   1  23
TORSDOF 4
ENDMDL
