MODEL 1
REMARK VINA RESULT:      -7.2      0.000      0.000
REMARK  Name = 
REMARK  6 active torsions:
REMARK  status: ('A' for Active; 'I' for Inactive)
REMARK    1  A    between atoms: C_1  and  C_2
REMARK    2  A    between atoms: C_5  and  C_6
REMARK    3  A    between atoms: C_6  and  C_7
REMARK    4  A    between atoms: C_7  and  C_8
REMARK    5  A    between atoms: N_10  and  C_11
REMARK    6  A    between atoms: C_14  and  C_15
REMARK                            x       y       z     vdW  Elec       q    Type
REMARK                         _______ _______ _______ _____ _____    ______ ____
ROOT
ATOM      1  C   UNL     1       4.635   4.968  16.409  0.00  0.00    +0.000 C 
ATOM      2  O   UNL     1       4.256   5.985  16.985  0.00  0.00    +0.000 OA
ATOM      3  N   UNL     1       4.427   3.665  16.830  0.00  0.00    +0.000 N 
ATOM      4  H   UNL     1       4.974   2.940  16.380  0.00  0.00    +0.000 HD
ENDROOT
BRANCH   3   5
ATOM      5  C   UNL     1       3.702   3.287  17.981  0.00  0.00    +0.000 A 
ATOM      6  C   UNL     1       2.349   2.938  17.941  0.00  0.00    +0.000 A 
ATOM      7  C   UNL     1       1.639   2.678  19.116  0.00  0.00    +0.000 A 
ATOM      8  C   UNL     1       2.287   2.751  20.349  0.00  0.00    +0.000 A 
ATOM      9  C   UNL     1       3.655   3.030  20.396  0.00  0.00    +0.000 A 
ATOM     10  C   UNL     1       4.365   3.285  19.213  0.00  0.00    +0.000 A 
BRANCH   8  11
ATOM     11  C   UNL     1       1.545   2.550  21.558  0.00  0.00    +0.000 C 
ATOM     12  N   UNL     1       0.946   2.370  22.538  0.00  0.00    +0.000 NA
ENDBRANCH   8  11
ENDBRANCH   3   5
BRANCH   1  13
ATOM     13  C   UNL     1       5.451   5.086  15.141  0.00  0.00    +0.000 C 
BRANCH  13  14
ATOM     14  C   UNL     1       6.936   4.920  15.421  0.00  0.00    +0.000 C 
BRANCH  14  19
ATOM     15  C   UNL     1       8.066   8.877  17.951  0.00  0.00    +0.000 C 
ATOM     16  C   UNL     1       7.843   7.424  17.809  0.00  0.00    +0.000 A 
ATOM     17  C   UNL     1       7.910   6.368  18.691  0.00  0.00    +0.000 A 
ATOM     18  C   UNL     1       7.579   5.208  17.951  0.00  0.00    +0.000 A 
ATOM     19  C   UNL     1       7.329   5.629  16.663  0.00  0.00    +0.000 A 
ATOM     20  O   UNL     1       7.493   6.979  16.569  0.00  0.00    +0.000 OA
ENDBRANCH  14  19
ENDBRANCH  13  14
ENDBRANCH   1  13
TORSDOF 5
ENDMDL
MODEL 2
REMARK VINA RESULT:      -6.9      0.218      1.126
REMARK  Name = 
REMARK  6 active torsions:
REMARK  status: ('A' for Active; 'I' for Inactive)
REMARK    1  A    between atoms: C_1  and  C_2
REMARK    2  A    between atoms: C_5  and  C_6
REMARK    3  A    between atoms: C_6  and  C_7
REMARK    4  A    between atoms: C_7  and  C_8
REMARK    5  A    between atoms: N_10  and  C_11
REMARK    6  A    between atoms: C_14  and  C_15
REMARK                            x       y       z     vdW  Elec       q    Type
REMARK                         _______ _______ _______ _____ _____    ______ ____
ROOT
ATOM      1  C   UNL     1       4.717   4.907  16.319  0.00  0.00    +0.000 C 
ATOM      2  O   UNL     1       4.313   6.001  16.705  0.00  0.00    +0.000 OA
ATOM      3  N   UNL     1       4.513   3.692  16.952  0.00  0.00    +0.000 N 
ATOM      4  H   UNL     1       5.079   2.909  16.646  0.00  0.00    +0.000 HD
ENDROOT
BRANCH   3   5
ATOM      5  C   UNL     1       3.764   3.505  18.134  0.00  0.00    +0.000 A 
ATOM      6  C   UNL     1       4.321   3.634  19.410  0.00  0.00    +0.000 A 
ATOM      7  C   UNL     1       3.576   3.334  20.554  0.00  0.00    +0.000 A 
ATOM      8  C   UNL     1       2.252   2.912  20.428  0.00  0.00    +0.000 A 
ATOM      9  C   UNL     1       1.664   2.846  19.164  0.00  0.00    +0.000 A 
ATOM     10  C   UNL     1       2.415   3.154  18.019  0.00  0.00    +0.000 A 
BRANCH   8  11
ATOM     11  C   UNL     1       1.509   2.539  21.595  0.00  0.00    +0.000 C 
ATOM     12  N   UNL     1       0.919   2.243  22.552  0.00  0.00    +0.000 NA
ENDBRANCH   8  11
ENDBRANCH   3   5
BRANCH   1  13
ATOM     13  C   UNL     1       5.563   4.819  15.069  0.00  0.00    +0.000 C 
BRANCH  13  14
ATOM     14  C   UNL     1       7.040   4.707  15.407  0.00  0.00    +0.000 C 
BRANCH  14  19
ATOM     15  C   UNL     1       7.976   8.784  17.821  0.00  0.00    +0.000 C 
ATOM     16  C   UNL     1       7.795   7.322  17.727  0.00  0.00    +0.000 A 
ATOM     17  C   UNL     1       7.855   6.303  18.652  0.00  0.00    +0.000 A 
ATOM     18  C   UNL     1       7.581   5.106  17.946  0.00  0.00    +0.000 A 
ATOM     19  C   UNL     1       7.369   5.472  16.634  0.00  0.00    +0.000 A 
ATOM     20  O   UNL     1       7.503   6.821  16.493  0.00  0.00    +0.000 OA
ENDBRANCH  14  19
ENDBRANCH  13  14
ENDBRANCH   1  13
TORSDOF 5
ENDMDL
MODEL 3
REMARK VINA RESULT:      -6.9      2.524      6.232
REMARK  Name = 
REMARK  6 active torsions:
REMARK  status: ('A' for Active; 'I' for Inactive)
REMARK    1  A    between atoms: C_1  and  C_2
REMARK    2  A    between atoms: C_5  and  C_6
REMARK    3  A    between atoms: C_6  and  C_7
REMARK    4  A    between atoms: C_7  and  C_8
REMARK    5  A    between atoms: N_10  and  C_11
REMARK    6  A    between atoms: C_14  and  C_15
REMARK                            x       y       z     vdW  Elec       q    Type
REMARK                         _______ _______ _______ _____ _____    ______ ____
ROOT
ATOM      1  C   UNL     1       4.490   2.743  18.606  0.00  0.00    +0.000 C 
ATOM      2  O   UNL     1       4.948   2.894  19.736  0.00  0.00    +0.000 OA
ATOM      3  N   UNL     1       4.725   3.561  17.513  0.00  0.00    +0.000 N 
ATOM      4  H   UNL     1       4.119   3.446  16.709  0.00  0.00    +0.000 HD
ENDROOT
BRANCH   3   5
ATOM      5  C   UNL     1       5.572   4.691  17.509  0.00  0.00    +0.000 A 
ATOM      6  C   UNL     1       6.881   4.655  17.998  0.00  0.00    +0.000 A 
ATOM      7  C   UNL     1       7.650   5.819  18.079  0.00  0.00    +0.000 A 
ATOM      8  C   UNL     1       7.114   7.036  17.655  0.00  0.00    +0.000 A 
ATOM      9  C   UNL     1       5.833   7.072  17.100  0.00  0.00    +0.000 A 
ATOM     10  C   UNL     1       5.067   5.899  17.015  0.00  0.00    +0.000 A 
BRANCH   8  11
ATOM     11  C   UNL     1       7.876   8.240  17.800  0.00  0.00    +0.000 C 
ATOM     12  N   UNL     1       8.481   9.225  17.927  0.00  0.00    +0.000 NA
ENDBRANCH   8  11
ENDBRANCH   3   5
BRANCH   1  13
ATOM     13  C   UNL     1       3.535   1.603  18.331  0.00  0.00    +0.000 C 
BRANCH  13  14
ATOM     14  C   UNL     1       2.109   2.103  18.169  0.00  0.00    +0.000 C 
BRANCH  14  19
ATOM     15  C   UNL     1       2.331   6.739  19.505  0.00  0.00    +0.000 C 
ATOM     16  C   UNL     1       1.930   5.331  19.697  0.00  0.00    +0.000 A 
ATOM     17  C   UNL     1       1.229   4.677  20.687  0.00  0.00    +0.000 A 
ATOM     18  C   UNL     1       1.163   3.318  20.297  0.00  0.00    +0.000 A 
ATOM     19  C   UNL     1       1.827   3.228  19.093  0.00  0.00    +0.000 A 
ATOM     20  O   UNL     1       2.302   4.452  18.724  0.00  0.00    +0.000 OA
ENDBRANCH  14  19
ENDBRANCH  13  14
ENDBRANCH   1  13
TORSDOF 5
ENDMDL
MODEL 4
REMARK VINA RESULT:      -6.8      2.999      4.998
REMARK  Name = 
REMARK  6 active torsions:
REMARK  status: ('A' for Active; 'I' for Inactive)
REMARK    1  A    between atoms: C_1  and  C_2
REMARK    2  A    between atoms: C_5  and  C_6
REMARK    3  A    between atoms: C_6  and  C_7
REMARK    4  A    between atoms: C_7  and  C_8
REMARK    5  A    between atoms: N_10  and  C_11
REMARK    6  A    between atoms: C_14  and  C_15
REMARK                            x       y       z     vdW  Elec       q    Type
REMARK                         _______ _______ _______ _____ _____    ______ ____
ROOT
ATOM      1  C   UNL     1       7.428   7.590  17.772  0.00  0.00    +0.000 C 
ATOM      2  O   UNL     1       7.823   6.745  18.571  0.00  0.00    +0.000 OA
ATOM      3  N   UNL     1       6.279   7.512  17.001  0.00  0.00    +0.000 N 
ATOM      4  H   UNL     1       6.190   8.170  16.236  0.00  0.00    +0.000 HD
ENDROOT
BRANCH   3   5
ATOM      5  C   UNL     1       5.344   6.456  17.040  0.00  0.00    +0.000 A 
ATOM      6  C   UNL     1       4.140   6.538  17.745  0.00  0.00    +0.000 A 
ATOM      7  C   UNL     1       3.292   5.432  17.851  0.00  0.00    +0.000 A 
ATOM      8  C   UNL     1       3.639   4.230  17.233  0.00  0.00    +0.000 A 
ATOM      9  C   UNL     1       4.804   4.157  16.468  0.00  0.00    +0.000 A 
ATOM     10  C   UNL     1       5.650   5.272  16.360  0.00  0.00    +0.000 A 
BRANCH   8  11
ATOM     11  C   UNL     1       2.804   3.078  17.397  0.00  0.00    +0.000 C 
ATOM     12  N   UNL     1       2.139   2.135  17.540  0.00  0.00    +0.000 NA
ENDBRANCH   8  11
ENDBRANCH   3   5
BRANCH   1  13
ATOM     13  C   UNL     1       8.254   8.833  17.527  0.00  0.00    +0.000 C 
BRANCH  13  14
ATOM     14  C   UNL     1       8.800   9.401  18.827  0.00  0.00    +0.000 C 
BRANCH  14  19
ATOM     15  C   UNL     1      12.223  12.745  19.483  0.00  0.00    +0.000 C 
ATOM     16  C   UNL     1      10.949  12.258  18.917  0.00  0.00    +0.000 A 
ATOM     17  C   UNL     1      10.006  12.827  18.090  0.00  0.00    +0.000 A 
ATOM     18  C   UNL     1       9.002  11.849  17.896  0.00  0.00    +0.000 A 
ATOM     19  C   UNL     1       9.396  10.742  18.617  0.00  0.00    +0.000 A 
ATOM     20  O   UNL     1      10.581  10.988  19.246  0.00  0.00    +0.000 OA
ENDBRANCH  14  19
ENDBRANCH  13  14
ENDBRANCH   1  13
TORSDOF 5
ENDMDL
MODEL 5
REMARK VINA RESULT:      -6.8      3.015      3.250
REMARK  Name = 
REMARK  6 active torsions:
REMARK  status: ('A' for Active; 'I' for Inactive)
REMARK    1  A    between atoms: C_1  and  C_2
REMARK    2  A    between atoms: C_5  and  C_6
REMARK    3  A    between atoms: C_6  and  C_7
REMARK    4  A    between atoms: C_7  and  C_8
REMARK    5  A    between atoms: N_10  and  C_11
REMARK    6  A    between atoms: C_14  and  C_15
REMARK                            x       y       z     vdW  Elec       q    Type
REMARK                         _______ _______ _______ _____ _____    ______ ____
ROOT
ATOM      1  C   UNL     1       4.577   4.918  16.376  0.00  0.00    +0.000 C 
ATOM      2  O   UNL     1       3.921   3.968  16.796  0.00  0.00    +0.000 OA
ATOM      3  N   UNL     1       4.446   6.240  16.770  0.00  0.00    +0.000 N 
ATOM      4  H   UNL     1       4.894   6.942  16.193  0.00  0.00    +0.000 HD
ENDROOT
BRANCH   3   5
ATOM      5  C   UNL     1       3.554   6.710  17.759  0.00  0.00    +0.000 A 
ATOM      6  C   UNL     1       2.822   7.892  17.615  0.00  0.00    +0.000 A 
ATOM      7  C   UNL     1       2.034   8.381  18.661  0.00  0.00    +0.000 A 
ATOM      8  C   UNL     1       1.962   7.677  19.863  0.00  0.00    +0.000 A 
ATOM      9  C   UNL     1       2.633   6.460  19.993  0.00  0.00    +0.000 A 
ATOM     10  C   UNL     1       3.418   5.970  18.938  0.00  0.00    +0.000 A 
BRANCH   8  11
ATOM     11  C   UNL     1       1.209   8.212  20.958  0.00  0.00    +0.000 C 
ATOM     12  N   UNL     1       0.604   8.662  21.843  0.00  0.00    +0.000 NA
ENDBRANCH   8  11
ENDBRANCH   3   5
BRANCH   1  13
ATOM     13  C   UNL     1       5.608   4.695  15.293  0.00  0.00    +0.000 C 
BRANCH  13  14
ATOM     14  C   UNL     1       6.954   4.302  15.882  0.00  0.00    +0.000 C 
BRANCH  14  19
ATOM     15  C   UNL     1       8.011   8.611  17.790  0.00  0.00    +0.000 C 
ATOM     16  C   UNL     1       7.810   7.150  17.867  0.00  0.00    +0.000 A 
ATOM     17  C   UNL     1       7.889   6.241  18.899  0.00  0.00    +0.000 A 
ATOM     18  C   UNL     1       7.579   4.977  18.342  0.00  0.00    +0.000 A 
ATOM     19  C   UNL     1       7.330   5.195  17.004  0.00  0.00    +0.000 A 
ATOM     20  O   UNL     1       7.474   6.518  16.707  0.00  0.00    +0.000 OA
ENDBRANCH  14  19
ENDBRANCH  13  14
ENDBRANCH   1  13
TORSDOF 5
ENDMDL
MODEL 6
REMARK VINA RESULT:      -6.7      2.462      3.805
REMARK  Name = 
REMARK  6 active torsions:
REMARK  status: ('A' for Active; 'I' for Inactive)
REMARK    1  A    between atoms: C_1  and  C_2
REMARK    2  A    between atoms: C_5  and  C_6
REMARK    3  A    between atoms: C_6  and  C_7
REMARK    4  A    between atoms: C_7  and  C_8
REMARK    5  A    between atoms: N_10  and  C_11
REMARK    6  A    between atoms: C_14  and  C_15
REMARK                            x       y       z     vdW  Elec       q    Type
REMARK                         _______ _______ _______ _____ _____    ______ ____
ROOT
ATOM      1  C   UNL     1       6.801   6.429  18.126  0.00  0.00    +0.000 C 
ATOM      2  O   UNL     1       6.976   5.692  19.092  0.00  0.00    +0.000 OA
ATOM      3  N   UNL     1       5.677   6.462  17.316  0.00  0.00    +0.000 N 
ATOM      4  H   UNL     1       5.755   6.959  16.436  0.00  0.00    +0.000 HD
ENDROOT
BRANCH   3   5
ATOM      5  C   UNL     1       4.520   5.674  17.497  0.00  0.00    +0.000 A 
ATOM      6  C   UNL     1       3.403   6.122  18.209  0.00  0.00    +0.000 A 
ATOM      7  C   UNL     1       2.323   5.273  18.461  0.00  0.00    +0.000 A 
ATOM      8  C   UNL     1       2.346   3.962  17.985  0.00  0.00    +0.000 A 
ATOM      9  C   UNL     1       3.424   3.524  17.214  0.00  0.00    +0.000 A 
ATOM     10  C   UNL     1       4.504   4.383  16.958  0.00  0.00    +0.000 A 
BRANCH   8  11
ATOM     11  C   UNL     1       1.269   3.070  18.300  0.00  0.00    +0.000 C 
ATOM     12  N   UNL     1       0.401   2.336  18.542  0.00  0.00    +0.000 NA
ENDBRANCH   8  11
ENDBRANCH   3   5
BRANCH   1  13
ATOM     13  C   UNL     1       7.897   7.379  17.700  0.00  0.00    +0.000 C 
BRANCH  13  14
ATOM     14  C   UNL     1       7.386   8.808  17.604  0.00  0.00    +0.000 C 
BRANCH  14  19
ATOM     15  C   UNL     1       9.681  13.056  17.735  0.00  0.00    +0.000 C 
ATOM     16  C   UNL     1       9.405  11.693  18.231  0.00  0.00    +0.000 A 
ATOM     17  C   UNL     1       9.905  10.951  19.278  0.00  0.00    +0.000 A 
ATOM     18  C   UNL     1       9.233   9.705  19.242  0.00  0.00    +0.000 A 
ATOM     19  C   UNL     1       8.364   9.766  18.174  0.00  0.00    +0.000 A 
ATOM     20  O   UNL     1       8.468  10.974  17.550  0.00  0.00    +0.000 OA
ENDBRANCH  14  19
ENDBRANCH  13  14
ENDBRANCH   1  13
TORSDOF 5
ENDMDL
MODEL 7
REMARK VINA RESULT:      -6.7      2.716      4.412
REMARK  Name = 
REMARK  6 active torsions:
REMARK  status: ('A' for Active; 'I' for Inactive)
REMARK    1  A    between atoms: C_1  and  C_2
REMARK    2  A    between atoms: C_5  and  C_6
REMARK    3  A    between atoms: C_6  and  C_7
REMARK    4  A    between atoms: C_7  and  C_8
REMARK    5  A    between atoms: N_10  and  C_11
REMARK    6  A    between atoms: C_14  and  C_15
REMARK                            x       y       z     vdW  Elec       q    Type
REMARK                         _______ _______ _______ _____ _____    ______ ____
ROOT
ATOM      1  C   UNL     1       5.413   4.536  16.126  0.00  0.00    +0.000 C 
ATOM      2  O   UNL     1       6.354   4.028  16.731  0.00  0.00    +0.000 OA
ATOM      3  N   UNL     1       4.096   4.581  16.553  0.00  0.00    +0.000 N 
ATOM      4  H   UNL     1       3.395   4.834  15.866  0.00  0.00    +0.000 HD
ENDROOT
BRANCH   3   5
ATOM      5  C   UNL     1       3.622   4.082  17.785  0.00  0.00    +0.000 A 
ATOM      6  C   UNL     1       3.371   2.724  18.004  0.00  0.00    +0.000 A 
ATOM      7  C   UNL     1       2.798   2.282  19.200  0.00  0.00    +0.000 A 
ATOM      8  C   UNL     1       2.483   3.203  20.200  0.00  0.00    +0.000 A 
ATOM      9  C   UNL     1       2.794   4.553  20.020  0.00  0.00    +0.000 A 
ATOM     10  C   UNL     1       3.374   4.990  18.820  0.00  0.00    +0.000 A 
BRANCH   8  11
ATOM     11  C   UNL     1       1.835   2.760  21.398  0.00  0.00    +0.000 C 
ATOM     12  N   UNL     1       1.314   2.384  22.367  0.00  0.00    +0.000 NA
ENDBRANCH   8  11
ENDBRANCH   3   5
BRANCH   1  13
ATOM     13  C   UNL     1       5.641   5.143  14.760  0.00  0.00    +0.000 C 
BRANCH  13  14
ATOM     14  C   UNL     1       6.754   4.424  14.013  0.00  0.00    +0.000 C 
BRANCH  14  19
ATOM     15  C   UNL     1       3.307   3.165  10.872  0.00  0.00    +0.000 C 
ATOM     16  C   UNL     1       4.646   3.034  11.480  0.00  0.00    +0.000 A 
ATOM     17  C   UNL     1       5.717   2.202  11.233  0.00  0.00    +0.000 A 
ATOM     18  C   UNL     1       6.728   2.570  12.153  0.00  0.00    +0.000 A 
ATOM     19  C   UNL     1       6.211   3.604  12.903  0.00  0.00    +0.000 A 
ATOM     20  O   UNL     1       4.940   3.888  12.500  0.00  0.00    +0.000 OA
ENDBRANCH  14  19
ENDBRANCH  13  14
ENDBRANCH   1  13
TORSDOF 5
ENDMDL
MODEL 8
REMARK VINA RESULT:      -6.6      4.421      5.756
REMARK  Name = 
REMARK  6 active torsions:
REMARK  status: ('A' for Active; 'I' for Inactive)
REMARK    1  A    between atoms: C_1  and  C_2
REMARK    2  A    between atoms: C_5  and  C_6
REMARK    3  A    between atoms: C_6  and  C_7
REMARK    4  A    between atoms: C_7  and  C_8
REMARK    5  A    between atoms: N_10  and  C_11
REMARK    6  A    between atoms: C_14  and  C_15
REMARK                            x       y       z     vdW  Elec       q    Type
REMARK                         _______ _______ _______ _____ _____    ______ ____
ROOT
ATOM      1  C   UNL     1       2.042   4.523  20.518  0.00  0.00    +0.000 C 
ATOM      2  O   UNL     1       0.846   4.361  20.287  0.00  0.00    +0.000 OA
ATOM      3  N   UNL     1       2.752   5.701  20.357  0.00  0.00    +0.000 N 
ATOM      4  H   UNL     1       3.764   5.639  20.377  0.00  0.00    +0.000 HD
ENDROOT
BRANCH   3   5
ATOM      5  C   UNL     1       2.204   6.932  19.936  0.00  0.00    +0.000 A 
ATOM      6  C   UNL     1       2.402   7.447  18.651  0.00  0.00    +0.000 A 
ATOM      7  C   UNL     1       1.936   8.719  18.307  0.00  0.00    +0.000 A 
ATOM      8  C   UNL     1       1.249   9.485  19.249  0.00  0.00    +0.000 A 
ATOM      9  C   UNL     1       0.984   8.953  20.513  0.00  0.00    +0.000 A 
ATOM     10  C   UNL     1       1.450   7.673  20.852  0.00  0.00    +0.000 A 
BRANCH   8  11
ATOM     11  C   UNL     1       0.830  10.814  18.919  0.00  0.00    +0.000 C 
ATOM     12  N   UNL     1       0.493  11.889  18.633  0.00  0.00    +0.000 NA
ENDBRANCH   8  11
ENDBRANCH   3   5
BRANCH   1  13
ATOM     13  C   UNL     1       2.881   3.353  20.979  0.00  0.00    +0.000 C 
BRANCH  13  14
ATOM     14  C   UNL     1       3.322   2.492  19.806  0.00  0.00    +0.000 C 
BRANCH  14  19
ATOM     15  C   UNL     1       7.039   5.320  18.577  0.00  0.00    +0.000 C 
ATOM     16  C   UNL     1       5.808   4.561  18.280  0.00  0.00    +0.000 A 
ATOM     17  C   UNL     1       5.085   4.349  17.127  0.00  0.00    +0.000 A 
ATOM     18  C   UNL     1       3.995   3.520  17.485  0.00  0.00    +0.000 A 
ATOM     19  C   UNL     1       4.122   3.277  18.836  0.00  0.00    +0.000 A 
ATOM     20  O   UNL     1       5.223   3.913  19.327  0.00  0.00    +0.000 OA
ENDBRANCH  14  19
ENDBRANCH  13  14
ENDBRANCH   1  13
TORSDOF 5
ENDMDL
MODEL 9
REMARK VINA RESULT:      -6.6      4.170      4.470
REMARK  Name = 
REMARK  6 active torsions:
REMARK  status: ('A' for Active; 'I' for Inactive)
REMARK    1  A    between atoms: C_1  and  C_2
REMARK    2  A    between atoms: C_5  and  C_6
REMARK    3  A    between atoms: C_6  and  C_7
REMARK    4  A    between atoms: C_7  and  C_8
REMARK    5  A    between atoms: N_10  and  C_11
REMARK    6  A    between atoms: C_14  and  C_15
REMARK                            x       y       z     vdW  Elec       q    Type
REMARK                         _______ _______ _______ _____ _____    ______ ____
ROOT
ATOM      1  C   UNL     1       3.066   4.897  17.691  0.00  0.00    +0.000 C 
ATOM      2  O   UNL     1       1.902   4.534  17.543  0.00  0.00    +0.000 OA
ATOM      3  N   UNL     1       3.485   6.140  18.139  0.00  0.00    +0.000 N 
ATOM      4  H   UNL     1       4.462   6.375  18.008  0.00  0.00    +0.000 HD
ENDROOT
BRANCH   3   5
ATOM      5  C   UNL     1       2.631   7.189  18.541  0.00  0.00    +0.000 A 
ATOM      6  C   UNL     1       2.214   8.200  17.670  0.00  0.00    +0.000 A 
ATOM      7  C   UNL     1       1.459   9.282  18.132  0.00  0.00    +0.000 A 
ATOM      8  C   UNL     1       1.101   9.353  19.478  0.00  0.00    +0.000 A 
ATOM      9  C   UNL     1       1.453   8.315  20.344  0.00  0.00    +0.000 A 
ATOM     10  C   UNL     1       2.205   7.228  19.873  0.00  0.00    +0.000 A 
BRANCH   8  11
ATOM     11  C   UNL     1       0.386  10.494  19.967  0.00  0.00    +0.000 C 
ATOM     12  N   UNL     1      -0.206  11.419  20.349  0.00  0.00    +0.000 NA
ENDBRANCH   8  11
ENDBRANCH   3   5
BRANCH   1  13
ATOM     13  C   UNL     1       4.195   3.961  17.323  0.00  0.00    +0.000 C 
BRANCH  13  14
ATOM     14  C   UNL     1       5.207   4.643  16.416  0.00  0.00    +0.000 C 
BRANCH  14  19
ATOM     15  C   UNL     1       7.827   8.523  17.604  0.00  0.00    +0.000 C 
ATOM     16  C   UNL     1       7.435   7.106  17.743  0.00  0.00    +0.000 A 
ATOM     17  C   UNL     1       7.855   6.088  18.570  0.00  0.00    +0.000 A 
ATOM     18  C   UNL     1       7.088   4.950  18.223  0.00  0.00    +0.000 A 
ATOM     19  C   UNL     1       6.246   5.346  17.206  0.00  0.00    +0.000 A 
ATOM     20  O   UNL     1       6.457   6.659  16.905  0.00  0.00    +0.000 OA
ENDBRANCH  14  19
ENDBRANCH  13  14
ENDBRANCH   1  13
TORSDOF 5
ENDMDL
