MODEL 1
REMARK VINA RESULT:      -7.9      0.000      0.000
REMARK  Name = 
REMARK  3 active torsions:
REMARK  status: ('A' for Active; 'I' for Inactive)
REMARK    1  A    between atoms: N_1  and  N_2
REMARK    2  A    between atoms: N_6  and  C_7
REMARK    3  A    between atoms: C_18  and  C_19
REMARK                            x       y       z     vdW  Elec       q    Type
REMARK                         _______ _______ _______ _____ _____    ______ ____
ROOT
ATOM      1  N   UNL     1       4.232   3.175  19.047  0.00  0.00    +0.000 NA
ATOM      2  C   UNL     1       4.654   4.171  18.322  0.00  0.00    +0.000 C 
ATOM      3  C   UNL     1       3.613   5.201  17.931  0.00  0.00    +0.000 C 
ATOM      4  O   UNL     1       2.618   4.819  17.333  0.00  0.00    +0.000 OA
ATOM      5  N   UNL     1       3.952   6.484  18.337  0.00  0.00    +0.000 N 
ATOM      6  C   UNL     1       5.244   6.917  18.041  0.00  0.00    +0.000 C 
ATOM      7  O   UNL     1       5.603   7.976  17.531  0.00  0.00    +0.000 OA
ATOM      8  C   UNL     1       6.334   5.919  18.362  0.00  0.00    +0.000 C 
ATOM      9  O   UNL     1       7.334   6.278  18.970  0.00  0.00    +0.000 OA
ATOM     10  C   UNL     1       6.061   4.516  17.959  0.00  0.00    +0.000 C 
ENDROOT
BRANCH  10  11
ATOM     11  C   UNL     1       6.247   4.392  16.481  0.00  0.00    +0.000 A 
ATOM     12  N   UNL     1       7.113   5.086  15.776  0.00  0.00    +0.000 NA
ATOM     13  C   UNL     1       7.039   4.726  14.433  0.00  0.00    +0.000 A 
ATOM     14  C   UNL     1       7.809   5.260  13.378  0.00  0.00    +0.000 A 
ATOM     15  C   UNL     1       7.615   4.800  12.069  0.00  0.00    +0.000 A 
ATOM     16  C   UNL     1       6.669   3.816  11.799  0.00  0.00    +0.000 A 
ATOM     17  C   UNL     1       5.896   3.268  12.827  0.00  0.00    +0.000 A 
ATOM     18  C   UNL     1       6.096   3.740  14.135  0.00  0.00    +0.000 A 
ATOM     19  S   UNL     1       5.300   3.271  15.587  0.00  0.00    +0.000 S 
ENDBRANCH  10  11
BRANCH   5  20
ATOM     20  C   UNL     1       2.923   7.445  18.649  0.00  0.00    +0.000 A 
ATOM     21  C   UNL     1       2.443   8.361  17.695  0.00  0.00    +0.000 A 
ATOM     22  C   UNL     1       1.454   9.299  18.019  0.00  0.00    +0.000 A 
ATOM     23  C   UNL     1       0.916   9.326  19.300  0.00  0.00    +0.000 A 
ATOM     24 CL   UNL     1      -0.244  10.518  19.729  0.00  0.00    +0.000 Cl
ATOM     25  C   UNL     1       1.312   8.384  20.237  0.00  0.00    +0.000 A 
ATOM     26  C   UNL     1       2.283   7.438  19.902  0.00  0.00    +0.000 A 
ENDBRANCH   5  20
BRANCH   1  27
ATOM     27  N   UNL     1       5.150   2.336  19.566  0.00  0.00    +0.000 N 
ATOM     28  H   UNL     1       5.751   2.857  20.212  0.00  0.00    +0.000 HD
ATOM     29  H   UNL     1       4.763   1.567  20.116  0.00  0.00    +0.000 HD
ENDBRANCH   1  27
TORSDOF 3
ENDMDL
MODEL 2
REMARK VINA RESULT:      -7.9      0.785      1.207
REMARK  Name = 
REMARK  3 active torsions:
REMARK  status: ('A' for Active; 'I' for Inactive)
REMARK    1  A    between atoms: N_1  and  N_2
REMARK    2  A    between atoms: N_6  and  C_7
REMARK    3  A    between atoms: C_18  and  C_19
REMARK                            x       y       z     vdW  Elec       q    Type
REMARK                         _______ _______ _______ _____ _____    ______ ____
ROOT
ATOM      1  N   UNL     1       3.967   2.955  18.916  0.00  0.00    +0.000 NA
ATOM      2  C   UNL     1       4.459   3.979  18.281  0.00  0.00    +0.000 C 
ATOM      3  C   UNL     1       3.479   5.078  17.923  0.00  0.00    +0.000 C 
ATOM      4  O   UNL     1       2.494   4.783  17.263  0.00  0.00    +0.000 OA
ATOM      5  N   UNL     1       3.855   6.314  18.431  0.00  0.00    +0.000 N 
ATOM      6  C   UNL     1       5.174   6.709  18.216  0.00  0.00    +0.000 C 
ATOM      7  O   UNL     1       5.598   7.784  17.796  0.00  0.00    +0.000 OA
ATOM      8  C   UNL     1       6.207   5.643  18.507  0.00  0.00    +0.000 C 
ATOM      9  O   UNL     1       7.196   5.915  19.176  0.00  0.00    +0.000 OA
ATOM     10  C   UNL     1       5.893   4.285  17.995  0.00  0.00    +0.000 C 
ENDROOT
BRANCH  10  11
ATOM     11  C   UNL     1       6.134   4.255  16.521  0.00  0.00    +0.000 A 
ATOM     12  N   UNL     1       5.410   3.577  15.658  0.00  0.00    +0.000 NA
ATOM     13  C   UNL     1       5.895   3.769  14.367  0.00  0.00    +0.000 A 
ATOM     14  C   UNL     1       5.379   3.200  13.184  0.00  0.00    +0.000 A 
ATOM     15  C   UNL     1       5.982   3.482  11.951  0.00  0.00    +0.000 A 
ATOM     16  C   UNL     1       7.087   4.325  11.882  0.00  0.00    +0.000 A 
ATOM     17  C   UNL     1       7.614   4.905  13.039  0.00  0.00    +0.000 A 
ATOM     18  C   UNL     1       7.005   4.611  14.270  0.00  0.00    +0.000 A 
ATOM     19  S   UNL     1       7.429   5.161  15.845  0.00  0.00    +0.000 S 
ENDBRANCH  10  11
BRANCH   5  20
ATOM     20  C   UNL     1       2.854   7.296  18.772  0.00  0.00    +0.000 A 
ATOM     21  C   UNL     1       2.373   8.227  17.833  0.00  0.00    +0.000 A 
ATOM     22  C   UNL     1       1.413   9.186  18.184  0.00  0.00    +0.000 A 
ATOM     23  C   UNL     1       0.905   9.218  19.477  0.00  0.00    +0.000 A 
ATOM     24 CL   UNL     1      -0.218  10.433  19.938  0.00  0.00    +0.000 Cl
ATOM     25  C   UNL     1       1.301   8.262  20.400  0.00  0.00    +0.000 A 
ATOM     26  C   UNL     1       2.243   7.297  20.039  0.00  0.00    +0.000 A 
ENDBRANCH   5  20
BRANCH   1  27
ATOM     27  N   UNL     1       4.827   2.043  19.409  0.00  0.00    +0.000 N 
ATOM     28  H   UNL     1       4.378   1.121  19.400  0.00  0.00    +0.000 HD
ATOM     29  H   UNL     1       5.687   1.929  18.868  0.00  0.00    +0.000 HD
ENDBRANCH   1  27
TORSDOF 3
ENDMDL
MODEL 3
REMARK VINA RESULT:      -7.4      5.430      9.126
REMARK  Name = 
REMARK  3 active torsions:
REMARK  status: ('A' for Active; 'I' for Inactive)
REMARK    1  A    between atoms: N_1  and  N_2
REMARK    2  A    between atoms: N_6  and  C_7
REMARK    3  A    between atoms: C_18  and  C_19
REMARK                            x       y       z     vdW  Elec       q    Type
REMARK                         _______ _______ _______ _____ _____    ______ ____
ROOT
ATOM      1  N   UNL     1       2.597  11.479  17.806  0.00  0.00    +0.000 NA
ATOM      2  C   UNL     1       1.630  10.928  18.480  0.00  0.00    +0.000 C 
ATOM      3  C   UNL     1       1.487   9.426  18.339  0.00  0.00    +0.000 C 
ATOM      4  O   UNL     1       1.351   8.961  17.217  0.00  0.00    +0.000 OA
ATOM      5  N   UNL     1       1.548   8.767  19.559  0.00  0.00    +0.000 N 
ATOM      6  C   UNL     1       0.747   9.267  20.584  0.00  0.00    +0.000 C 
ATOM      7  O   UNL     1      -0.010   8.658  21.337  0.00  0.00    +0.000 OA
ATOM      8  C   UNL     1       0.802  10.769  20.753  0.00  0.00    +0.000 C 
ATOM      9  O   UNL     1       0.950  11.256  21.867  0.00  0.00    +0.000 OA
ATOM     10  C   UNL     1       0.738  11.561  19.498  0.00  0.00    +0.000 C 
ENDROOT
BRANCH  10  11
ATOM     11  C   UNL     1      -0.671  11.569  19.002  0.00  0.00    +0.000 A 
ATOM     12  N   UNL     1      -1.042  11.209  17.793  0.00  0.00    +0.000 NA
ATOM     13  C   UNL     1      -2.423  11.327  17.657  0.00  0.00    +0.000 A 
ATOM     14  C   UNL     1      -3.179  11.037  16.502  0.00  0.00    +0.000 A 
ATOM     15  C   UNL     1      -4.569  11.213  16.514  0.00  0.00    +0.000 A 
ATOM     16  C   UNL     1      -5.213  11.668  17.661  0.00  0.00    +0.000 A 
ATOM     17  C   UNL     1      -4.487  11.959  18.819  0.00  0.00    +0.000 A 
ATOM     18  C   UNL     1      -3.093  11.783  18.794  0.00  0.00    +0.000 A 
ATOM     19  S   UNL     1      -1.945  12.063  20.045  0.00  0.00    +0.000 S 
ENDBRANCH  10  11
BRANCH   5  20
ATOM     20  C   UNL     1       2.061   7.422  19.635  0.00  0.00    +0.000 A 
ATOM     21  C   UNL     1       1.564   6.485  20.561  0.00  0.00    +0.000 A 
ATOM     22  C   UNL     1       2.085   5.186  20.634  0.00  0.00    +0.000 A 
ATOM     23  C   UNL     1       3.101   4.796  19.769  0.00  0.00    +0.000 A 
ATOM     24 CL   UNL     1       3.796   3.231  19.897  0.00  0.00    +0.000 Cl
ATOM     25  C   UNL     1       3.555   5.672  18.795  0.00  0.00    +0.000 A 
ATOM     26  C   UNL     1       3.018   6.958  18.713  0.00  0.00    +0.000 A 
ENDBRANCH   5  20
BRANCH   1  27
ATOM     27  N   UNL     1       2.872  12.778  18.039  0.00  0.00    +0.000 N 
ATOM     28  H   UNL     1       2.705  13.313  17.181  0.00  0.00    +0.000 HD
ATOM     29  H   UNL     1       2.285  13.218  18.751  0.00  0.00    +0.000 HD
ENDBRANCH   1  27
TORSDOF 3
ENDMDL
MODEL 4
REMARK VINA RESULT:      -6.9      6.950     11.626
REMARK  Name = 
REMARK  3 active torsions:
REMARK  status: ('A' for Active; 'I' for Inactive)
REMARK    1  A    between atoms: N_1  and  N_2
REMARK    2  A    between atoms: N_6  and  C_7
REMARK    3  A    between atoms: C_18  and  C_19
REMARK                            x       y       z     vdW  Elec       q    Type
REMARK                         _______ _______ _______ _____ _____    ______ ____
ROOT
ATOM      1  N   UNL     1      -0.818  13.178  18.250  0.00  0.00    +0.000 NA
ATOM      2  C   UNL     1      -0.983  12.673  19.438  0.00  0.00    +0.000 C 
ATOM      3  C   UNL     1      -0.889  11.164  19.541  0.00  0.00    +0.000 C 
ATOM      4  O   UNL     1      -1.631  10.489  18.842  0.00  0.00    +0.000 OA
ATOM      5  N   UNL     1       0.077  10.749  20.447  0.00  0.00    +0.000 N 
ATOM      6  C   UNL     1       0.062  11.353  21.703  0.00  0.00    +0.000 C 
ATOM      7  O   UNL     1       0.115  10.824  22.812  0.00  0.00    +0.000 OA
ATOM      8  C   UNL     1      -0.078  12.858  21.679  0.00  0.00    +0.000 C 
ATOM      9  O   UNL     1       0.663  13.554  22.363  0.00  0.00    +0.000 OA
ATOM     10  C   UNL     1      -1.095  13.396  20.740  0.00  0.00    +0.000 C 
ENDROOT
BRANCH  10  11
ATOM     11  C   UNL     1      -2.454  13.181  21.324  0.00  0.00    +0.000 A 
ATOM     12  N   UNL     1      -2.715  13.130  22.611  0.00  0.00    +0.000 NA
ATOM     13  C   UNL     1      -4.077  12.925  22.819  0.00  0.00    +0.000 A 
ATOM     14  C   UNL     1      -4.727  12.812  24.066  0.00  0.00    +0.000 A 
ATOM     15  C   UNL     1      -6.111  12.598  24.115  0.00  0.00    +0.000 A 
ATOM     16  C   UNL     1      -6.853  12.501  22.942  0.00  0.00    +0.000 A 
ATOM     17  C   UNL     1      -6.233  12.615  21.695  0.00  0.00    +0.000 A 
ATOM     18  C   UNL     1      -4.844  12.824  21.657  0.00  0.00    +0.000 A 
ATOM     19  S   UNL     1      -3.813  12.992  20.289  0.00  0.00    +0.000 S 
ENDBRANCH  10  11
BRANCH   5  20
ATOM     20  C   UNL     1       0.763   9.495  20.257  0.00  0.00    +0.000 A 
ATOM     21  C   UNL     1       0.684   8.451  21.198  0.00  0.00    +0.000 A 
ATOM     22  C   UNL     1       1.370   7.245  21.008  0.00  0.00    +0.000 A 
ATOM     23  C   UNL     1       2.133   7.054  19.862  0.00  0.00    +0.000 A 
ATOM     24 CL   UNL     1       3.035   5.608  19.651  0.00  0.00    +0.000 Cl
ATOM     25  C   UNL     1       2.164   8.033  18.880  0.00  0.00    +0.000 A 
ATOM     26  C   UNL     1       1.462   9.225  19.066  0.00  0.00    +0.000 A 
ENDBRANCH   5  20
BRANCH   1  27
ATOM     27  N   UNL     1      -0.716  14.518  18.140  0.00  0.00    +0.000 N 
ATOM     28  H   UNL     1      -1.649  14.932  18.228  0.00  0.00    +0.000 HD
ATOM     29  H   UNL     1      -0.152  14.964  18.867  0.00  0.00    +0.000 HD
ENDBRANCH   1  27
TORSDOF 3
ENDMDL
MODEL 5
REMARK VINA RESULT:      -6.8      5.739      9.657
REMARK  Name = 
REMARK  3 active torsions:
REMARK  status: ('A' for Active; 'I' for Inactive)
REMARK    1  A    between atoms: N_1  and  N_2
REMARK    2  A    between atoms: N_6  and  C_7
REMARK    3  A    between atoms: C_18  and  C_19
REMARK                            x       y       z     vdW  Elec       q    Type
REMARK                         _______ _______ _______ _____ _____    ______ ____
ROOT
ATOM      1  N   UNL     1       2.093  12.231  19.055  0.00  0.00    +0.000 NA
ATOM      2  C   UNL     1       1.116  11.481  19.477  0.00  0.00    +0.000 C 
ATOM      3  C   UNL     1       1.098  10.056  18.962  0.00  0.00    +0.000 C 
ATOM      4  O   UNL     1       1.090   9.877  17.753  0.00  0.00    +0.000 OA
ATOM      5  N   UNL     1       1.107   9.118  19.986  0.00  0.00    +0.000 N 
ATOM      6  C   UNL     1       0.190   9.306  21.019  0.00  0.00    +0.000 C 
ATOM      7  O   UNL     1      -0.579   8.490  21.523  0.00  0.00    +0.000 OA
ATOM      8  C   UNL     1       0.119  10.720  21.551  0.00  0.00    +0.000 C 
ATOM      9  O   UNL     1       0.138  10.922  22.759  0.00  0.00    +0.000 OA
ATOM     10  C   UNL     1       0.100  11.794  20.526  0.00  0.00    +0.000 C 
ENDROOT
BRANCH  10  11
ATOM     11  C   UNL     1      -1.261  11.852  19.911  0.00  0.00    +0.000 A 
ATOM     12  N   UNL     1      -1.555  11.425  18.703  0.00  0.00    +0.000 NA
ATOM     13  C   UNL     1      -2.910  11.617  18.441  0.00  0.00    +0.000 A 
ATOM     14  C   UNL     1      -3.588  11.288  17.248  0.00  0.00    +0.000 A 
ATOM     15  C   UNL     1      -4.959  11.550  17.129  0.00  0.00    +0.000 A 
ATOM     16  C   UNL     1      -5.662  12.129  18.181  0.00  0.00    +0.000 A 
ATOM     17  C   UNL     1      -5.014  12.461  19.374  0.00  0.00    +0.000 A 
ATOM     18  C   UNL     1      -3.637  12.199  19.481  0.00  0.00    +0.000 A 
ATOM     19  S   UNL     1      -2.578  12.501  20.804  0.00  0.00    +0.000 S 
ENDBRANCH  10  11
BRANCH   5  20
ATOM     20  C   UNL     1       1.711   7.825  19.783  0.00  0.00    +0.000 A 
ATOM     21  C   UNL     1       2.540   7.553  18.679  0.00  0.00    +0.000 A 
ATOM     22  C   UNL     1       3.106   6.286  18.487  0.00  0.00    +0.000 A 
ATOM     23  C   UNL     1       2.867   5.272  19.407  0.00  0.00    +0.000 A 
ATOM     24 CL   UNL     1       3.496   3.696  19.145  0.00  0.00    +0.000 Cl
ATOM     25  C   UNL     1       2.120   5.533  20.546  0.00  0.00    +0.000 A 
ATOM     26  C   UNL     1       1.575   6.804  20.742  0.00  0.00    +0.000 A 
ENDBRANCH   5  20
BRANCH   1  27
ATOM     27  N   UNL     1       2.249  13.444  19.622  0.00  0.00    +0.000 N 
ATOM     28  H   UNL     1       2.919  13.988  19.068  0.00  0.00    +0.000 HD
ATOM     29  H   UNL     1       1.401  14.013  19.656  0.00  0.00    +0.000 HD
ENDBRANCH   1  27
TORSDOF 3
ENDMDL
MODEL 6
REMARK VINA RESULT:      -6.8      6.511     11.127
REMARK  Name = 
REMARK  3 active torsions:
REMARK  status: ('A' for Active; 'I' for Inactive)
REMARK    1  A    between atoms: N_1  and  N_2
REMARK    2  A    between atoms: N_6  and  C_7
REMARK    3  A    between atoms: C_18  and  C_19
REMARK                            x       y       z     vdW  Elec       q    Type
REMARK                         _______ _______ _______ _____ _____    ______ ____
ROOT
ATOM      1  N   UNL     1      -0.714  12.572  17.841  0.00  0.00    +0.000 NA
ATOM      2  C   UNL     1      -0.701  12.172  19.079  0.00  0.00    +0.000 C 
ATOM      3  C   UNL     1      -0.628  10.674  19.297  0.00  0.00    +0.000 C 
ATOM      4  O   UNL     1      -1.486   9.972  18.783  0.00  0.00    +0.000 OA
ATOM      5  N   UNL     1       0.459  10.299  20.075  0.00  0.00    +0.000 N 
ATOM      6  C   UNL     1       0.656  11.004  21.261  0.00  0.00    +0.000 C 
ATOM      7  O   UNL     1       0.871  10.566  22.390  0.00  0.00    +0.000 OA
ATOM      8  C   UNL     1       0.550  12.506  21.129  0.00  0.00    +0.000 C 
ATOM      9  O   UNL     1       1.405  13.228  21.627  0.00  0.00    +0.000 OA
ATOM     10  C   UNL     1      -0.590  13.002  20.316  0.00  0.00    +0.000 C 
ENDROOT
BRANCH  10  11
ATOM     11  C   UNL     1      -1.844  12.886  21.120  0.00  0.00    +0.000 A 
ATOM     12  N   UNL     1      -1.885  12.708  22.422  0.00  0.00    +0.000 NA
ATOM     13  C   UNL     1      -3.205  12.649  22.859  0.00  0.00    +0.000 A 
ATOM     14  C   UNL     1      -3.641  12.463  24.188  0.00  0.00    +0.000 A 
ATOM     15  C   UNL     1      -5.012  12.417  24.474  0.00  0.00    +0.000 A 
ATOM     16  C   UNL     1      -5.951  12.559  23.457  0.00  0.00    +0.000 A 
ATOM     17  C   UNL     1      -5.545  12.750  22.133  0.00  0.00    +0.000 A 
ATOM     18  C   UNL     1      -4.168  12.789  21.857  0.00  0.00    +0.000 A 
ATOM     19  S   UNL     1      -3.374  12.997  20.344  0.00  0.00    +0.000 S 
ENDBRANCH  10  11
BRANCH   5  20
ATOM     20  C   UNL     1       1.076   9.009  19.890  0.00  0.00    +0.000 A 
ATOM     21  C   UNL     1       1.813   8.693  18.733  0.00  0.00    +0.000 A 
ATOM     22  C   UNL     1       2.393   7.430  18.561  0.00  0.00    +0.000 A 
ATOM     23  C   UNL     1       2.260   6.465  19.552  0.00  0.00    +0.000 A 
ATOM     24 CL   UNL     1       2.905   4.889  19.322  0.00  0.00    +0.000 Cl
ATOM     25  C   UNL     1       1.608   6.773  20.737  0.00  0.00    +0.000 A 
ATOM     26  C   UNL     1       1.050   8.041  20.911  0.00  0.00    +0.000 A 
ENDBRANCH   5  20
BRANCH   1  27
ATOM     27  N   UNL     1      -0.598  13.893  17.602  0.00  0.00    +0.000 N 
ATOM     28  H   UNL     1      -0.308  14.364  18.464  0.00  0.00    +0.000 HD
ATOM     29  H   UNL     1       0.109  14.141  16.907  0.00  0.00    +0.000 HD
ENDBRANCH   1  27
TORSDOF 3
ENDMDL
MODEL 7
REMARK VINA RESULT:      -6.8      7.329     11.911
REMARK  Name = 
REMARK  3 active torsions:
REMARK  status: ('A' for Active; 'I' for Inactive)
REMARK    1  A    between atoms: N_1  and  N_2
REMARK    2  A    between atoms: N_6  and  C_7
REMARK    3  A    between atoms: C_18  and  C_19
REMARK                            x       y       z     vdW  Elec       q    Type
REMARK                         _______ _______ _______ _____ _____    ______ ____
ROOT
ATOM      1  N   UNL     1      -0.894  13.739  18.748  0.00  0.00    +0.000 NA
ATOM      2  C   UNL     1      -1.175  13.085  19.837  0.00  0.00    +0.000 C 
ATOM      3  C   UNL     1      -1.059  11.576  19.760  0.00  0.00    +0.000 C 
ATOM      4  O   UNL     1      -1.705  10.990  18.904  0.00  0.00    +0.000 OA
ATOM      5  N   UNL     1      -0.188  11.058  20.708  0.00  0.00    +0.000 N 
ATOM      6  C   UNL     1      -0.353  11.496  22.021  0.00  0.00    +0.000 C 
ATOM      7  O   UNL     1      -0.409  10.831  23.053  0.00  0.00    +0.000 OA
ATOM      8  C   UNL     1      -0.524  12.992  22.170  0.00  0.00    +0.000 C 
ATOM      9  O   UNL     1       0.122  13.601  23.014  0.00  0.00    +0.000 OA
ATOM     10  C   UNL     1      -1.444  13.635  21.199  0.00  0.00    +0.000 C 
ENDROOT
BRANCH  10  11
ATOM     11  C   UNL     1      -2.853  13.336  21.598  0.00  0.00    +0.000 A 
ATOM     12  N   UNL     1      -3.790  12.915  20.776  0.00  0.00    +0.000 NA
ATOM     13  C   UNL     1      -4.985  12.725  21.465  0.00  0.00    +0.000 A 
ATOM     14  C   UNL     1      -6.208  12.285  20.916  0.00  0.00    +0.000 A 
ATOM     15  C   UNL     1      -7.334  12.149  21.739  0.00  0.00    +0.000 A 
ATOM     16  C   UNL     1      -7.256  12.439  23.097  0.00  0.00    +0.000 A 
ATOM     17  C   UNL     1      -6.054  12.872  23.666  0.00  0.00    +0.000 A 
ATOM     18  C   UNL     1      -4.933  13.010  22.831  0.00  0.00    +0.000 A 
ATOM     19  S   UNL     1      -3.341  13.526  23.234  0.00  0.00    +0.000 S 
ENDBRANCH  10  11
BRANCH   5  20
ATOM     20  C   UNL     1       0.543   9.844  20.439  0.00  0.00    +0.000 A 
ATOM     21  C   UNL     1       0.552   8.764  21.341  0.00  0.00    +0.000 A 
ATOM     22  C   UNL     1       1.281   7.597  21.073  0.00  0.00    +0.000 A 
ATOM     23  C   UNL     1       1.998   7.484  19.888  0.00  0.00    +0.000 A 
ATOM     24 CL   UNL     1       2.953   6.089  19.582  0.00  0.00    +0.000 Cl
ATOM     25  C   UNL     1       1.943   8.500  18.945  0.00  0.00    +0.000 A 
ATOM     26  C   UNL     1       1.199   9.651  19.209  0.00  0.00    +0.000 A 
ENDBRANCH   5  20
BRANCH   1  27
ATOM     27  N   UNL     1      -0.810  15.083  18.819  0.00  0.00    +0.000 N 
ATOM     28  H   UNL     1      -1.751  15.469  18.946  0.00  0.00    +0.000 HD
ATOM     29  H   UNL     1      -0.264  15.435  19.608  0.00  0.00    +0.000 HD
ENDBRANCH   1  27
TORSDOF 3
ENDMDL
MODEL 8
REMARK VINA RESULT:      -6.8      6.989     11.384
REMARK  Name = 
REMARK  3 active torsions:
REMARK  status: ('A' for Active; 'I' for Inactive)
REMARK    1  A    between atoms: N_1  and  N_2
REMARK    2  A    between atoms: N_6  and  C_7
REMARK    3  A    between atoms: C_18  and  C_19
REMARK                            x       y       z     vdW  Elec       q    Type
REMARK                         _______ _______ _______ _____ _____    ______ ____
ROOT
ATOM      1  N   UNL     1      -0.472  13.609  18.347  0.00  0.00    +0.000 NA
ATOM      2  C   UNL     1      -0.961  12.862  19.293  0.00  0.00    +0.000 C 
ATOM      3  C   UNL     1      -0.794  11.366  19.117  0.00  0.00    +0.000 C 
ATOM      4  O   UNL     1      -1.230  10.851  18.097  0.00  0.00    +0.000 OA
ATOM      5  N   UNL     1      -0.130  10.773  20.182  0.00  0.00    +0.000 N 
ATOM      6  C   UNL     1      -0.580  11.095  21.461  0.00  0.00    +0.000 C 
ATOM      7  O   UNL     1      -0.836  10.342  22.399  0.00  0.00    +0.000 OA
ATOM      8  C   UNL     1      -0.815  12.570  21.696  0.00  0.00    +0.000 C 
ATOM      9  O   UNL     1      -0.377  13.108  22.705  0.00  0.00    +0.000 OA
ATOM     10  C   UNL     1      -1.525  13.290  20.608  0.00  0.00    +0.000 C 
ENDROOT
BRANCH  10  11
ATOM     11  C   UNL     1      -2.979  12.948  20.672  0.00  0.00    +0.000 A 
ATOM     12  N   UNL     1      -3.687  12.503  19.658  0.00  0.00    +0.000 NA
ATOM     13  C   UNL     1      -5.003  12.275  20.052  0.00  0.00    +0.000 A 
ATOM     14  C   UNL     1      -6.054  11.802  19.238  0.00  0.00    +0.000 A 
ATOM     15  C   UNL     1      -7.334  11.630  19.778  0.00  0.00    +0.000 A 
ATOM     16  C   UNL     1      -7.581  11.918  21.117  0.00  0.00    +0.000 A 
ATOM     17  C   UNL     1      -6.556  12.384  21.946  0.00  0.00    +0.000 A 
ATOM     18  C   UNL     1      -5.276  12.558  21.392  0.00  0.00    +0.000 A 
ATOM     19  S   UNL     1      -3.837  13.118  22.151  0.00  0.00    +0.000 S 
ENDBRANCH  10  11
BRANCH   5  20
ATOM     20  C   UNL     1       0.670   9.591  19.974  0.00  0.00    +0.000 A 
ATOM     21  C   UNL     1       1.388   9.377  18.782  0.00  0.00    +0.000 A 
ATOM     22  C   UNL     1       2.148   8.215  18.589  0.00  0.00    +0.000 A 
ATOM     23  C   UNL     1       2.217   7.256  19.592  0.00  0.00    +0.000 A 
ATOM     24 CL   UNL     1       3.086   5.796  19.339  0.00  0.00    +0.000 Cl
ATOM     25  C   UNL     1       1.585   7.478  20.806  0.00  0.00    +0.000 A 
ATOM     26  C   UNL     1       0.846   8.646  21.001  0.00  0.00    +0.000 A 
ENDBRANCH   5  20
BRANCH   1  27
ATOM     27  N   UNL     1      -0.438  14.942  18.547  0.00  0.00    +0.000 N 
ATOM     28  H   UNL     1      -0.140  15.402  17.681  0.00  0.00    +0.000 HD
ATOM     29  H   UNL     1      -1.340  15.362  18.780  0.00  0.00    +0.000 HD
ENDBRANCH   1  27
TORSDOF 3
ENDMDL
MODEL 9
REMARK VINA RESULT:      -6.7      6.385     11.074
REMARK  Name = 
REMARK  3 active torsions:
REMARK  status: ('A' for Active; 'I' for Inactive)
REMARK    1  A    between atoms: N_1  and  N_2
REMARK    2  A    between atoms: N_6  and  C_7
REMARK    3  A    between atoms: C_18  and  C_19
REMARK                            x       y       z     vdW  Elec       q    Type
REMARK                         _______ _______ _______ _____ _____    ______ ____
ROOT
ATOM      1  N   UNL     1      -0.694  12.454  17.849  0.00  0.00    +0.000 NA
ATOM      2  C   UNL     1      -0.602  12.077  19.092  0.00  0.00    +0.000 C 
ATOM      3  C   UNL     1      -0.532  10.583  19.333  0.00  0.00    +0.000 C 
ATOM      4  O   UNL     1      -1.430   9.882  18.890  0.00  0.00    +0.000 OA
ATOM      5  N   UNL     1       0.601  10.209  20.043  0.00  0.00    +0.000 N 
ATOM      6  C   UNL     1       0.885  10.932  21.200  0.00  0.00    +0.000 C 
ATOM      7  O   UNL     1       1.170  10.513  22.320  0.00  0.00    +0.000 OA
ATOM      8  C   UNL     1       0.787  12.434  21.046  0.00  0.00    +0.000 C 
ATOM      9  O   UNL     1       1.682  13.153  21.472  0.00  0.00    +0.000 OA
ATOM     10  C   UNL     1      -0.399  12.929  20.302  0.00  0.00    +0.000 C 
ENDROOT
BRANCH  10  11
ATOM     11  C   UNL     1      -1.598  12.843  21.190  0.00  0.00    +0.000 A 
ATOM     12  N   UNL     1      -2.843  12.873  20.770  0.00  0.00    +0.000 NA
ATOM     13  C   UNL     1      -3.718  12.765  21.848  0.00  0.00    +0.000 A 
ATOM     14  C   UNL     1      -5.128  12.765  21.788  0.00  0.00    +0.000 A 
ATOM     15  C   UNL     1      -5.877  12.656  22.966  0.00  0.00    +0.000 A 
ATOM     16  C   UNL     1      -5.243  12.542  24.199  0.00  0.00    +0.000 A 
ATOM     17  C   UNL     1      -3.848  12.535  24.285  0.00  0.00    +0.000 A 
ATOM     18  C   UNL     1      -3.106  12.650  23.098  0.00  0.00    +0.000 A 
ATOM     19  S   UNL     1      -1.398  12.681  22.889  0.00  0.00    +0.000 S 
ENDBRANCH  10  11
BRANCH   5  20
ATOM     20  C   UNL     1       1.190   8.908  19.842  0.00  0.00    +0.000 A 
ATOM     21  C   UNL     1       1.047   7.871  20.784  0.00  0.00    +0.000 A 
ATOM     22  C   UNL     1       1.640   6.618  20.582  0.00  0.00    +0.000 A 
ATOM     23  C   UNL     1       2.371   6.373  19.426  0.00  0.00    +0.000 A 
ATOM     24 CL   UNL     1       3.162   4.866  19.201  0.00  0.00    +0.000 Cl
ATOM     25  C   UNL     1       2.461   7.349  18.445  0.00  0.00    +0.000 A 
ATOM     26  C   UNL     1       1.851   8.590  18.642  0.00  0.00    +0.000 A 
ENDBRANCH   5  20
BRANCH   1  27
ATOM     27  N   UNL     1      -0.579  13.769  17.578  0.00  0.00    +0.000 N 
ATOM     28  H   UNL     1      -0.996  14.306  18.345  0.00  0.00    +0.000 HD
ATOM     29  H   UNL     1       0.382  14.108  17.501  0.00  0.00    +0.000 HD
ENDBRANCH   1  27
TORSDOF 3
ENDMDL
