MODEL 1
REMARK VINA RESULT:      -9.6      0.000      0.000
REMARK  Name = 
REMARK  7 active torsions:
REMARK  status: ('A' for Active; 'I' for Inactive)
REMARK    1  A    between atoms: C_1  and  C_2
REMARK    2  A    between atoms: C_2  and  N_3
REMARK    3  A    between atoms: N_3  and  C_4
REMARK    4  A    between atoms: N_3  and  C_6
REMARK    5  A    between atoms: C_4  and  C_5
REMARK    6  A    between atoms: C_6  and  C_7
REMARK    7  A    between atoms: C_10  and  C_11
REMARK                            x       y       z     vdW  Elec       q    Type
REMARK                         _______ _______ _______ _____ _____    ______ ____
ROOT
ATOM      1  C   UNL     1       6.279   5.085  17.348  0.00  0.00    +0.000 C 
ATOM      2  O   UNL     1       6.819   4.131  16.791  0.00  0.00    +0.000 OA
ATOM      3  N   UNL     1       4.817   5.056  17.659  0.00  0.00    +0.000 N 
ATOM      4  C   UNL     1       4.375   6.436  17.725  0.00  0.00    +0.000 C 
ATOM      5  C   UNL     1       2.914   6.705  17.790  0.00  0.00    +0.000 C 
ATOM      6  C   UNL     1       2.442   5.756  18.825  0.00  0.00    +0.000 A 
ATOM      7  C   UNL     1       2.642   5.849  20.200  0.00  0.00    +0.000 A 
ATOM      8  C   UNL     1       2.202   4.818  21.030  0.00  0.00    +0.000 A 
ATOM      9  C   UNL     1       1.443   3.789  20.482  0.00  0.00    +0.000 A 
ATOM     10  C   UNL     1       1.469   3.640  19.098  0.00  0.00    +0.000 A 
ATOM     11  C   UNL     1       2.284   4.483  18.345  0.00  0.00    +0.000 A 
ATOM     12  C   UNL     1       3.533   3.941  17.492  0.00  0.00    +0.000 C 
ATOM     13  C   UNL     1       3.554   2.412  17.972  0.00  0.00    +0.000 C 
ATOM     14  N   UNL     1       2.193   1.766  17.903  0.00  0.00    +0.000 N 
ATOM     15  C   UNL     1       1.093   2.335  18.564  0.00  0.00    +0.000 C 
ATOM     16  O   UNL     1       0.021   1.801  18.726  0.00  0.00    +0.000 OA
ATOM     17  H   UNL     1       2.044   0.767  17.775  0.00  0.00    +0.000 HD
ENDROOT
BRANCH   1  21
ATOM     18  C   UNL     1       8.561   9.061  18.578  0.00  0.00    +0.000 A 
ATOM     19  C   UNL     1       7.846   8.956  17.370  0.00  0.00    +0.000 A 
ATOM     20  C   UNL     1       7.152   7.714  16.944  0.00  0.00    +0.000 A 
ATOM     21  C   UNL     1       7.183   6.504  17.683  0.00  0.00    +0.000 A 
ATOM     22  C   UNL     1       8.074   6.607  18.773  0.00  0.00    +0.000 A 
ATOM     23  C   UNL     1       8.669   7.832  19.244  0.00  0.00    +0.000 A 
BRANCH  18  24
ATOM     24  C   UNL     1       9.376  10.269  19.156  0.00  0.00    +0.000 C 
BRANCH  24  25
ATOM     25  N   UNL     1      10.080  11.271  18.300  0.00  0.00    +0.000 NA
BRANCH  25  27
ATOM     26  C   UNL     1      10.092  13.684  17.599  0.00  0.00    +0.000 C 
ATOM     27  C   UNL     1       9.264  12.455  17.998  0.00  0.00    +0.000 C 
ENDBRANCH  25  27
BRANCH  25  28
ATOM     28  C   UNL     1      11.413  11.668  18.865  0.00  0.00    +0.000 C 
ATOM     29  C   UNL     1      11.536  11.972  20.369  0.00  0.00    +0.000 C 
ENDBRANCH  25  28
ENDBRANCH  24  25
ENDBRANCH  18  24
ENDBRANCH   1  21
TORSDOF 5
ENDMDL
MODEL 2
REMARK VINA RESULT:      -9.5      0.784      1.197
REMARK  Name = 
REMARK  7 active torsions:
REMARK  status: ('A' for Active; 'I' for Inactive)
REMARK    1  A    between atoms: C_1  and  C_2
REMARK    2  A    between atoms: C_2  and  N_3
REMARK    3  A    between atoms: N_3  and  C_4
REMARK    4  A    between atoms: N_3  and  C_6
REMARK    5  A    between atoms: C_4  and  C_5
REMARK    6  A    between atoms: C_6  and  C_7
REMARK    7  A    between atoms: C_10  and  C_11
REMARK                            x       y       z     vdW  Elec       q    Type
REMARK                         _______ _______ _______ _____ _____    ______ ____
ROOT
ATOM      1  C   UNL     1       6.350   5.161  17.369  0.00  0.00    +0.000 C 
ATOM      2  O   UNL     1       6.900   4.207  16.822  0.00  0.00    +0.000 OA
ATOM      3  N   UNL     1       4.884   5.129  17.657  0.00  0.00    +0.000 N 
ATOM      4  C   UNL     1       4.437   6.507  17.715  0.00  0.00    +0.000 C 
ATOM      5  C   UNL     1       2.974   6.772  17.757  0.00  0.00    +0.000 C 
ATOM      6  C   UNL     1       2.489   5.824  18.785  0.00  0.00    +0.000 A 
ATOM      7  C   UNL     1       2.667   5.919  20.163  0.00  0.00    +0.000 A 
ATOM      8  C   UNL     1       2.217   4.889  20.988  0.00  0.00    +0.000 A 
ATOM      9  C   UNL     1       1.469   3.856  20.430  0.00  0.00    +0.000 A 
ATOM     10  C   UNL     1       1.517   3.706  19.046  0.00  0.00    +0.000 A 
ATOM     11  C   UNL     1       2.341   4.550  18.305  0.00  0.00    +0.000 A 
ATOM     12  C   UNL     1       3.605   4.010  17.472  0.00  0.00    +0.000 C 
ATOM     13  C   UNL     1       3.622   2.481  17.954  0.00  0.00    +0.000 C 
ATOM     14  N   UNL     1       2.264   1.832  17.866  0.00  0.00    +0.000 N 
ATOM     15  C   UNL     1       1.152   2.400  18.508  0.00  0.00    +0.000 C 
ATOM     16  O   UNL     1       0.080   1.862  18.654  0.00  0.00    +0.000 OA
ATOM     17  H   UNL     1       2.120   0.833  17.736  0.00  0.00    +0.000 HD
ENDROOT
BRANCH   1  21
ATOM     18  C   UNL     1       8.609   9.138  18.634  0.00  0.00    +0.000 A 
ATOM     19  C   UNL     1       7.886   9.044  17.430  0.00  0.00    +0.000 A 
ATOM     20  C   UNL     1       7.199   7.802  16.993  0.00  0.00    +0.000 A 
ATOM     21  C   UNL     1       7.245   6.582  17.715  0.00  0.00    +0.000 A 
ATOM     22  C   UNL     1       8.144   6.678  18.800  0.00  0.00    +0.000 A 
ATOM     23  C   UNL     1       8.732   7.902  19.283  0.00  0.00    +0.000 A 
BRANCH  18  24
ATOM     24  C   UNL     1       9.419  10.345  19.222  0.00  0.00    +0.000 C 
BRANCH  24  25
ATOM     25  N   UNL     1       9.022  11.772  19.034  0.00  0.00    +0.000 NA
BRANCH  25  27
ATOM     26  C   UNL     1       9.008  11.938  21.541  0.00  0.00    +0.000 C 
ATOM     27  C   UNL     1       9.314  12.617  20.200  0.00  0.00    +0.000 C 
ENDBRANCH  25  27
BRANCH  25  28
ATOM     28  C   UNL     1       9.600  12.366  17.782  0.00  0.00    +0.000 C 
ATOM     29  C   UNL     1      11.114  12.256  17.524  0.00  0.00    +0.000 C 
ENDBRANCH  25  28
ENDBRANCH  24  25
ENDBRANCH  18  24
ENDBRANCH   1  21
TORSDOF 5
ENDMDL
MODEL 3
REMARK VINA RESULT:      -9.1      0.707      1.242
REMARK  Name = 
REMARK  7 active torsions:
REMARK  status: ('A' for Active; 'I' for Inactive)
REMARK    1  A    between atoms: C_1  and  C_2
REMARK    2  A    between atoms: C_2  and  N_3
REMARK    3  A    between atoms: N_3  and  C_4
REMARK    4  A    between atoms: N_3  and  C_6
REMARK    5  A    between atoms: C_4  and  C_5
REMARK    6  A    between atoms: C_6  and  C_7
REMARK    7  A    between atoms: C_10  and  C_11
REMARK                            x       y       z     vdW  Elec       q    Type
REMARK                         _______ _______ _______ _____ _____    ______ ____
ROOT
ATOM      1  C   UNL     1       6.346   5.446  17.524  0.00  0.00    +0.000 C 
ATOM      2  O   UNL     1       6.974   4.526  17.004  0.00  0.00    +0.000 OA
ATOM      3  N   UNL     1       4.869   5.338  17.729  0.00  0.00    +0.000 N 
ATOM      4  C   UNL     1       4.350   6.692  17.768  0.00  0.00    +0.000 C 
ATOM      5  C   UNL     1       2.877   6.883  17.729  0.00  0.00    +0.000 C 
ATOM      6  C   UNL     1       2.383   5.903  18.725  0.00  0.00    +0.000 A 
ATOM      7  C   UNL     1       2.479   5.997  20.110  0.00  0.00    +0.000 A 
ATOM      8  C   UNL     1       2.036   4.939  20.903  0.00  0.00    +0.000 A 
ATOM      9  C   UNL     1       1.375   3.875  20.300  0.00  0.00    +0.000 A 
ATOM     10  C   UNL     1       1.507   3.737  18.920  0.00  0.00    +0.000 A 
ATOM     11  C   UNL     1       2.327   4.628  18.230  0.00  0.00    +0.000 A 
ATOM     12  C   UNL     1       3.661   4.159  17.467  0.00  0.00    +0.000 C 
ATOM     13  C   UNL     1       3.729   2.629  17.942  0.00  0.00    +0.000 C 
ATOM     14  N   UNL     1       2.413   1.913  17.774  0.00  0.00    +0.000 N 
ATOM     15  C   UNL     1       1.239   2.419  18.356  0.00  0.00    +0.000 C 
ATOM     16  O   UNL     1       0.189   1.827  18.439  0.00  0.00    +0.000 OA
ATOM     17  H   UNL     1       2.327   0.909  17.633  0.00  0.00    +0.000 HD
ENDROOT
BRANCH   1  21
ATOM     18  C   UNL     1       8.735   9.473  18.303  0.00  0.00    +0.000 A 
ATOM     19  C   UNL     1       8.920   8.331  19.104  0.00  0.00    +0.000 A 
ATOM     20  C   UNL     1       8.161   7.070  18.905  0.00  0.00    +0.000 A 
ATOM     21  C   UNL     1       7.147   6.908  17.927  0.00  0.00    +0.000 A 
ATOM     22  C   UNL     1       6.865   8.138  17.293  0.00  0.00    +0.000 A 
ATOM     23  C   UNL     1       7.661   9.334  17.412  0.00  0.00    +0.000 A 
BRANCH  18  24
ATOM     24  C   UNL     1       9.413  10.883  18.400  0.00  0.00    +0.000 C 
BRANCH  24  25
ATOM     25  N   UNL     1      10.724  11.121  19.076  0.00  0.00    +0.000 NA
BRANCH  25  27
ATOM     26  C   UNL     1      10.983  12.824  17.246  0.00  0.00    +0.000 C 
ATOM     27  C   UNL     1      11.667  11.898  18.261  0.00  0.00    +0.000 C 
ENDBRANCH  25  27
BRANCH  25  28
ATOM     28  C   UNL     1      10.561  11.731  20.438  0.00  0.00    +0.000 C 
ATOM     29  C   UNL     1       9.167  12.203  20.892  0.00  0.00    +0.000 C 
ENDBRANCH  25  28
ENDBRANCH  24  25
ENDBRANCH  18  24
ENDBRANCH   1  21
TORSDOF 5
ENDMDL
MODEL 4
REMARK VINA RESULT:      -9.0      0.607      1.291
REMARK  Name = 
REMARK  7 active torsions:
REMARK  status: ('A' for Active; 'I' for Inactive)
REMARK    1  A    between atoms: C_1  and  C_2
REMARK    2  A    between atoms: C_2  and  N_3
REMARK    3  A    between atoms: N_3  and  C_4
REMARK    4  A    between atoms: N_3  and  C_6
REMARK    5  A    between atoms: C_4  and  C_5
REMARK    6  A    between atoms: C_6  and  C_7
REMARK    7  A    between atoms: C_10  and  C_11
REMARK                            x       y       z     vdW  Elec       q    Type
REMARK                         _______ _______ _______ _____ _____    ______ ____
ROOT
ATOM      1  C   UNL     1       6.404   5.233  17.386  0.00  0.00    +0.000 C 
ATOM      2  O   UNL     1       6.971   4.282  16.851  0.00  0.00    +0.000 OA
ATOM      3  N   UNL     1       4.932   5.197  17.638  0.00  0.00    +0.000 N 
ATOM      4  C   UNL     1       4.479   6.574  17.687  0.00  0.00    +0.000 C 
ATOM      5  C   UNL     1       3.016   6.835  17.694  0.00  0.00    +0.000 C 
ATOM      6  C   UNL     1       2.508   5.883  18.709  0.00  0.00    +0.000 A 
ATOM      7  C   UNL     1       2.653   5.978  20.091  0.00  0.00    +0.000 A 
ATOM      8  C   UNL     1       2.186   4.945  20.903  0.00  0.00    +0.000 A 
ATOM      9  C   UNL     1       1.455   3.911  20.326  0.00  0.00    +0.000 A 
ATOM     10  C   UNL     1       1.536   3.762  18.944  0.00  0.00    +0.000 A 
ATOM     11  C   UNL     1       2.376   4.610  18.224  0.00  0.00    +0.000 A 
ATOM     12  C   UNL     1       3.661   4.075  17.421  0.00  0.00    +0.000 C 
ATOM     13  C   UNL     1       3.671   2.545  17.901  0.00  0.00    +0.000 C 
ATOM     14  N   UNL     1       2.318   1.892  17.779  0.00  0.00    +0.000 N 
ATOM     15  C   UNL     1       1.189   2.456  18.396  0.00  0.00    +0.000 C 
ATOM     16  O   UNL     1       0.115   1.915  18.515  0.00  0.00    +0.000 OA
ATOM     17  H   UNL     1       2.180   0.893  17.646  0.00  0.00    +0.000 HD
ENDROOT
BRANCH   1  21
ATOM     18  C   UNL     1       8.623   9.214  18.713  0.00  0.00    +0.000 A 
ATOM     19  C   UNL     1       7.919   9.124  17.497  0.00  0.00    +0.000 A 
ATOM     20  C   UNL     1       7.245   7.881  17.041  0.00  0.00    +0.000 A 
ATOM     21  C   UNL     1       7.286   6.657  17.756  0.00  0.00    +0.000 A 
ATOM     22  C   UNL     1       8.168   6.750  18.855  0.00  0.00    +0.000 A 
ATOM     23  C   UNL     1       8.743   7.974  19.355  0.00  0.00    +0.000 A 
BRANCH  18  24
ATOM     24  C   UNL     1       9.418  10.421  19.320  0.00  0.00    +0.000 C 
BRANCH  24  25
ATOM     25  N   UNL     1       9.650  11.704  18.591  0.00  0.00    +0.000 NA
BRANCH  25  27
ATOM     26  C   UNL     1      12.155  11.680  18.791  0.00  0.00    +0.000 C 
ATOM     27  C   UNL     1      10.929  11.740  17.869  0.00  0.00    +0.000 C 
ENDBRANCH  25  27
BRANCH  25  28
ATOM     28  C   UNL     1       8.510  12.058  17.682  0.00  0.00    +0.000 C 
ATOM     29  C   UNL     1       7.945  13.490  17.701  0.00  0.00    +0.000 C 
ENDBRANCH  25  28
ENDBRANCH  24  25
ENDBRANCH  18  24
ENDBRANCH   1  21
TORSDOF 5
ENDMDL
MODEL 5
REMARK VINA RESULT:      -8.8      1.075      1.429
REMARK  Name = 
REMARK  7 active torsions:
REMARK  status: ('A' for Active; 'I' for Inactive)
REMARK    1  A    between atoms: C_1  and  C_2
REMARK    2  A    between atoms: C_2  and  N_3
REMARK    3  A    between atoms: N_3  and  C_4
REMARK    4  A    between atoms: N_3  and  C_6
REMARK    5  A    between atoms: C_4  and  C_5
REMARK    6  A    between atoms: C_6  and  C_7
REMARK    7  A    between atoms: C_10  and  C_11
REMARK                            x       y       z     vdW  Elec       q    Type
REMARK                         _______ _______ _______ _____ _____    ______ ____
ROOT
ATOM      1  C   UNL     1       6.504   5.344  17.566  0.00  0.00    +0.000 C 
ATOM      2  O   UNL     1       7.130   4.342  17.228  0.00  0.00    +0.000 OA
ATOM      3  N   UNL     1       5.015   5.305  17.686  0.00  0.00    +0.000 N 
ATOM      4  C   UNL     1       4.541   6.662  17.493  0.00  0.00    +0.000 C 
ATOM      5  C   UNL     1       3.080   6.881  17.329  0.00  0.00    +0.000 C 
ATOM      6  C   UNL     1       2.493   6.073  18.422  0.00  0.00    +0.000 A 
ATOM      7  C   UNL     1       2.506   6.369  19.783  0.00  0.00    +0.000 A 
ATOM      8  C   UNL     1       1.980   5.451  20.691  0.00  0.00    +0.000 A 
ATOM      9  C   UNL     1       1.320   4.326  20.208  0.00  0.00    +0.000 A 
ATOM     10  C   UNL     1       1.532   3.982  18.875  0.00  0.00    +0.000 A 
ATOM     11  C   UNL     1       2.424   4.740  18.118  0.00  0.00    +0.000 A 
ATOM     12  C   UNL     1       3.785   4.129  17.521  0.00  0.00    +0.000 C 
ATOM     13  C   UNL     1       3.771   2.686  18.218  0.00  0.00    +0.000 C 
ATOM     14  N   UNL     1       2.444   1.986  18.071  0.00  0.00    +0.000 N 
ATOM     15  C   UNL     1       1.255   2.601  18.494  0.00  0.00    +0.000 C 
ATOM     16  O   UNL     1       0.182   2.055  18.593  0.00  0.00    +0.000 OA
ATOM     17  H   UNL     1       2.332   0.974  18.072  0.00  0.00    +0.000 HD
ENDROOT
BRANCH   1  21
ATOM     18  C   UNL     1       8.586   9.497  18.539  0.00  0.00    +0.000 A 
ATOM     19  C   UNL     1       7.792   9.313  17.391  0.00  0.00    +0.000 A 
ATOM     20  C   UNL     1       7.158   8.016  17.044  0.00  0.00    +0.000 A 
ATOM     21  C   UNL     1       7.328   6.829  17.802  0.00  0.00    +0.000 A 
ATOM     22  C   UNL     1       8.289   7.021  18.819  0.00  0.00    +0.000 A 
ATOM     23  C   UNL     1       8.830   8.296  19.219  0.00  0.00    +0.000 A 
BRANCH  18  24
ATOM     24  C   UNL     1       9.356  10.772  19.029  0.00  0.00    +0.000 C 
BRANCH  24  25
ATOM     25  N   UNL     1       9.658  11.050  20.465  0.00  0.00    +0.000 NA
BRANCH  25  27
ATOM     26  C   UNL     1      11.726  11.975  19.377  0.00  0.00    +0.000 C 
ATOM     27  C   UNL     1      10.909  11.793  20.664  0.00  0.00    +0.000 C 
ENDBRANCH  25  27
BRANCH  25  28
ATOM     28  C   UNL     1       8.516  11.723  21.169  0.00  0.00    +0.000 C 
ATOM     29  C   UNL     1       8.511  11.791  22.707  0.00  0.00    +0.000 C 
ENDBRANCH  25  28
ENDBRANCH  24  25
ENDBRANCH  18  24
ENDBRANCH   1  21
TORSDOF 5
ENDMDL
MODEL 6
REMARK VINA RESULT:      -8.8      0.589      1.542
REMARK  Name = 
REMARK  7 active torsions:
REMARK  status: ('A' for Active; 'I' for Inactive)
REMARK    1  A    between atoms: C_1  and  C_2
REMARK    2  A    between atoms: C_2  and  N_3
REMARK    3  A    between atoms: N_3  and  C_4
REMARK    4  A    between atoms: N_3  and  C_6
REMARK    5  A    between atoms: C_4  and  C_5
REMARK    6  A    between atoms: C_6  and  C_7
REMARK    7  A    between atoms: C_10  and  C_11
REMARK                            x       y       z     vdW  Elec       q    Type
REMARK                         _______ _______ _______ _____ _____    ______ ____
ROOT
ATOM      1  C   UNL     1       6.297   5.354  17.499  0.00  0.00    +0.000 C 
ATOM      2  O   UNL     1       6.900   4.436  16.947  0.00  0.00    +0.000 OA
ATOM      3  N   UNL     1       4.824   5.261  17.738  0.00  0.00    +0.000 N 
ATOM      4  C   UNL     1       4.324   6.621  17.814  0.00  0.00    +0.000 C 
ATOM      5  C   UNL     1       2.853   6.830  17.814  0.00  0.00    +0.000 C 
ATOM      6  C   UNL     1       2.370   5.839  18.804  0.00  0.00    +0.000 A 
ATOM      7  C   UNL     1       2.501   5.906  20.188  0.00  0.00    +0.000 A 
ATOM      8  C   UNL     1       2.063   4.839  20.972  0.00  0.00    +0.000 A 
ATOM      9  C   UNL     1       1.374   3.794  20.365  0.00  0.00    +0.000 A 
ATOM     10  C   UNL     1       1.471   3.680  18.981  0.00  0.00    +0.000 A 
ATOM     11  C   UNL     1       2.286   4.573  18.288  0.00  0.00    +0.000 A 
ATOM     12  C   UNL     1       3.595   4.102  17.484  0.00  0.00    +0.000 C 
ATOM     13  C   UNL     1       3.654   2.563  17.929  0.00  0.00    +0.000 C 
ATOM     14  N   UNL     1       2.325   1.866  17.781  0.00  0.00    +0.000 N 
ATOM     15  C   UNL     1       1.173   2.376  18.400  0.00  0.00    +0.000 C 
ATOM     16  O   UNL     1       0.118   1.796  18.497  0.00  0.00    +0.000 OA
ATOM     17  H   UNL     1       2.223   0.866  17.623  0.00  0.00    +0.000 HD
ENDROOT
BRANCH   1  21
ATOM     18  C   UNL     1       8.779   9.319  18.306  0.00  0.00    +0.000 A 
ATOM     19  C   UNL     1       8.889   8.189  19.139  0.00  0.00    +0.000 A 
ATOM     20  C   UNL     1       8.099   6.949  18.930  0.00  0.00    +0.000 A 
ATOM     21  C   UNL     1       7.126   6.798  17.909  0.00  0.00    +0.000 A 
ATOM     22  C   UNL     1       6.915   8.023  17.237  0.00  0.00    +0.000 A 
ATOM     23  C   UNL     1       7.743   9.194  17.369  0.00  0.00    +0.000 A 
BRANCH  18  24
ATOM     24  C   UNL     1       9.498  10.708  18.406  0.00  0.00    +0.000 C 
BRANCH  24  25
ATOM     25  N   UNL     1       8.935  11.875  19.149  0.00  0.00    +0.000 NA
BRANCH  25  27
ATOM     26  C   UNL     1      11.077  11.820  20.463  0.00  0.00    +0.000 C 
ATOM     27  C   UNL     1       9.566  12.092  20.458  0.00  0.00    +0.000 C 
ENDBRANCH  25  27
BRANCH  25  28
ATOM     28  C   UNL     1       8.949  13.133  18.332  0.00  0.00    +0.000 C 
ATOM     29  C   UNL     1      10.140  13.414  17.397  0.00  0.00    +0.000 C 
ENDBRANCH  25  28
ENDBRANCH  24  25
ENDBRANCH  18  24
ENDBRANCH   1  21
TORSDOF 5
ENDMDL
MODEL 7
REMARK VINA RESULT:      -8.6      0.559      1.085
REMARK  Name = 
REMARK  7 active torsions:
REMARK  status: ('A' for Active; 'I' for Inactive)
REMARK    1  A    between atoms: C_1  and  C_2
REMARK    2  A    between atoms: C_2  and  N_3
REMARK    3  A    between atoms: N_3  and  C_4
REMARK    4  A    between atoms: N_3  and  C_6
REMARK    5  A    between atoms: C_4  and  C_5
REMARK    6  A    between atoms: C_6  and  C_7
REMARK    7  A    between atoms: C_10  and  C_11
REMARK                            x       y       z     vdW  Elec       q    Type
REMARK                         _______ _______ _______ _____ _____    ______ ____
ROOT
ATOM      1  C   UNL     1       6.270   5.432  17.460  0.00  0.00    +0.000 C 
ATOM      2  O   UNL     1       6.843   4.577  16.788  0.00  0.00    +0.000 OA
ATOM      3  N   UNL     1       4.811   5.310  17.760  0.00  0.00    +0.000 N 
ATOM      4  C   UNL     1       4.318   6.652  18.001  0.00  0.00    +0.000 C 
ATOM      5  C   UNL     1       2.848   6.857  18.095  0.00  0.00    +0.000 C 
ATOM      6  C   UNL     1       2.413   5.766  18.999  0.00  0.00    +0.000 A 
ATOM      7  C   UNL     1       2.611   5.690  20.374  0.00  0.00    +0.000 A 
ATOM      8  C   UNL     1       2.211   4.546  21.065  0.00  0.00    +0.000 A 
ATOM      9  C   UNL     1       1.490   3.568  20.387  0.00  0.00    +0.000 A 
ATOM     10  C   UNL     1       1.519   3.599  18.995  0.00  0.00    +0.000 A 
ATOM     11  C   UNL     1       2.301   4.561  18.359  0.00  0.00    +0.000 A 
ATOM     12  C   UNL     1       3.568   4.179  17.448  0.00  0.00    +0.000 C 
ATOM     13  C   UNL     1       3.646   2.602  17.728  0.00  0.00    +0.000 C 
ATOM     14  N   UNL     1       2.310   1.921  17.573  0.00  0.00    +0.000 N 
ATOM     15  C   UNL     1       1.190   2.360  18.298  0.00  0.00    +0.000 C 
ATOM     16  O   UNL     1       0.140   1.770  18.386  0.00  0.00    +0.000 OA
ATOM     17  H   UNL     1       2.198   0.942  17.318  0.00  0.00    +0.000 HD
ENDROOT
BRANCH   1  21
ATOM     18  C   UNL     1       8.820   9.279  18.565  0.00  0.00    +0.000 A 
ATOM     19  C   UNL     1       8.884   8.099  19.330  0.00  0.00    +0.000 A 
ATOM     20  C   UNL     1       8.071   6.893  19.028  0.00  0.00    +0.000 A 
ATOM     21  C   UNL     1       7.121   6.828  17.977  0.00  0.00    +0.000 A 
ATOM     22  C   UNL     1       6.955   8.095  17.375  0.00  0.00    +0.000 A 
ATOM     23  C   UNL     1       7.806   9.236  17.598  0.00  0.00    +0.000 A 
BRANCH  18  24
ATOM     24  C   UNL     1       9.568  10.642  18.765  0.00  0.00    +0.000 C 
BRANCH  24  25
ATOM     25  N   UNL     1       9.925  11.559  17.641  0.00  0.00    +0.000 NA
BRANCH  25  27
ATOM     26  C   UNL     1       8.754  13.373  18.926  0.00  0.00    +0.000 C 
ATOM     27  C   UNL     1       9.062  12.745  17.560  0.00  0.00    +0.000 C 
ENDBRANCH  25  27
BRANCH  25  28
ATOM     28  C   UNL     1      11.374  11.949  17.661  0.00  0.00    +0.000 C 
ATOM     29  C   UNL     1      12.194  11.746  18.948  0.00  0.00    +0.000 C 
ENDBRANCH  25  28
ENDBRANCH  24  25
ENDBRANCH  18  24
ENDBRANCH   1  21
TORSDOF 5
ENDMDL
MODEL 8
REMARK VINA RESULT:      -7.7      6.810      9.434
REMARK  Name = 
REMARK  7 active torsions:
REMARK  status: ('A' for Active; 'I' for Inactive)
REMARK    1  A    between atoms: C_1  and  C_2
REMARK    2  A    between atoms: C_2  and  N_3
REMARK    3  A    between atoms: N_3  and  C_4
REMARK    4  A    between atoms: N_3  and  C_6
REMARK    5  A    between atoms: C_4  and  C_5
REMARK    6  A    between atoms: C_6  and  C_7
REMARK    7  A    between atoms: C_10  and  C_11
REMARK                            x       y       z     vdW  Elec       q    Type
REMARK                         _______ _______ _______ _____ _____    ______ ____
ROOT
ATOM      1  C   UNL     1      -0.338  10.086  18.393  0.00  0.00    +0.000 C 
ATOM      2  O   UNL     1      -1.008  10.007  17.366  0.00  0.00    +0.000 OA
ATOM      3  N   UNL     1      -0.605  11.162  19.395  0.00  0.00    +0.000 N 
ATOM      4  C   UNL     1       0.632  11.379  20.121  0.00  0.00    +0.000 C 
ATOM      5  C   UNL     1       0.723  12.556  21.023  0.00  0.00    +0.000 C 
ATOM      6  C   UNL     1      -0.547  12.497  21.784  0.00  0.00    +0.000 A 
ATOM      7  C   UNL     1      -0.876  11.597  22.794  0.00  0.00    +0.000 A 
ATOM      8  C   UNL     1      -2.154  11.626  23.351  0.00  0.00    +0.000 A 
ATOM      9  C   UNL     1      -3.025  12.647  22.987  0.00  0.00    +0.000 A 
ATOM     10  C   UNL     1      -2.724  13.366  21.833  0.00  0.00    +0.000 A 
ATOM     11  C   UNL     1      -1.610  12.997  21.081  0.00  0.00    +0.000 A 
ATOM     12  C   UNL     1      -1.729  12.436  19.580  0.00  0.00    +0.000 C 
ATOM     13  C   UNL     1      -3.322  12.304  19.459  0.00  0.00    +0.000 C 
ATOM     14  N   UNL     1      -4.042  13.548  19.912  0.00  0.00    +0.000 N 
ATOM     15  C   UNL     1      -3.822  14.081  21.192  0.00  0.00    +0.000 C 
ATOM     16  O   UNL     1      -4.482  14.951  21.710  0.00  0.00    +0.000 OA
ATOM     17  H   UNL     1      -4.958  13.831  19.570  0.00  0.00    +0.000 HD
ENDROOT
BRANCH   1  21
ATOM     18  C   UNL     1       3.166   6.910  18.801  0.00  0.00    +0.000 A 
ATOM     19  C   UNL     1       2.289   7.192  19.866  0.00  0.00    +0.000 A 
ATOM     20  C   UNL     1       1.207   8.205  19.777  0.00  0.00    +0.000 A 
ATOM     21  C   UNL     1       0.982   9.019  18.637  0.00  0.00    +0.000 A 
ATOM     22  C   UNL     1       2.009   8.837  17.685  0.00  0.00    +0.000 A 
ATOM     23  C   UNL     1       3.000   7.791  17.723  0.00  0.00    +0.000 A 
BRANCH  18  24
ATOM     24  C   UNL     1       4.375   5.914  18.738  0.00  0.00    +0.000 C 
BRANCH  24  25
ATOM     25  N   UNL     1       4.234   4.470  18.382  0.00  0.00    +0.000 NA
BRANCH  25  27
ATOM     26  C   UNL     1       1.980   3.735  17.547  0.00  0.00    +0.000 C 
ATOM     27  C   UNL     1       2.926   3.906  18.744  0.00  0.00    +0.000 C 
ENDBRANCH  25  27
BRANCH  25  28
ATOM     28  C   UNL     1       4.552   4.204  16.940  0.00  0.00    +0.000 C 
ATOM     29  C   UNL     1       5.226   5.305  16.100  0.00  0.00    +0.000 C 
ENDBRANCH  25  28
ENDBRANCH  24  25
ENDBRANCH  18  24
ENDBRANCH   1  21
TORSDOF 5
ENDMDL
MODEL 9
REMARK VINA RESULT:      -7.7      6.922     10.233
REMARK  Name = 
REMARK  7 active torsions:
REMARK  status: ('A' for Active; 'I' for Inactive)
REMARK    1  A    between atoms: C_1  and  C_2
REMARK    2  A    between atoms: C_2  and  N_3
REMARK    3  A    between atoms: N_3  and  C_4
REMARK    4  A    between atoms: N_3  and  C_6
REMARK    5  A    between atoms: C_4  and  C_5
REMARK    6  A    between atoms: C_6  and  C_7
REMARK    7  A    between atoms: C_10  and  C_11
REMARK                            x       y       z     vdW  Elec       q    Type
REMARK                         _______ _______ _______ _____ _____    ______ ____
ROOT
ATOM      1  C   UNL     1      -0.008  10.731  19.030  0.00  0.00    +0.000 C 
ATOM      2  O   UNL     1      -1.218  10.571  18.882  0.00  0.00    +0.000 OA
ATOM      3  N   UNL     1       0.583  12.104  19.027  0.00  0.00    +0.000 N 
ATOM      4  C   UNL     1       1.968  11.964  18.618  0.00  0.00    +0.000 C 
ATOM      5  C   UNL     1       2.737  13.196  18.303  0.00  0.00    +0.000 C 
ATOM      6  C   UNL     1       2.418  14.092  19.438  0.00  0.00    +0.000 A 
ATOM      7  C   UNL     1       2.889  13.989  20.744  0.00  0.00    +0.000 A 
ATOM      8  C   UNL     1       2.420  14.871  21.717  0.00  0.00    +0.000 A 
ATOM      9  C   UNL     1       1.602  15.928  21.330  0.00  0.00    +0.000 A 
ATOM     10  C   UNL     1       1.000  15.847  20.076  0.00  0.00    +0.000 A 
ATOM     11  C   UNL     1       1.200  14.703  19.306  0.00  0.00    +0.000 A 
ATOM     12  C   UNL     1       0.003  13.707  18.913  0.00  0.00    +0.000 C 
ATOM     13  C   UNL     1      -1.182  14.338  19.789  0.00  0.00    +0.000 C 
ATOM     14  N   UNL     1      -1.292  15.832  19.621  0.00  0.00    +0.000 N 
ATOM     15  C   UNL     1      -0.187  16.666  19.857  0.00  0.00    +0.000 C 
ATOM     16  O   UNL     1      -0.225  17.871  19.934  0.00  0.00    +0.000 OA
ATOM     17  H   UNL     1      -2.156  16.355  19.745  0.00  0.00    +0.000 HD
ENDROOT
BRANCH   1  21
ATOM     18  C   UNL     1       2.600   6.767  19.136  0.00  0.00    +0.000 A 
ATOM     19  C   UNL     1       2.094   7.357  20.311  0.00  0.00    +0.000 A 
ATOM     20  C   UNL     1       1.305   8.615  20.310  0.00  0.00    +0.000 A 
ATOM     21  C   UNL     1       1.028   9.369  19.140  0.00  0.00    +0.000 A 
ATOM     22  C   UNL     1       1.725   8.843  18.031  0.00  0.00    +0.000 A 
ATOM     23  C   UNL     1       2.408   7.574  18.006  0.00  0.00    +0.000 A 
BRANCH  18  24
ATOM     24  C   UNL     1       3.477   5.479  18.963  0.00  0.00    +0.000 C 
BRANCH  24  25
ATOM     25  N   UNL     1       2.903   4.115  18.758  0.00  0.00    +0.000 NA
BRANCH  25  27
ATOM     26  C   UNL     1       4.414   3.992  16.753  0.00  0.00    +0.000 C 
ATOM     27  C   UNL     1       3.742   3.250  17.917  0.00  0.00    +0.000 C 
ENDBRANCH  25  27
BRANCH  25  28
ATOM     28  C   UNL     1       2.565   3.437  20.054  0.00  0.00    +0.000 C 
ATOM     29  C   UNL     1       1.135   3.548  20.613  0.00  0.00    +0.000 C 
ENDBRANCH  25  28
ENDBRANCH  24  25
ENDBRANCH  18  24
ENDBRANCH   1  21
TORSDOF 5
ENDMDL
