MODEL 1
REMARK VINA RESULT:      -7.9      0.000      0.000
REMARK  Name = 
REMARK  2 active torsions:
REMARK  status: ('A' for Active; 'I' for Inactive)
REMARK    1  A    between atoms: C_2  and  C_3
REMARK    2  A    between atoms: C_9  and  C_10
REMARK                            x       y       z     vdW  Elec       q    Type
REMARK                         _______ _______ _______ _____ _____    ______ ____
ROOT
ATOM      1  C   UNL     1       6.294   4.661  17.031  0.00  0.00    +0.000 C 
ATOM      2  C   UNL     1       6.868   6.084  16.965  0.00  0.00    +0.000 C 
ATOM      3  C   UNL     1       5.790   7.111  16.629  0.00  0.00    +0.000 C 
ATOM      4  C   UNL     1       4.533   6.867  17.391  0.00  0.00    +0.000 A 
ATOM      5  N   UNL     1       3.464   7.628  17.385  0.00  0.00    +0.000 NA
ATOM      6  C   UNL     1       2.549   6.965  18.158  0.00  0.00    +0.000 A 
ATOM      7  C   UNL     1       3.067   5.796  18.697  0.00  0.00    +0.000 A 
ATOM      8  N   UNL     1       4.327   5.728  18.140  0.00  0.00    +0.000 N 
ATOM      9  C   UNL     1       5.299   4.642  18.213  0.00  0.00    +0.000 C 
ENDROOT
BRANCH   1  11
ATOM     10  O   UNL     1       4.469   3.605  15.870  0.00  0.00    +0.000 OA
ATOM     11  C   UNL     1       5.559   4.179  15.771  0.00  0.00    +0.000 C 
ATOM     12  N   UNL     1       6.132   4.344  14.535  0.00  0.00    +0.000 N 
ATOM     13  C   UNL     1       5.404   3.897  13.354  0.00  0.00    +0.000 C 
ATOM     14  C   UNL     1       6.466   3.731  12.282  0.00  0.00    +0.000 C 
ATOM     15  C   UNL     1       7.486   4.794  12.656  0.00  0.00    +0.000 C 
ATOM     16  C   UNL     1       7.480   4.760  14.180  0.00  0.00    +0.000 C 
ENDBRANCH   1  11
BRANCH   7  17
ATOM     17  C   UNL     1       2.443   4.828  19.602  0.00  0.00    +0.000 A 
ATOM     18  C   UNL     1       2.856   4.747  20.942  0.00  0.00    +0.000 A 
ATOM     19  C   UNL     1       2.294   3.807  21.809  0.00  0.00    +0.000 A 
ATOM     20  C   UNL     1       1.308   2.948  21.342  0.00  0.00    +0.000 A 
ATOM     21  F   UNL     1       0.765   2.049  22.171  0.00  0.00    +0.000 F 
ATOM     22  C   UNL     1       0.888   3.001  20.021  0.00  0.00    +0.000 A 
ATOM     23  C   UNL     1       1.465   3.928  19.151  0.00  0.00    +0.000 A 
ENDBRANCH   7  17
TORSDOF 2
ENDMDL
MODEL 2
REMARK VINA RESULT:      -7.8      0.044      1.007
REMARK  Name = 
REMARK  2 active torsions:
REMARK  status: ('A' for Active; 'I' for Inactive)
REMARK    1  A    between atoms: C_2  and  C_3
REMARK    2  A    between atoms: C_9  and  C_10
REMARK                            x       y       z     vdW  Elec       q    Type
REMARK                         _______ _______ _______ _____ _____    ______ ____
ROOT
ATOM      1  C   UNL     1       6.320   4.708  17.021  0.00  0.00    +0.000 C 
ATOM      2  C   UNL     1       6.856   6.146  16.948  0.00  0.00    +0.000 C 
ATOM      3  C   UNL     1       5.749   7.144  16.620  0.00  0.00    +0.000 C 
ATOM      4  C   UNL     1       4.506   6.869  17.394  0.00  0.00    +0.000 A 
ATOM      5  N   UNL     1       3.417   7.602  17.397  0.00  0.00    +0.000 NA
ATOM      6  C   UNL     1       2.526   6.917  18.178  0.00  0.00    +0.000 A 
ATOM      7  C   UNL     1       3.079   5.762  18.714  0.00  0.00    +0.000 A 
ATOM      8  N   UNL     1       4.336   5.726  18.146  0.00  0.00    +0.000 N 
ATOM      9  C   UNL     1       5.337   4.665  18.212  0.00  0.00    +0.000 C 
ENDROOT
BRANCH   1  11
ATOM     10  O   UNL     1       4.500   3.626  15.876  0.00  0.00    +0.000 OA
ATOM     11  C   UNL     1       5.587   4.205  15.768  0.00  0.00    +0.000 C 
ATOM     12  N   UNL     1       6.157   4.358  14.529  0.00  0.00    +0.000 N 
ATOM     13  C   UNL     1       5.430   3.892  13.355  0.00  0.00    +0.000 C 
ATOM     14  C   UNL     1       6.492   3.719  12.283  0.00  0.00    +0.000 C 
ATOM     15  C   UNL     1       7.506   4.793  12.643  0.00  0.00    +0.000 C 
ATOM     16  C   UNL     1       7.502   4.779  14.168  0.00  0.00    +0.000 C 
ENDBRANCH   1  11
BRANCH   7  17
ATOM     17  C   UNL     1       2.489   4.779  19.626  0.00  0.00    +0.000 A 
ATOM     18  C   UNL     1       1.462   3.932  19.180  0.00  0.00    +0.000 A 
ATOM     19  C   UNL     1       0.867   3.010  20.047  0.00  0.00    +0.000 A 
ATOM     20  C   UNL     1       1.303   2.928  21.362  0.00  0.00    +0.000 A 
ATOM     21  F   UNL     1       0.737   2.045  22.193  0.00  0.00    +0.000 F 
ATOM     22  C   UNL     1       2.310   3.759  21.830  0.00  0.00    +0.000 A 
ATOM     23  C   UNL     1       2.890   4.692  20.968  0.00  0.00    +0.000 A 
ENDBRANCH   7  17
TORSDOF 2
ENDMDL
MODEL 3
REMARK VINA RESULT:      -7.7      3.365      5.016
REMARK  Name = 
REMARK  2 active torsions:
REMARK  status: ('A' for Active; 'I' for Inactive)
REMARK    1  A    between atoms: C_2  and  C_3
REMARK    2  A    between atoms: C_9  and  C_10
REMARK                            x       y       z     vdW  Elec       q    Type
REMARK                         _______ _______ _______ _____ _____    ______ ____
ROOT
ATOM      1  C   UNL     1       4.424   4.232  17.422  0.00  0.00    +0.000 C 
ATOM      2  C   UNL     1       3.716   2.894  17.680  0.00  0.00    +0.000 C 
ATOM      3  C   UNL     1       3.317   2.742  19.146  0.00  0.00    +0.000 C 
ATOM      4  C   UNL     1       2.729   3.996  19.695  0.00  0.00    +0.000 A 
ATOM      5  N   UNL     1       2.212   4.149  20.891  0.00  0.00    +0.000 NA
ATOM      6  C   UNL     1       1.882   5.475  20.971  0.00  0.00    +0.000 A 
ATOM      7  C   UNL     1       2.149   6.154  19.790  0.00  0.00    +0.000 A 
ATOM      8  N   UNL     1       2.747   5.189  19.005  0.00  0.00    +0.000 N 
ATOM      9  C   UNL     1       3.386   5.341  17.702  0.00  0.00    +0.000 C 
ENDROOT
BRANCH   1  11
ATOM     10  O   UNL     1       5.911   3.797  19.264  0.00  0.00    +0.000 OA
ATOM     11  C   UNL     1       5.669   4.505  18.280  0.00  0.00    +0.000 C 
ATOM     12  N   UNL     1       6.491   5.563  17.984  0.00  0.00    +0.000 N 
ATOM     13  C   UNL     1       7.677   5.786  18.801  0.00  0.00    +0.000 C 
ATOM     14  C   UNL     1       8.039   7.243  18.573  0.00  0.00    +0.000 C 
ATOM     15  C   UNL     1       7.580   7.480  17.144  0.00  0.00    +0.000 C 
ATOM     16  C   UNL     1       6.297   6.661  17.049  0.00  0.00    +0.000 C 
ENDBRANCH   1  11
BRANCH   7  17
ATOM     17  C   UNL     1       1.908   7.556  19.443  0.00  0.00    +0.000 A 
ATOM     18  C   UNL     1       1.298   8.417  20.369  0.00  0.00    +0.000 A 
ATOM     19  C   UNL     1       1.033   9.750  20.042  0.00  0.00    +0.000 A 
ATOM     20  C   UNL     1       1.384  10.229  18.787  0.00  0.00    +0.000 A 
ATOM     21  F   UNL     1       1.135  11.505  18.472  0.00  0.00    +0.000 F 
ATOM     22  C   UNL     1       1.981   9.398  17.851  0.00  0.00    +0.000 A 
ATOM     23  C   UNL     1       2.227   8.061  18.173  0.00  0.00    +0.000 A 
ENDBRANCH   7  17
TORSDOF 2
ENDMDL
MODEL 4
REMARK VINA RESULT:      -7.7      3.160      7.149
REMARK  Name = 
REMARK  2 active torsions:
REMARK  status: ('A' for Active; 'I' for Inactive)
REMARK    1  A    between atoms: C_2  and  C_3
REMARK    2  A    between atoms: C_9  and  C_10
REMARK                            x       y       z     vdW  Elec       q    Type
REMARK                         _______ _______ _______ _____ _____    ______ ____
ROOT
ATOM      1  C   UNL     1       3.374   5.576  17.652  0.00  0.00    +0.000 C 
ATOM      2  C   UNL     1       3.916   6.306  18.889  0.00  0.00    +0.000 C 
ATOM      3  C   UNL     1       5.155   5.616  19.452  0.00  0.00    +0.000 C 
ATOM      4  C   UNL     1       6.100   5.205  18.376  0.00  0.00    +0.000 A 
ATOM      5  N   UNL     1       7.288   4.673  18.550  0.00  0.00    +0.000 NA
ATOM      6  C   UNL     1       7.741   4.391  17.290  0.00  0.00    +0.000 A 
ATOM      7  C   UNL     1       6.847   4.797  16.308  0.00  0.00    +0.000 A 
ATOM      8  N   UNL     1       5.774   5.266  17.038  0.00  0.00    +0.000 N 
ATOM      9  C   UNL     1       4.462   5.689  16.561  0.00  0.00    +0.000 C 
ENDROOT
BRANCH   1  11
ATOM     10  O   UNL     1       3.336   3.265  16.978  0.00  0.00    +0.000 OA
ATOM     11  C   UNL     1       3.037   4.090  17.849  0.00  0.00    +0.000 C 
ATOM     12  N   UNL     1       2.364   3.679  18.973  0.00  0.00    +0.000 N 
ATOM     13  C   UNL     1       2.077   2.261  19.145  0.00  0.00    +0.000 C 
ATOM     14  C   UNL     1       0.929   2.214  20.137  0.00  0.00    +0.000 C 
ATOM     15  C   UNL     1       1.186   3.438  21.002  0.00  0.00    +0.000 C 
ATOM     16  C   UNL     1       1.706   4.466  20.004  0.00  0.00    +0.000 C 
ENDBRANCH   1  11
BRANCH   7  17
ATOM     17  C   UNL     1       6.963   4.722  14.850  0.00  0.00    +0.000 A 
ATOM     18  C   UNL     1       6.179   3.810  14.126  0.00  0.00    +0.000 A 
ATOM     19  C   UNL     1       6.301   3.704  12.738  0.00  0.00    +0.000 A 
ATOM     20  C   UNL     1       7.203   4.517  12.066  0.00  0.00    +0.000 A 
ATOM     21  F   UNL     1       7.320   4.420  10.737  0.00  0.00    +0.000 F 
ATOM     22  C   UNL     1       7.996   5.421  12.758  0.00  0.00    +0.000 A 
ATOM     23  C   UNL     1       7.887   5.511  14.147  0.00  0.00    +0.000 A 
ENDBRANCH   7  17
TORSDOF 2
ENDMDL
MODEL 5
REMARK VINA RESULT:      -7.6      3.160      7.102
REMARK  Name = 
REMARK  2 active torsions:
REMARK  status: ('A' for Active; 'I' for Inactive)
REMARK    1  A    between atoms: C_2  and  C_3
REMARK    2  A    between atoms: C_9  and  C_10
REMARK                            x       y       z     vdW  Elec       q    Type
REMARK                         _______ _______ _______ _____ _____    ______ ____
ROOT
ATOM      1  C   UNL     1       3.380   5.523  17.669  0.00  0.00    +0.000 C 
ATOM      2  C   UNL     1       3.914   6.277  18.896  0.00  0.00    +0.000 C 
ATOM      3  C   UNL     1       5.160   5.607  19.470  0.00  0.00    +0.000 C 
ATOM      4  C   UNL     1       6.110   5.189  18.400  0.00  0.00    +0.000 A 
ATOM      5  N   UNL     1       7.301   4.670  18.583  0.00  0.00    +0.000 NA
ATOM      6  C   UNL     1       7.758   4.373  17.327  0.00  0.00    +0.000 A 
ATOM      7  C   UNL     1       6.861   4.756  16.339  0.00  0.00    +0.000 A 
ATOM      8  N   UNL     1       5.783   5.226  17.061  0.00  0.00    +0.000 N 
ATOM      9  C   UNL     1       4.467   5.630  16.577  0.00  0.00    +0.000 C 
ENDROOT
BRANCH   1  11
ATOM     10  O   UNL     1       3.372   3.201  17.035  0.00  0.00    +0.000 OA
ATOM     11  C   UNL     1       3.057   4.037  17.889  0.00  0.00    +0.000 C 
ATOM     12  N   UNL     1       2.378   3.639  19.014  0.00  0.00    +0.000 N 
ATOM     13  C   UNL     1       2.104   2.221  19.208  0.00  0.00    +0.000 C 
ATOM     14  C   UNL     1       0.948   2.178  20.190  0.00  0.00    +0.000 C 
ATOM     15  C   UNL     1       1.184   3.419  21.036  0.00  0.00    +0.000 C 
ATOM     16  C   UNL     1       1.702   4.436  20.025  0.00  0.00    +0.000 C 
ENDBRANCH   1  11
BRANCH   7  17
ATOM     17  C   UNL     1       6.978   4.661  14.882  0.00  0.00    +0.000 A 
ATOM     18  C   UNL     1       7.870   5.496  14.190  0.00  0.00    +0.000 A 
ATOM     19  C   UNL     1       7.971   5.439  12.797  0.00  0.00    +0.000 A 
ATOM     20  C   UNL     1       7.184   4.539  12.091  0.00  0.00    +0.000 A 
ATOM     21  F   UNL     1       7.280   4.480  10.757  0.00  0.00    +0.000 F 
ATOM     22  C   UNL     1       6.289   3.708  12.749  0.00  0.00    +0.000 A 
ATOM     23  C   UNL     1       6.176   3.781  14.139  0.00  0.00    +0.000 A 
ENDBRANCH   7  17
TORSDOF 2
ENDMDL
MODEL 6
REMARK VINA RESULT:      -7.5      3.355      5.054
REMARK  Name = 
REMARK  2 active torsions:
REMARK  status: ('A' for Active; 'I' for Inactive)
REMARK    1  A    between atoms: C_2  and  C_3
REMARK    2  A    between atoms: C_9  and  C_10
REMARK                            x       y       z     vdW  Elec       q    Type
REMARK                         _______ _______ _______ _____ _____    ______ ____
ROOT
ATOM      1  C   UNL     1       4.634   4.458  17.316  0.00  0.00    +0.000 C 
ATOM      2  C   UNL     1       3.988   3.074  17.480  0.00  0.00    +0.000 C 
ATOM      3  C   UNL     1       3.554   2.823  18.922  0.00  0.00    +0.000 C 
ATOM      4  C   UNL     1       2.885   4.014  19.517  0.00  0.00    +0.000 A 
ATOM      5  N   UNL     1       2.326   4.077  20.703  0.00  0.00    +0.000 NA
ATOM      6  C   UNL     1       1.926   5.378  20.841  0.00  0.00    +0.000 A 
ATOM      7  C   UNL     1       2.193   6.133  19.707  0.00  0.00    +0.000 A 
ATOM      8  N   UNL     1       2.863   5.243  18.892  0.00  0.00    +0.000 N 
ATOM      9  C   UNL     1       3.532   5.498  17.620  0.00  0.00    +0.000 C 
ENDROOT
BRANCH   1  11
ATOM     10  O   UNL     1       6.054   4.030  19.212  0.00  0.00    +0.000 OA
ATOM     11  C   UNL     1       5.836   4.745  18.227  0.00  0.00    +0.000 C 
ATOM     12  N   UNL     1       6.648   5.824  17.977  0.00  0.00    +0.000 N 
ATOM     13  C   UNL     1       7.795   6.061  18.845  0.00  0.00    +0.000 C 
ATOM     14  C   UNL     1       8.135   7.527  18.648  0.00  0.00    +0.000 C 
ATOM     15  C   UNL     1       7.730   7.772  17.204  0.00  0.00    +0.000 C 
ATOM     16  C   UNL     1       6.469   6.929  17.048  0.00  0.00    +0.000 C 
ENDBRANCH   1  11
BRANCH   7  17
ATOM     17  C   UNL     1       1.891   7.538  19.427  0.00  0.00    +0.000 A 
ATOM     18  C   UNL     1       2.185   8.085  18.167  0.00  0.00    +0.000 A 
ATOM     19  C   UNL     1       1.932   9.433  17.895  0.00  0.00    +0.000 A 
ATOM     20  C   UNL     1       1.377  10.237  18.880  0.00  0.00    +0.000 A 
ATOM     21  F   UNL     1       1.131  11.527  18.621  0.00  0.00    +0.000 F 
ATOM     22  C   UNL     1       1.085   9.724  20.136  0.00  0.00    +0.000 A 
ATOM     23  C   UNL     1       1.356   8.383  20.412  0.00  0.00    +0.000 A 
ENDBRANCH   7  17
TORSDOF 2
ENDMDL
MODEL 7
REMARK VINA RESULT:      -7.1      2.928      4.446
REMARK  Name = 
REMARK  2 active torsions:
REMARK  status: ('A' for Active; 'I' for Inactive)
REMARK    1  A    between atoms: C_2  and  C_3
REMARK    2  A    between atoms: C_9  and  C_10
REMARK                            x       y       z     vdW  Elec       q    Type
REMARK                         _______ _______ _______ _____ _____    ______ ____
ROOT
ATOM      1  C   UNL     1       3.115   3.608  17.065  0.00  0.00    +0.000 C 
ATOM      2  C   UNL     1       2.532   2.284  17.579  0.00  0.00    +0.000 C 
ATOM      3  C   UNL     1       2.777   2.104  19.075  0.00  0.00    +0.000 C 
ATOM      4  C   UNL     1       2.519   3.358  19.836  0.00  0.00    +0.000 A 
ATOM      5  N   UNL     1       2.556   3.494  21.141  0.00  0.00    +0.000 NA
ATOM      6  C   UNL     1       2.338   4.826  21.368  0.00  0.00    +0.000 A 
ATOM      7  C   UNL     1       2.111   5.529  20.193  0.00  0.00    +0.000 A 
ATOM      8  N   UNL     1       2.291   4.569  19.217  0.00  0.00    +0.000 N 
ATOM      9  C   UNL     1       2.331   4.738  17.768  0.00  0.00    +0.000 C 
ENDROOT
BRANCH   1  11
ATOM     10  O   UNL     1       5.051   3.807  18.483  0.00  0.00    +0.000 OA
ATOM     11  C   UNL     1       4.614   3.823  17.327  0.00  0.00    +0.000 C 
ATOM     12  N   UNL     1       5.466   4.077  16.280  0.00  0.00    +0.000 N 
ATOM     13  C   UNL     1       6.886   4.255  16.554  0.00  0.00    +0.000 C 
ATOM     14  C   UNL     1       7.423   5.010  15.351  0.00  0.00    +0.000 C 
ATOM     15  C   UNL     1       6.533   4.514  14.223  0.00  0.00    +0.000 C 
ATOM     16  C   UNL     1       5.168   4.378  14.889  0.00  0.00    +0.000 C 
ENDBRANCH   1  11
BRANCH   7  17
ATOM     17  C   UNL     1       1.799   6.946  19.996  0.00  0.00    +0.000 A 
ATOM     18  C   UNL     1       1.130   7.666  20.999  0.00  0.00    +0.000 A 
ATOM     19  C   UNL     1       0.797   9.011  20.814  0.00  0.00    +0.000 A 
ATOM     20  C   UNL     1       1.139   9.644  19.626  0.00  0.00    +0.000 A 
ATOM     21  F   UNL     1       0.825  10.932  19.447  0.00  0.00    +0.000 F 
ATOM     22  C   UNL     1       1.793   8.953  18.616  0.00  0.00    +0.000 A 
ATOM     23  C   UNL     1       2.108   7.604  18.796  0.00  0.00    +0.000 A 
ENDBRANCH   7  17
TORSDOF 2
ENDMDL
MODEL 8
REMARK VINA RESULT:      -7.0      2.930      4.446
REMARK  Name = 
REMARK  2 active torsions:
REMARK  status: ('A' for Active; 'I' for Inactive)
REMARK    1  A    between atoms: C_2  and  C_3
REMARK    2  A    between atoms: C_9  and  C_10
REMARK                            x       y       z     vdW  Elec       q    Type
REMARK                         _______ _______ _______ _____ _____    ______ ____
ROOT
ATOM      1  C   UNL     1       3.156   3.648  17.078  0.00  0.00    +0.000 C 
ATOM      2  C   UNL     1       2.614   2.278  17.511  0.00  0.00    +0.000 C 
ATOM      3  C   UNL     1       2.858   2.020  18.996  0.00  0.00    +0.000 C 
ATOM      4  C   UNL     1       2.555   3.219  19.826  0.00  0.00    +0.000 A 
ATOM      5  N   UNL     1       2.581   3.281  21.137  0.00  0.00    +0.000 NA
ATOM      6  C   UNL     1       2.319   4.590  21.439  0.00  0.00    +0.000 A 
ATOM      7  C   UNL     1       2.074   5.351  20.304  0.00  0.00    +0.000 A 
ATOM      8  N   UNL     1       2.290   4.456  19.276  0.00  0.00    +0.000 N 
ATOM      9  C   UNL     1       2.331   4.709  17.840  0.00  0.00    +0.000 C 
ENDROOT
BRANCH   1  11
ATOM     10  O   UNL     1       5.064   3.895  18.523  0.00  0.00    +0.000 OA
ATOM     11  C   UNL     1       4.645   3.896  17.361  0.00  0.00    +0.000 C 
ATOM     12  N   UNL     1       5.507   4.163  16.326  0.00  0.00    +0.000 N 
ATOM     13  C   UNL     1       6.919   4.373  16.620  0.00  0.00    +0.000 C 
ATOM     14  C   UNL     1       7.458   5.134  15.422  0.00  0.00    +0.000 C 
ATOM     15  C   UNL     1       6.596   4.613  14.283  0.00  0.00    +0.000 C 
ATOM     16  C   UNL     1       5.225   4.451  14.929  0.00  0.00    +0.000 C 
ENDBRANCH   1  11
BRANCH   7  17
ATOM     17  C   UNL     1       1.717   6.766  20.187  0.00  0.00    +0.000 A 
ATOM     18  C   UNL     1       2.135   7.510  19.072  0.00  0.00    +0.000 A 
ATOM     19  C   UNL     1       1.829   8.869  18.961  0.00  0.00    +0.000 A 
ATOM     20  C   UNL     1       1.095   9.489  19.963  0.00  0.00    +0.000 A 
ATOM     21  F   UNL     1       0.798  10.789  19.859  0.00  0.00    +0.000 F 
ATOM     22  C   UNL     1       0.676   8.780  21.080  0.00  0.00    +0.000 A 
ATOM     23  C   UNL     1       1.000   7.426  21.197  0.00  0.00    +0.000 A 
ENDBRANCH   7  17
TORSDOF 2
ENDMDL
MODEL 9
REMARK VINA RESULT:      -6.8      3.493      7.247
REMARK  Name = 
REMARK  2 active torsions:
REMARK  status: ('A' for Active; 'I' for Inactive)
REMARK    1  A    between atoms: C_2  and  C_3
REMARK    2  A    between atoms: C_9  and  C_10
REMARK                            x       y       z     vdW  Elec       q    Type
REMARK                         _______ _______ _______ _____ _____    ______ ____
ROOT
ATOM      1  C   UNL     1       2.956   6.237  20.405  0.00  0.00    +0.000 C 
ATOM      2  C   UNL     1       2.116   5.155  21.101  0.00  0.00    +0.000 C 
ATOM      3  C   UNL     1       1.190   4.443  20.118  0.00  0.00    +0.000 C 
ATOM      4  C   UNL     1       1.881   4.119  18.838  0.00  0.00    +0.000 A 
ATOM      5  N   UNL     1       1.377   3.433  17.839  0.00  0.00    +0.000 NA
ATOM      6  C   UNL     1       2.337   3.466  16.864  0.00  0.00    +0.000 A 
ATOM      7  C   UNL     1       3.479   4.139  17.274  0.00  0.00    +0.000 A 
ATOM      8  N   UNL     1       3.136   4.599  18.529  0.00  0.00    +0.000 N 
ATOM      9  C   UNL     1       3.875   5.504  19.403  0.00  0.00    +0.000 C 
ENDROOT
BRANCH   1  11
ATOM     10  O   UNL     1       2.217   7.360  18.409  0.00  0.00    +0.000 OA
ATOM     11  C   UNL     1       2.164   7.309  19.643  0.00  0.00    +0.000 C 
ATOM     12  N   UNL     1       1.428   8.242  20.332  0.00  0.00    +0.000 N 
ATOM     13  C   UNL     1       0.668   9.235  19.583  0.00  0.00    +0.000 C 
ATOM     14  C   UNL     1       0.432  10.367  20.567  0.00  0.00    +0.000 C 
ATOM     15  C   UNL     1       0.353   9.639  21.899  0.00  0.00    +0.000 C 
ATOM     16  C   UNL     1       1.397   8.537  21.756  0.00  0.00    +0.000 C 
ENDBRANCH   1  11
BRANCH   7  17
ATOM     17  C   UNL     1       4.739   4.363  16.562  0.00  0.00    +0.000 A 
ATOM     18  C   UNL     1       4.746   4.487  15.163  0.00  0.00    +0.000 A 
ATOM     19  C   UNL     1       5.943   4.669  14.465  0.00  0.00    +0.000 A 
ATOM     20  C   UNL     1       7.139   4.736  15.166  0.00  0.00    +0.000 A 
ATOM     21  F   UNL     1       8.287   4.914  14.502  0.00  0.00    +0.000 F 
ATOM     22  C   UNL     1       7.162   4.609  16.547  0.00  0.00    +0.000 A 
ATOM     23  C   UNL     1       5.966   4.408  17.240  0.00  0.00    +0.000 A 
ENDBRANCH   7  17
TORSDOF 2
ENDMDL
