MODEL 1
REMARK VINA RESULT:      -8.3      0.000      0.000
REMARK  Name = 
REMARK  8 active torsions:
REMARK  status: ('A' for Active; 'I' for Inactive)
REMARK    1  A    between atoms: C_1  and  C_2
REMARK    2  A    between atoms: C_2  and  C_3
REMARK    3  A    between atoms: C_3  and  N_4
REMARK    4  A    between atoms: C_6  and  S_7
REMARK    5  A    between atoms: S_7  and  C_10
REMARK    6  A    between atoms: C_12  and  C_13
REMARK    7  A    between atoms: C_16  and  C_17
REMARK    8  A    between atoms: C_24  and  N_25
REMARK                            x       y       z     vdW  Elec       q    Type
REMARK                         _______ _______ _______ _____ _____    ______ ____
ROOT
ATOM      1  N   UNL     1       1.780   6.577  20.495  0.00  0.00    +0.000 N 
ATOM      2  C   UNL     1       1.106   7.662  21.055  0.00  0.00    +0.000 A 
ATOM      3  C   UNL     1       1.003   8.889  20.519  0.00  0.00    +0.000 A 
ATOM      4  C   UNL     1       1.675   9.139  19.245  0.00  0.00    +0.000 A 
ATOM      5  O   UNL     1       1.662  10.234  18.699  0.00  0.00    +0.000 OA
ATOM      6  C   UNL     1       2.411   8.014  18.631  0.00  0.00    +0.000 A 
ATOM      7  C   UNL     1       3.059   8.252  17.424  0.00  0.00    +0.000 A 
ATOM      8  C   UNL     1       3.863   7.266  16.881  0.00  0.00    +0.000 A 
ATOM      9  F   UNL     1       4.464   7.568  15.719  0.00  0.00    +0.000 F 
ATOM     10  C   UNL     1       4.061   6.016  17.506  0.00  0.00    +0.000 A 
ATOM     11  C   UNL     1       3.305   5.783  18.678  0.00  0.00    +0.000 A 
ATOM     12  C   UNL     1       2.483   6.765  19.278  0.00  0.00    +0.000 A 
ENDROOT
BRANCH  10  13
ATOM     13  N   UNL     1       5.008   5.088  17.054  0.00  0.00    +0.000 N 
ATOM     14  C   UNL     1       6.433   5.216  17.368  0.00  0.00    +0.000 C 
ATOM     15  C   UNL     1       7.225   5.707  16.153  0.00  0.00    +0.000 C 
ATOM     16  C   UNL     1       7.430   4.660  15.058  0.00  0.00    +0.000 C 
ATOM     17  C   UNL     1       6.150   4.025  14.524  0.00  0.00    +0.000 C 
ATOM     18  C   UNL     1       5.488   3.112  15.553  0.00  0.00    +0.000 C 
ATOM     19  C   UNL     1       4.510   3.834  16.476  0.00  0.00    +0.000 C 
ENDBRANCH  10  13
BRANCH   3  20
ATOM     20  S   UNL     1       0.190  10.146  21.367  0.00  0.00    +0.000 S 
ATOM     21  O   UNL     1      -0.508   9.585  22.514  0.00  0.00    +0.000 OA
ATOM     22  O   UNL     1       1.143  11.221  21.598  0.00  0.00    +0.000 OA
BRANCH  20  23
ATOM     23  C   UNL     1      -1.097  10.783  20.285  0.00  0.00    +0.000 A 
ATOM     24  C   UNL     1      -1.329  10.104  19.072  0.00  0.00    +0.000 A 
ATOM     25  C   UNL     1      -2.268  10.586  18.151  0.00  0.00    +0.000 A 
ATOM     26  C   UNL     1      -2.462   9.928  16.816  0.00  0.00    +0.000 C 
ATOM     27  C   UNL     1      -3.000  11.732  18.468  0.00  0.00    +0.000 A 
ATOM     28  C   UNL     1      -2.780  12.403  19.673  0.00  0.00    +0.000 A 
ATOM     29  C   UNL     1      -1.815  11.957  20.592  0.00  0.00    +0.000 A 
ATOM     30  C   UNL     1      -1.585  12.775  21.829  0.00  0.00    +0.000 C 
ENDBRANCH  20  23
ENDBRANCH   3  20
BRANCH   1  31
ATOM     31  C   UNL     1       1.844   5.273  21.188  0.00  0.00    +0.000 C 
BRANCH  31  33
ATOM     32  C   UNL     1       1.281   2.820  20.966  0.00  0.00    +0.000 C 
ATOM     33  C   UNL     1       0.966   4.230  20.489  0.00  0.00    +0.000 C 
ENDBRANCH  31  33
ENDBRANCH   1  31
TORSDOF 5
ENDMDL
MODEL 2
REMARK VINA RESULT:      -8.1      2.413      4.216
REMARK  Name = 
REMARK  8 active torsions:
REMARK  status: ('A' for Active; 'I' for Inactive)
REMARK    1  A    between atoms: C_1  and  C_2
REMARK    2  A    between atoms: C_2  and  C_3
REMARK    3  A    between atoms: C_3  and  N_4
REMARK    4  A    between atoms: C_6  and  S_7
REMARK    5  A    between atoms: S_7  and  C_10
REMARK    6  A    between atoms: C_12  and  C_13
REMARK    7  A    between atoms: C_16  and  C_17
REMARK    8  A    between atoms: C_24  and  N_25
REMARK                            x       y       z     vdW  Elec       q    Type
REMARK                         _______ _______ _______ _____ _____    ______ ____
ROOT
ATOM      1  N   UNL     1       0.550   9.172  20.843  0.00  0.00    +0.000 N 
ATOM      2  C   UNL     1       0.362  10.524  20.558  0.00  0.00    +0.000 A 
ATOM      3  C   UNL     1       0.833  11.178  19.484  0.00  0.00    +0.000 A 
ATOM      4  C   UNL     1       1.643  10.427  18.526  0.00  0.00    +0.000 A 
ATOM      5  O   UNL     1       2.141  10.947  17.536  0.00  0.00    +0.000 OA
ATOM      6  C   UNL     1       1.874   8.994  18.805  0.00  0.00    +0.000 A 
ATOM      7  C   UNL     1       2.653   8.280  17.901  0.00  0.00    +0.000 A 
ATOM      8  C   UNL     1       2.999   6.972  18.190  0.00  0.00    +0.000 A 
ATOM      9  F   UNL     1       3.759   6.347  17.277  0.00  0.00    +0.000 F 
ATOM     10  C   UNL     1       2.597   6.324  19.378  0.00  0.00    +0.000 A 
ATOM     11  C   UNL     1       1.726   7.055  20.218  0.00  0.00    +0.000 A 
ATOM     12  C   UNL     1       1.358   8.398  19.972  0.00  0.00    +0.000 A 
ENDROOT
BRANCH  10  13
ATOM     13  N   UNL     1       3.090   5.068  19.755  0.00  0.00    +0.000 N 
ATOM     14  C   UNL     1       4.362   4.548  19.248  0.00  0.00    +0.000 C 
ATOM     15  C   UNL     1       4.133   3.467  18.188  0.00  0.00    +0.000 C 
ATOM     16  C   UNL     1       3.657   2.122  18.737  0.00  0.00    +0.000 C 
ATOM     17  C   UNL     1       2.391   2.184  19.586  0.00  0.00    +0.000 C 
ATOM     18  C   UNL     1       2.629   2.876  20.925  0.00  0.00    +0.000 C 
ATOM     19  C   UNL     1       2.434   4.389  20.879  0.00  0.00    +0.000 C 
ENDBRANCH  10  13
BRANCH   3  20
ATOM     20  S   UNL     1       0.571  12.868  19.307  0.00  0.00    +0.000 S 
ATOM     21  O   UNL     1       1.752  13.592  19.754  0.00  0.00    +0.000 OA
ATOM     22  O   UNL     1       0.084  13.109  17.957  0.00  0.00    +0.000 OA
BRANCH  20  23
ATOM     23  C   UNL     1      -0.738  13.335  20.448  0.00  0.00    +0.000 A 
ATOM     24  C   UNL     1      -0.376  14.063  21.599  0.00  0.00    +0.000 A 
ATOM     25  C   UNL     1      -1.334  14.399  22.565  0.00  0.00    +0.000 A 
ATOM     26  C   UNL     1      -0.950  15.093  23.839  0.00  0.00    +0.000 C 
ATOM     27  C   UNL     1      -2.665  14.032  22.352  0.00  0.00    +0.000 A 
ATOM     28  C   UNL     1      -3.030  13.319  21.208  0.00  0.00    +0.000 A 
ATOM     29  C   UNL     1      -2.077  12.940  20.248  0.00  0.00    +0.000 A 
ATOM     30  C   UNL     1      -2.536  12.109  19.085  0.00  0.00    +0.000 C 
ENDBRANCH  20  23
ENDBRANCH   3  20
BRANCH   1  31
ATOM     31  C   UNL     1      -0.001   8.563  22.071  0.00  0.00    +0.000 C 
BRANCH  31  33
ATOM     32  C   UNL     1      -1.133  10.516  23.206  0.00  0.00    +0.000 C 
ATOM     33  C   UNL     1       0.039   9.547  23.245  0.00  0.00    +0.000 C 
ENDBRANCH  31  33
ENDBRANCH   1  31
TORSDOF 5
ENDMDL
MODEL 3
REMARK VINA RESULT:      -8.0      2.715      4.336
REMARK  Name = 
REMARK  8 active torsions:
REMARK  status: ('A' for Active; 'I' for Inactive)
REMARK    1  A    between atoms: C_1  and  C_2
REMARK    2  A    between atoms: C_2  and  C_3
REMARK    3  A    between atoms: C_3  and  N_4
REMARK    4  A    between atoms: C_6  and  S_7
REMARK    5  A    between atoms: S_7  and  C_10
REMARK    6  A    between atoms: C_12  and  C_13
REMARK    7  A    between atoms: C_16  and  C_17
REMARK    8  A    between atoms: C_24  and  N_25
REMARK                            x       y       z     vdW  Elec       q    Type
REMARK                         _______ _______ _______ _____ _____    ______ ____
ROOT
ATOM      1  N   UNL     1       0.419   9.324  20.744  0.00  0.00    +0.000 N 
ATOM      2  C   UNL     1       0.254  10.663  20.390  0.00  0.00    +0.000 A 
ATOM      3  C   UNL     1       0.766  11.260  19.302  0.00  0.00    +0.000 A 
ATOM      4  C   UNL     1       1.597  10.457  18.406  0.00  0.00    +0.000 A 
ATOM      5  O   UNL     1       2.131  10.925  17.409  0.00  0.00    +0.000 OA
ATOM      6  C   UNL     1       1.804   9.036  18.760  0.00  0.00    +0.000 A 
ATOM      7  C   UNL     1       2.602   8.273  17.915  0.00  0.00    +0.000 A 
ATOM      8  C   UNL     1       2.925   6.978  18.277  0.00  0.00    +0.000 A 
ATOM      9  F   UNL     1       3.706   6.303  17.418  0.00  0.00    +0.000 F 
ATOM     10  C   UNL     1       2.479   6.390  19.480  0.00  0.00    +0.000 A 
ATOM     11  C   UNL     1       1.591   7.169  20.257  0.00  0.00    +0.000 A 
ATOM     12  C   UNL     1       1.245   8.501  19.937  0.00  0.00    +0.000 A 
ENDROOT
BRANCH  10  13
ATOM     13  N   UNL     1       2.947   5.150  19.932  0.00  0.00    +0.000 N 
ATOM     14  C   UNL     1       4.222   4.588  19.481  0.00  0.00    +0.000 C 
ATOM     15  C   UNL     1       4.002   3.457  18.471  0.00  0.00    +0.000 C 
ATOM     16  C   UNL     1       3.495   2.148  19.077  0.00  0.00    +0.000 C 
ATOM     17  C   UNL     1       2.212   2.270  19.893  0.00  0.00    +0.000 C 
ATOM     18  C   UNL     1       2.430   3.026  21.200  0.00  0.00    +0.000 C 
ATOM     19  C   UNL     1       2.257   4.536  21.073  0.00  0.00    +0.000 C 
ENDBRANCH  10  13
BRANCH   3  20
ATOM     20  S   UNL     1       0.528  12.943  19.037  0.00  0.00    +0.000 S 
ATOM     21  O   UNL     1       1.819  13.610  18.961  0.00  0.00    +0.000 OA
ATOM     22  O   UNL     1      -0.395  13.096  17.922  0.00  0.00    +0.000 OA
BRANCH  20  23
ATOM     23  C   UNL     1      -0.273  13.612  20.501  0.00  0.00    +0.000 A 
ATOM     24  C   UNL     1      -1.682  13.592  20.545  0.00  0.00    +0.000 A 
ATOM     25  C   UNL     1      -2.373  14.160  21.623  0.00  0.00    +0.000 A 
ATOM     26  C   UNL     1      -3.872  14.230  21.642  0.00  0.00    +0.000 C 
ATOM     27  C   UNL     1      -1.643  14.716  22.676  0.00  0.00    +0.000 A 
ATOM     28  C   UNL     1      -0.246  14.729  22.642  0.00  0.00    +0.000 A 
ATOM     29  C   UNL     1       0.463  14.199  21.551  0.00  0.00    +0.000 A 
ATOM     30  C   UNL     1       1.959  14.320  21.554  0.00  0.00    +0.000 C 
ENDBRANCH  20  23
ENDBRANCH   3  20
BRANCH   1  31
ATOM     31  C   UNL     1      -0.176   8.779  21.982  0.00  0.00    +0.000 C 
BRANCH  31  33
ATOM     32  C   UNL     1      -1.256  10.717  23.192  0.00  0.00    +0.000 C 
ATOM     33  C   UNL     1      -0.061   9.777  23.139  0.00  0.00    +0.000 C 
ENDBRANCH  31  33
ENDBRANCH   1  31
TORSDOF 5
ENDMDL
MODEL 4
REMARK VINA RESULT:      -7.7      2.822      4.714
REMARK  Name = 
REMARK  8 active torsions:
REMARK  status: ('A' for Active; 'I' for Inactive)
REMARK    1  A    between atoms: C_1  and  C_2
REMARK    2  A    between atoms: C_2  and  C_3
REMARK    3  A    between atoms: C_3  and  N_4
REMARK    4  A    between atoms: C_6  and  S_7
REMARK    5  A    between atoms: S_7  and  C_10
REMARK    6  A    between atoms: C_12  and  C_13
REMARK    7  A    between atoms: C_16  and  C_17
REMARK    8  A    between atoms: C_24  and  N_25
REMARK                            x       y       z     vdW  Elec       q    Type
REMARK                         _______ _______ _______ _____ _____    ______ ____
ROOT
ATOM      1  N   UNL     1       1.073   9.628  21.015  0.00  0.00    +0.000 N 
ATOM      2  C   UNL     1       0.916  10.922  20.519  0.00  0.00    +0.000 A 
ATOM      3  C   UNL     1       1.122  11.310  19.250  0.00  0.00    +0.000 A 
ATOM      4  C   UNL     1       1.578  10.305  18.291  0.00  0.00    +0.000 A 
ATOM      5  O   UNL     1       1.823  10.575  17.123  0.00  0.00    +0.000 OA
ATOM      6  C   UNL     1       1.768   8.926  18.788  0.00  0.00    +0.000 A 
ATOM      7  C   UNL     1       2.212   7.971  17.880  0.00  0.00    +0.000 A 
ATOM      8  C   UNL     1       2.525   6.702  18.332  0.00  0.00    +0.000 A 
ATOM      9  F   UNL     1       2.955   5.834  17.403  0.00  0.00    +0.000 F 
ATOM     10  C   UNL     1       2.417   6.329  19.690  0.00  0.00    +0.000 A 
ATOM     11  C   UNL     1       1.869   7.302  20.557  0.00  0.00    +0.000 A 
ATOM     12  C   UNL     1       1.549   8.616  20.144  0.00  0.00    +0.000 A 
ENDROOT
BRANCH  10  13
ATOM     13  N   UNL     1       2.898   5.107  20.177  0.00  0.00    +0.000 N 
ATOM     14  C   UNL     1       4.254   4.635  19.887  0.00  0.00    +0.000 C 
ATOM     15  C   UNL     1       4.239   3.519  18.838  0.00  0.00    +0.000 C 
ATOM     16  C   UNL     1       3.740   2.167  19.348  0.00  0.00    +0.000 C 
ATOM     17  C   UNL     1       2.357   2.190  19.990  0.00  0.00    +0.000 C 
ATOM     18  C   UNL     1       2.355   2.924  21.328  0.00  0.00    +0.000 C 
ATOM     19  C   UNL     1       2.106   4.425  21.206  0.00  0.00    +0.000 C 
ENDBRANCH  10  13
BRANCH   3  20
ATOM     20  S   UNL     1       0.950  12.963  18.805  0.00  0.00    +0.000 S 
ATOM     21  O   UNL     1       2.215  13.460  18.285  0.00  0.00    +0.000 OA
ATOM     22  O   UNL     1      -0.234  13.082  17.967  0.00  0.00    +0.000 OA
BRANCH  20  23
ATOM     23  C   UNL     1       0.647  13.899  20.310  0.00  0.00    +0.000 A 
ATOM     24  C   UNL     1       1.729  14.610  20.868  0.00  0.00    +0.000 A 
ATOM     25  C   UNL     1       1.582  15.304  22.076  0.00  0.00    +0.000 A 
ATOM     26  C   UNL     1       2.746  15.989  22.730  0.00  0.00    +0.000 C 
ATOM     27  C   UNL     1       0.335  15.312  22.704  0.00  0.00    +0.000 A 
ATOM     28  C   UNL     1      -0.742  14.617  22.149  0.00  0.00    +0.000 A 
ATOM     29  C   UNL     1      -0.604  13.883  20.958  0.00  0.00    +0.000 A 
ATOM     30  C   UNL     1      -1.788  13.101  20.468  0.00  0.00    +0.000 C 
ENDBRANCH  20  23
ENDBRANCH   3  20
BRANCH   1  31
ATOM     31  C   UNL     1       0.836   9.320  22.441  0.00  0.00    +0.000 C 
BRANCH  31  33
ATOM     32  C   UNL     1      -1.150  10.679  23.211  0.00  0.00    +0.000 C 
ATOM     33  C   UNL     1      -0.661   9.309  22.766  0.00  0.00    +0.000 C 
ENDBRANCH  31  33
ENDBRANCH   1  31
TORSDOF 5
ENDMDL
MODEL 5
REMARK VINA RESULT:      -7.6      2.312      4.286
REMARK  Name = 
REMARK  8 active torsions:
REMARK  status: ('A' for Active; 'I' for Inactive)
REMARK    1  A    between atoms: C_1  and  C_2
REMARK    2  A    between atoms: C_2  and  C_3
REMARK    3  A    between atoms: C_3  and  N_4
REMARK    4  A    between atoms: C_6  and  S_7
REMARK    5  A    between atoms: S_7  and  C_10
REMARK    6  A    between atoms: C_12  and  C_13
REMARK    7  A    between atoms: C_16  and  C_17
REMARK    8  A    between atoms: C_24  and  N_25
REMARK                            x       y       z     vdW  Elec       q    Type
REMARK                         _______ _______ _______ _____ _____    ______ ____
ROOT
ATOM      1  N   UNL     1       1.453  10.546  19.334  0.00  0.00    +0.000 N 
ATOM      2  C   UNL     1       0.718  11.395  20.160  0.00  0.00    +0.000 A 
ATOM      3  C   UNL     1       0.124  11.053  21.315  0.00  0.00    +0.000 A 
ATOM      4  C   UNL     1       0.224   9.661  21.751  0.00  0.00    +0.000 A 
ATOM      5  O   UNL     1      -0.312   9.252  22.772  0.00  0.00    +0.000 OA
ATOM      6  C   UNL     1       0.986   8.731  20.890  0.00  0.00    +0.000 A 
ATOM      7  C   UNL     1       1.074   7.404  21.297  0.00  0.00    +0.000 A 
ATOM      8  C   UNL     1       1.666   6.477  20.459  0.00  0.00    +0.000 A 
ATOM      9  F   UNL     1       1.708   5.214  20.912  0.00  0.00    +0.000 F 
ATOM     10  C   UNL     1       2.187   6.819  19.192  0.00  0.00    +0.000 A 
ATOM     11  C   UNL     1       2.163   8.194  18.865  0.00  0.00    +0.000 A 
ATOM     12  C   UNL     1       1.556   9.175  19.682  0.00  0.00    +0.000 A 
ENDROOT
BRANCH  10  13
ATOM     13  N   UNL     1       2.623   5.858  18.272  0.00  0.00    +0.000 N 
ATOM     14  C   UNL     1       1.703   4.905  17.648  0.00  0.00    +0.000 C 
ATOM     15  C   UNL     1       1.854   3.509  18.260  0.00  0.00    +0.000 C 
ATOM     16  C   UNL     1       3.118   2.759  17.838  0.00  0.00    +0.000 C 
ATOM     17  C   UNL     1       4.425   3.501  18.099  0.00  0.00    +0.000 C 
ATOM     18  C   UNL     1       4.594   4.710  17.183  0.00  0.00    +0.000 C 
ATOM     19  C   UNL     1       3.985   5.993  17.741  0.00  0.00    +0.000 C 
ENDBRANCH  10  13
BRANCH   3  20
ATOM     20  S   UNL     1      -0.808  12.203  22.191  0.00  0.00    +0.000 S 
ATOM     21  O   UNL     1      -1.142  11.661  23.500  0.00  0.00    +0.000 OA
ATOM     22  O   UNL     1      -0.116  13.482  22.130  0.00  0.00    +0.000 OA
BRANCH  20  23
ATOM     23  C   UNL     1      -2.377  12.392  21.334  0.00  0.00    +0.000 A 
ATOM     24  C   UNL     1      -2.475  11.880  20.024  0.00  0.00    +0.000 A 
ATOM     25  C   UNL     1      -3.644  12.054  19.273  0.00  0.00    +0.000 A 
ATOM     26  C   UNL     1      -3.732  11.597  17.846  0.00  0.00    +0.000 C 
ATOM     27  C   UNL     1      -4.730  12.712  19.855  0.00  0.00    +0.000 A 
ATOM     28  C   UNL     1      -4.641  13.212  21.156  0.00  0.00    +0.000 A 
ATOM     29  C   UNL     1      -3.463  13.082  21.910  0.00  0.00    +0.000 A 
ATOM     30  C   UNL     1      -3.422  13.713  23.272  0.00  0.00    +0.000 C 
ENDBRANCH  20  23
ENDBRANCH   3  20
BRANCH   1  31
ATOM     31  C   UNL     1       2.046  11.031  18.070  0.00  0.00    +0.000 C 
BRANCH  31  33
ATOM     32  C   UNL     1       3.148  13.297  18.251  0.00  0.00    +0.000 C 
ATOM     33  C   UNL     1       1.869  12.545  17.918  0.00  0.00    +0.000 C 
ENDBRANCH  31  33
ENDBRANCH   1  31
TORSDOF 5
ENDMDL
MODEL 6
REMARK VINA RESULT:      -7.6      2.317      4.186
REMARK  Name = 
REMARK  8 active torsions:
REMARK  status: ('A' for Active; 'I' for Inactive)
REMARK    1  A    between atoms: C_1  and  C_2
REMARK    2  A    between atoms: C_2  and  C_3
REMARK    3  A    between atoms: C_3  and  N_4
REMARK    4  A    between atoms: C_6  and  S_7
REMARK    5  A    between atoms: S_7  and  C_10
REMARK    6  A    between atoms: C_12  and  C_13
REMARK    7  A    between atoms: C_16  and  C_17
REMARK    8  A    between atoms: C_24  and  N_25
REMARK                            x       y       z     vdW  Elec       q    Type
REMARK                         _______ _______ _______ _____ _____    ______ ____
ROOT
ATOM      1  N   UNL     1       0.349   9.641  20.855  0.00  0.00    +0.000 N 
ATOM      2  C   UNL     1       0.134  11.017  20.791  0.00  0.00    +0.000 A 
ATOM      3  C   UNL     1       0.589  11.843  19.835  0.00  0.00    +0.000 A 
ATOM      4  C   UNL     1       1.410  11.272  18.769  0.00  0.00    +0.000 A 
ATOM      5  O   UNL     1       1.895  11.953  17.876  0.00  0.00    +0.000 OA
ATOM      6  C   UNL     1       1.670   9.817  18.816  0.00  0.00    +0.000 A 
ATOM      7  C   UNL     1       2.460   9.273  17.809  0.00  0.00    +0.000 A 
ATOM      8  C   UNL     1       2.833   7.943  17.886  0.00  0.00    +0.000 A 
ATOM      9  F   UNL     1       3.602   7.487  16.884  0.00  0.00    +0.000 F 
ATOM     10  C   UNL     1       2.447   7.105  18.954  0.00  0.00    +0.000 A 
ATOM     11  C   UNL     1       1.565   7.675  19.900  0.00  0.00    +0.000 A 
ATOM     12  C   UNL     1       1.170   9.032  19.872  0.00  0.00    +0.000 A 
ENDROOT
BRANCH  10  13
ATOM     13  N   UNL     1       2.966   5.815  19.126  0.00  0.00    +0.000 N 
ATOM     14  C   UNL     1       4.397   5.572  19.315  0.00  0.00    +0.000 C 
ATOM     15  C   UNL     1       5.035   5.004  18.044  0.00  0.00    +0.000 C 
ATOM     16  C   UNL     1       4.695   3.541  17.756  0.00  0.00    +0.000 C 
ATOM     17  C   UNL     1       3.204   3.228  17.682  0.00  0.00    +0.000 C 
ATOM     18  C   UNL     1       2.526   3.328  19.045  0.00  0.00    +0.000 C 
ATOM     19  C   UNL     1       2.014   4.726  19.376  0.00  0.00    +0.000 C 
ENDBRANCH  10  13
BRANCH   3  20
ATOM     20  S   UNL     1       0.293  13.535  19.931  0.00  0.00    +0.000 S 
ATOM     21  O   UNL     1       1.469  14.204  20.466  0.00  0.00    +0.000 OA
ATOM     22  O   UNL     1      -0.225  13.975  18.643  0.00  0.00    +0.000 OA
BRANCH  20  23
ATOM     23  C   UNL     1      -1.001  13.789  21.153  0.00  0.00    +0.000 A 
ATOM     24  C   UNL     1      -0.639  14.386  22.377  0.00  0.00    +0.000 A 
ATOM     25  C   UNL     1      -1.581  14.550  23.400  0.00  0.00    +0.000 A 
ATOM     26  C   UNL     1      -1.192  15.098  24.742  0.00  0.00    +0.000 C 
ATOM     27  C   UNL     1      -2.900  14.147  23.176  0.00  0.00    +0.000 A 
ATOM     28  C   UNL     1      -3.266  13.564  21.960  0.00  0.00    +0.000 A 
ATOM     29  C   UNL     1      -2.325  13.356  20.937  0.00  0.00    +0.000 A 
ATOM     30  C   UNL     1      -2.781  12.654  19.691  0.00  0.00    +0.000 C 
ENDBRANCH  20  23
ENDBRANCH   3  20
BRANCH   1  31
ATOM     31  C   UNL     1      -0.186   8.832  21.971  0.00  0.00    +0.000 C 
BRANCH  31  33
ATOM     32  C   UNL     1      -1.352  10.614  23.330  0.00  0.00    +0.000 C 
ATOM     33  C   UNL     1      -0.194   9.629  23.279  0.00  0.00    +0.000 C 
ENDBRANCH  31  33
ENDBRANCH   1  31
TORSDOF 5
ENDMDL
MODEL 7
REMARK VINA RESULT:      -7.4      2.857      4.263
REMARK  Name = 
REMARK  8 active torsions:
REMARK  status: ('A' for Active; 'I' for Inactive)
REMARK    1  A    between atoms: C_1  and  C_2
REMARK    2  A    between atoms: C_2  and  C_3
REMARK    3  A    between atoms: C_3  and  N_4
REMARK    4  A    between atoms: C_6  and  S_7
REMARK    5  A    between atoms: S_7  and  C_10
REMARK    6  A    between atoms: C_12  and  C_13
REMARK    7  A    between atoms: C_16  and  C_17
REMARK    8  A    between atoms: C_24  and  N_25
REMARK                            x       y       z     vdW  Elec       q    Type
REMARK                         _______ _______ _______ _____ _____    ______ ____
ROOT
ATOM      1  N   UNL     1       1.134   9.643  21.187  0.00  0.00    +0.000 N 
ATOM      2  C   UNL     1       1.174  10.982  20.799  0.00  0.00    +0.000 A 
ATOM      3  C   UNL     1       1.493  11.440  19.577  0.00  0.00    +0.000 A 
ATOM      4  C   UNL     1       1.859  10.462  18.553  0.00  0.00    +0.000 A 
ATOM      5  O   UNL     1       2.195  10.790  17.423  0.00  0.00    +0.000 OA
ATOM      6  C   UNL     1       1.840   9.035  18.937  0.00  0.00    +0.000 A 
ATOM      7  C   UNL     1       2.199   8.104  17.967  0.00  0.00    +0.000 A 
ATOM      8  C   UNL     1       2.318   6.772  18.320  0.00  0.00    +0.000 A 
ATOM      9  F   UNL     1       2.675   5.931  17.336  0.00  0.00    +0.000 F 
ATOM     10  C   UNL     1       2.094   6.309  19.634  0.00  0.00    +0.000 A 
ATOM     11  C   UNL     1       1.637   7.275  20.561  0.00  0.00    +0.000 A 
ATOM     12  C   UNL     1       1.515   8.649  20.251  0.00  0.00    +0.000 A 
ENDROOT
BRANCH  10  13
ATOM     13  N   UNL     1       2.385   4.998  20.032  0.00  0.00    +0.000 N 
ATOM     14  C   UNL     1       3.744   4.455  19.984  0.00  0.00    +0.000 C 
ATOM     15  C   UNL     1       3.913   3.491  18.806  0.00  0.00    +0.000 C 
ATOM     16  C   UNL     1       3.240   2.131  18.991  0.00  0.00    +0.000 C 
ATOM     17  C   UNL     1       1.748   2.187  19.307  0.00  0.00    +0.000 C 
ATOM     18  C   UNL     1       1.476   2.738  20.704  0.00  0.00    +0.000 C 
ATOM     19  C   UNL     1       1.341   4.257  20.750  0.00  0.00    +0.000 C 
ENDBRANCH  10  13
BRANCH   3  20
ATOM     20  S   UNL     1       1.563  13.130  19.270  0.00  0.00    +0.000 S 
ATOM     21  O   UNL     1       2.631  13.723  20.061  0.00  0.00    +0.000 OA
ATOM     22  O   UNL     1       1.582  13.325  17.828  0.00  0.00    +0.000 OA
BRANCH  20  23
ATOM     23  C   UNL     1       0.042  13.857  19.896  0.00  0.00    +0.000 A 
ATOM     24  C   UNL     1      -1.045  12.993  20.142  0.00  0.00    +0.000 A 
ATOM     25  C   UNL     1      -2.281  13.500  20.563  0.00  0.00    +0.000 A 
ATOM     26  C   UNL     1      -3.473  12.606  20.741  0.00  0.00    +0.000 C 
ATOM     27  C   UNL     1      -2.412  14.875  20.772  0.00  0.00    +0.000 A 
ATOM     28  C   UNL     1      -1.335  15.733  20.539  0.00  0.00    +0.000 A 
ATOM     29  C   UNL     1      -0.100  15.248  20.079  0.00  0.00    +0.000 A 
ATOM     30  C   UNL     1       0.984  16.243  19.780  0.00  0.00    +0.000 C 
ENDBRANCH  20  23
ENDBRANCH   3  20
BRANCH   1  31
ATOM     31  C   UNL     1       0.788   9.256  22.571  0.00  0.00    +0.000 C 
BRANCH  31  33
ATOM     32  C   UNL     1      -1.171  10.732  23.179  0.00  0.00    +0.000 C 
ATOM     33  C   UNL     1      -0.725   9.327  22.806  0.00  0.00    +0.000 C 
ENDBRANCH  31  33
ENDBRANCH   1  31
TORSDOF 5
ENDMDL
MODEL 8
REMARK VINA RESULT:      -7.4      6.999     10.551
REMARK  Name = 
REMARK  8 active torsions:
REMARK  status: ('A' for Active; 'I' for Inactive)
REMARK    1  A    between atoms: C_1  and  C_2
REMARK    2  A    between atoms: C_2  and  C_3
REMARK    3  A    between atoms: C_3  and  N_4
REMARK    4  A    between atoms: C_6  and  S_7
REMARK    5  A    between atoms: S_7  and  C_10
REMARK    6  A    between atoms: C_12  and  C_13
REMARK    7  A    between atoms: C_16  and  C_17
REMARK    8  A    between atoms: C_24  and  N_25
REMARK                            x       y       z     vdW  Elec       q    Type
REMARK                         _______ _______ _______ _____ _____    ______ ____
ROOT
ATOM      1  N   UNL     1       5.823  14.792  21.550  0.00  0.00    +0.000 N 
ATOM      2  C   UNL     1       7.044  15.133  20.968  0.00  0.00    +0.000 A 
ATOM      3  C   UNL     1       7.277  15.282  19.654  0.00  0.00    +0.000 A 
ATOM      4  C   UNL     1       6.170  15.041  18.729  0.00  0.00    +0.000 A 
ATOM      5  O   UNL     1       6.299  15.120  17.515  0.00  0.00    +0.000 OA
ATOM      6  C   UNL     1       4.866  14.662  19.313  0.00  0.00    +0.000 A 
ATOM      7  C   UNL     1       3.814  14.423  18.435  0.00  0.00    +0.000 A 
ATOM      8  C   UNL     1       2.615  13.943  18.931  0.00  0.00    +0.000 A 
ATOM      9  F   UNL     1       1.647  13.727  18.026  0.00  0.00    +0.000 F 
ATOM     10  C   UNL     1       2.410  13.679  20.302  0.00  0.00    +0.000 A 
ATOM     11  C   UNL     1       3.472  14.030  21.166  0.00  0.00    +0.000 A 
ATOM     12  C   UNL     1       4.720  14.508  20.705  0.00  0.00    +0.000 A 
ENDROOT
BRANCH  10  13
ATOM     13  N   UNL     1       1.265  13.029  20.782  0.00  0.00    +0.000 N 
ATOM     14  C   UNL     1       1.095  11.578  20.681  0.00  0.00    +0.000 C 
ATOM     15  C   UNL     1       0.100  11.214  19.574  0.00  0.00    +0.000 C 
ATOM     16  C   UNL     1      -1.365  11.489  19.914  0.00  0.00    +0.000 C 
ATOM     17  C   UNL     1      -1.671  12.925  20.329  0.00  0.00    +0.000 C 
ATOM     18  C   UNL     1      -1.080  13.268  21.694  0.00  0.00    +0.000 C 
ATOM     19  C   UNL     1       0.348  13.802  21.628  0.00  0.00    +0.000 C 
ENDBRANCH  10  13
BRANCH   3  20
ATOM     20  S   UNL     1       8.860  15.642  19.084  0.00  0.00    +0.000 S 
ATOM     21  O   UNL     1       8.771  16.522  17.928  0.00  0.00    +0.000 OA
ATOM     22  O   UNL     1       9.659  16.075  20.221  0.00  0.00    +0.000 OA
BRANCH  20  23
ATOM     23  C   UNL     1       9.574  14.111  18.469  0.00  0.00    +0.000 A 
ATOM     24  C   UNL     1       9.062  12.899  18.974  0.00  0.00    +0.000 A 
ATOM     25  C   UNL     1       9.619  11.672  18.592  0.00  0.00    +0.000 A 
ATOM     26  C   UNL     1       9.147  10.379  19.190  0.00  0.00    +0.000 C 
ATOM     27  C   UNL     1      10.669  11.664  17.670  0.00  0.00    +0.000 A 
ATOM     28  C   UNL     1      11.173  12.862  17.159  0.00  0.00    +0.000 A 
ATOM     29  C   UNL     1      10.653  14.104  17.562  0.00  0.00    +0.000 A 
ATOM     30  C   UNL     1      11.300  15.348  17.025  0.00  0.00    +0.000 C 
ENDBRANCH  20  23
ENDBRANCH   3  20
BRANCH   1  31
ATOM     31  C   UNL     1       5.688  14.636  23.013  0.00  0.00    +0.000 C 
BRANCH  31  33
ATOM     32  C   UNL     1       6.150  12.211  23.547  0.00  0.00    +0.000 C 
ATOM     33  C   UNL     1       6.703  13.627  23.560  0.00  0.00    +0.000 C 
ENDBRANCH  31  33
ENDBRANCH   1  31
TORSDOF 5
ENDMDL
MODEL 9
REMARK VINA RESULT:      -7.4      2.686      4.384
REMARK  Name = 
REMARK  8 active torsions:
REMARK  status: ('A' for Active; 'I' for Inactive)
REMARK    1  A    between atoms: C_1  and  C_2
REMARK    2  A    between atoms: C_2  and  C_3
REMARK    3  A    between atoms: C_3  and  N_4
REMARK    4  A    between atoms: C_6  and  S_7
REMARK    5  A    between atoms: S_7  and  C_10
REMARK    6  A    between atoms: C_12  and  C_13
REMARK    7  A    between atoms: C_16  and  C_17
REMARK    8  A    between atoms: C_24  and  N_25
REMARK                            x       y       z     vdW  Elec       q    Type
REMARK                         _______ _______ _______ _____ _____    ______ ____
ROOT
ATOM      1  N   UNL     1       0.604   9.416  20.664  0.00  0.00    +0.000 N 
ATOM      2  C   UNL     1       0.506  10.807  20.700  0.00  0.00    +0.000 A 
ATOM      3  C   UNL     1       1.043  11.659  19.811  0.00  0.00    +0.000 A 
ATOM      4  C   UNL     1       1.828  11.098  18.712  0.00  0.00    +0.000 A 
ATOM      5  O   UNL     1       2.381  11.799  17.876  0.00  0.00    +0.000 OA
ATOM      6  C   UNL     1       1.963   9.627  18.653  0.00  0.00    +0.000 A 
ATOM      7  C   UNL     1       2.718   9.093  17.615  0.00  0.00    +0.000 A 
ATOM      8  C   UNL     1       2.975   7.734  17.596  0.00  0.00    +0.000 A 
ATOM      9  F   UNL     1       3.717   7.288  16.569  0.00  0.00    +0.000 F 
ATOM     10  C   UNL     1       2.505   6.856  18.596  0.00  0.00    +0.000 A 
ATOM     11  C   UNL     1       1.661   7.428  19.575  0.00  0.00    +0.000 A 
ATOM     12  C   UNL     1       1.383   8.813  19.645  0.00  0.00    +0.000 A 
ENDROOT
BRANCH  10  13
ATOM     13  N   UNL     1       2.910   5.517  18.676  0.00  0.00    +0.000 N 
ATOM     14  C   UNL     1       2.404   4.496  17.756  0.00  0.00    +0.000 C 
ATOM     15  C   UNL     1       1.375   3.594  18.444  0.00  0.00    +0.000 C 
ATOM     16  C   UNL     1       1.964   2.591  19.436  0.00  0.00    +0.000 C 
ATOM     17  C   UNL     1       2.823   3.202  20.538  0.00  0.00    +0.000 C 
ATOM     18  C   UNL     1       4.141   3.753  20.002  0.00  0.00    +0.000 C 
ATOM     19  C   UNL     1       4.057   5.204  19.536  0.00  0.00    +0.000 C 
ENDBRANCH  10  13
BRANCH   3  20
ATOM     20  S   UNL     1       0.890  13.358  20.030  0.00  0.00    +0.000 S 
ATOM     21  O   UNL     1       2.020  13.851  20.803  0.00  0.00    +0.000 OA
ATOM     22  O   UNL     1       0.630  13.957  18.729  0.00  0.00    +0.000 OA
BRANCH  20  23
ATOM     23  C   UNL     1      -0.557  13.643  21.059  0.00  0.00    +0.000 A 
ATOM     24  C   UNL     1      -0.354  14.219  22.329  0.00  0.00    +0.000 A 
ATOM     25  C   UNL     1      -1.428  14.404  23.210  0.00  0.00    +0.000 A 
ATOM     26  C   UNL     1      -1.217  14.930  24.600  0.00  0.00    +0.000 C 
ATOM     27  C   UNL     1      -2.712  14.044  22.796  0.00  0.00    +0.000 A 
ATOM     28  C   UNL     1      -2.918  13.482  21.534  0.00  0.00    +0.000 A 
ATOM     29  C   UNL     1      -1.849  13.252  20.653  0.00  0.00    +0.000 A 
ATOM     30  C   UNL     1      -2.143  12.575  19.345  0.00  0.00    +0.000 C 
ENDBRANCH  20  23
ENDBRANCH   3  20
BRANCH   1  31
ATOM     31  C   UNL     1      -0.014   8.577  21.712  0.00  0.00    +0.000 C 
BRANCH  31  33
ATOM     32  C   UNL     1      -1.039  10.332  23.213  0.00  0.00    +0.000 C 
ATOM     33  C   UNL     1       0.039   9.268  23.079  0.00  0.00    +0.000 C 
ENDBRANCH  31  33
ENDBRANCH   1  31
TORSDOF 5
ENDMDL
