MODEL 1
REMARK VINA RESULT:      -8.2      0.000      0.000
REMARK  Name = 
REMARK  5 active torsions:
REMARK  status: ('A' for Active; 'I' for Inactive)
REMARK    1  A    between atoms: C_2  and  C_19
REMARK    2  A    between atoms: N_3  and  C_4
REMARK    3  A    between atoms: C_4  and  C_5
REMARK    4  A    between atoms: C_10  and  C_11
REMARK    5  A    between atoms: N_13  and  O_14
REMARK                            x       y       z     vdW  Elec       q    Type
REMARK                         _______ _______ _______ _____ _____    ______ ____
ROOT
ATOM      1  C   UNL     1       1.837   8.609  19.069  0.00  0.00    +0.000 A 
ATOM      2  C   UNL     1       1.332   8.228  20.311  0.00  0.00    +0.000 A 
ATOM      3  C   UNL     1       1.577   6.946  20.827  0.00  0.00    +0.000 A 
ATOM      4  C   UNL     1       2.357   6.015  20.098  0.00  0.00    +0.000 A 
ATOM      5  C   UNL     1       2.748   4.662  20.399  0.00  0.00    +0.000 A 
ATOM      6  C   UNL     1       3.527   4.086  19.412  0.00  0.00    +0.000 A 
ATOM      7  S   UNL     1       3.788   5.178  18.124  0.00  0.00    +0.000 S 
ATOM      8  C   UNL     1       2.868   6.418  18.864  0.00  0.00    +0.000 A 
ATOM      9  C   UNL     1       2.618   7.701  18.350  0.00  0.00    +0.000 A 
ATOM     10  F   UNL     1       3.128   8.060  17.162  0.00  0.00    +0.000 F 
ENDROOT
BRANCH   6  11
ATOM     11  C   UNL     1       4.095   2.746  19.384  0.00  0.00    +0.000 C 
ATOM     12  O   UNL     1       4.816   2.286  20.270  0.00  0.00    +0.000 OA
ATOM     13  N   UNL     1       3.779   1.987  18.278  0.00  0.00    +0.000 N 
ATOM     14  H   UNL     1       3.193   2.321  17.522  0.00  0.00    +0.000 HD
BRANCH  13  15
ATOM     15  O   UNL     1       4.296   0.681  18.181  0.00  0.00    +0.000 OA
ATOM     16  H   UNL     1       5.054   0.799  17.563  0.00  0.00    +0.000 HD
ENDBRANCH  13  15
ENDBRANCH   6  11
BRANCH   1  17
ATOM     17  C   UNL     1       1.571   9.978  18.509  0.00  0.00    +0.000 C 
BRANCH  17  20
ATOM     18  O   UNL     1      -0.882  11.082  19.427  0.00  0.00    +0.000 OA
ATOM     19  C   UNL     1      -0.824  10.582  18.309  0.00  0.00    +0.000 C 
ATOM     20  N   UNL     1       0.323  10.030  17.792  0.00  0.00    +0.000 N 
ATOM     21  H   UNL     1       0.336   9.746  16.825  0.00  0.00    +0.000 HD
BRANCH  19  22
ATOM     22  C   UNL     1      -1.963  10.530  17.412  0.00  0.00    +0.000 A 
ATOM     23  C   UNL     1      -3.095   9.730  17.415  0.00  0.00    +0.000 A 
ATOM     24  C   UNL     1      -3.893  10.078  16.301  0.00  0.00    +0.000 A 
ATOM     25  C   UNL     1      -3.246  11.095  15.641  0.00  0.00    +0.000 A 
ATOM     26  N   UNL     1      -2.091  11.375  16.326  0.00  0.00    +0.000 N 
ATOM     27  H   UNL     1      -1.413  12.086  16.079  0.00  0.00    +0.000 HD
ENDBRANCH  19  22
ENDBRANCH  17  20
ENDBRANCH   1  17
TORSDOF 5
ENDMDL
MODEL 2
REMARK VINA RESULT:      -8.0      1.351      1.761
REMARK  Name = 
REMARK  5 active torsions:
REMARK  status: ('A' for Active; 'I' for Inactive)
REMARK    1  A    between atoms: C_2  and  C_19
REMARK    2  A    between atoms: N_3  and  C_4
REMARK    3  A    between atoms: C_4  and  C_5
REMARK    4  A    between atoms: C_10  and  C_11
REMARK    5  A    between atoms: N_13  and  O_14
REMARK                            x       y       z     vdW  Elec       q    Type
REMARK                         _______ _______ _______ _____ _____    ______ ____
ROOT
ATOM      1  C   UNL     1       1.791   8.603  19.059  0.00  0.00    +0.000 A 
ATOM      2  C   UNL     1       2.507   8.599  17.863  0.00  0.00    +0.000 A 
ATOM      3  C   UNL     1       3.255   7.477  17.474  0.00  0.00    +0.000 A 
ATOM      4  C   UNL     1       3.286   6.317  18.287  0.00  0.00    +0.000 A 
ATOM      5  C   UNL     1       3.963   5.057  18.118  0.00  0.00    +0.000 A 
ATOM      6  C   UNL     1       3.730   4.168  19.152  0.00  0.00    +0.000 A 
ATOM      7  S   UNL     1       2.694   4.855  20.326  0.00  0.00    +0.000 S 
ATOM      8  C   UNL     1       2.551   6.332  19.472  0.00  0.00    +0.000 A 
ATOM      9  C   UNL     1       1.806   7.459  19.859  0.00  0.00    +0.000 A 
ATOM     10  F   UNL     1       1.105   7.439  21.003  0.00  0.00    +0.000 F 
ENDROOT
BRANCH   6  11
ATOM     11  C   UNL     1       4.247   2.817  19.308  0.00  0.00    +0.000 C 
ATOM     12  O   UNL     1       4.960   2.457  20.245  0.00  0.00    +0.000 OA
ATOM     13  N   UNL     1       3.892   1.925  18.319  0.00  0.00    +0.000 N 
ATOM     14  H   UNL     1       3.311   2.173  17.527  0.00  0.00    +0.000 HD
BRANCH  13  15
ATOM     15  O   UNL     1       4.359   0.599  18.402  0.00  0.00    +0.000 OA
ATOM     16  H   UNL     1       5.143   0.614  17.806  0.00  0.00    +0.000 HD
ENDBRANCH  13  15
ENDBRANCH   6  11
BRANCH   1  17
ATOM     17  C   UNL     1       0.994   9.805  19.483  0.00  0.00    +0.000 C 
BRANCH  17  20
ATOM     18  O   UNL     1      -1.360  11.297  20.045  0.00  0.00    +0.000 OA
ATOM     19  C   UNL     1      -1.210  10.798  18.935  0.00  0.00    +0.000 C 
ATOM     20  N   UNL     1      -0.101  10.065  18.584  0.00  0.00    +0.000 N 
ATOM     21  H   UNL     1       0.016   9.787  17.624  0.00  0.00    +0.000 HD
BRANCH  19  22
ATOM     22  C   UNL     1      -2.187  10.938  17.873  0.00  0.00    +0.000 A 
ATOM     23  C   UNL     1      -3.501  11.379  17.889  0.00  0.00    +0.000 A 
ATOM     24  C   UNL     1      -4.016  11.305  16.575  0.00  0.00    +0.000 A 
ATOM     25  C   UNL     1      -3.006  10.835  15.770  0.00  0.00    +0.000 A 
ATOM     26  N   UNL     1      -1.900  10.632  16.556  0.00  0.00    +0.000 N 
ATOM     27  H   UNL     1      -1.000  10.295  16.236  0.00  0.00    +0.000 HD
ENDBRANCH  19  22
ENDBRANCH  17  20
ENDBRANCH   1  17
TORSDOF 5
ENDMDL
MODEL 3
REMARK VINA RESULT:      -7.9      1.024      1.132
REMARK  Name = 
REMARK  5 active torsions:
REMARK  status: ('A' for Active; 'I' for Inactive)
REMARK    1  A    between atoms: C_2  and  C_19
REMARK    2  A    between atoms: N_3  and  C_4
REMARK    3  A    between atoms: C_4  and  C_5
REMARK    4  A    between atoms: C_10  and  C_11
REMARK    5  A    between atoms: N_13  and  O_14
REMARK                            x       y       z     vdW  Elec       q    Type
REMARK                         _______ _______ _______ _____ _____    ______ ____
ROOT
ATOM      1  C   UNL     1       1.603   8.925  19.081  0.00  0.00    +0.000 A 
ATOM      2  C   UNL     1       1.157   8.634  20.370  0.00  0.00    +0.000 A 
ATOM      3  C   UNL     1       1.344   7.360  20.927  0.00  0.00    +0.000 A 
ATOM      4  C   UNL     1       2.004   6.344  20.193  0.00  0.00    +0.000 A 
ATOM      5  C   UNL     1       2.317   4.979  20.530  0.00  0.00    +0.000 A 
ATOM      6  C   UNL     1       2.985   4.306  19.522  0.00  0.00    +0.000 A 
ATOM      7  S   UNL     1       3.235   5.323  18.171  0.00  0.00    +0.000 S 
ATOM      8  C   UNL     1       2.458   6.657  18.912  0.00  0.00    +0.000 A 
ATOM      9  C   UNL     1       2.266   7.933  18.356  0.00  0.00    +0.000 A 
ATOM     10  F   UNL     1       2.719   8.203  17.123  0.00  0.00    +0.000 F 
ENDROOT
BRANCH   6  11
ATOM     11  C   UNL     1       3.452   2.928  19.520  0.00  0.00    +0.000 C 
ATOM     12  O   UNL     1       2.749   1.964  19.217  0.00  0.00    +0.000 OA
ATOM     13  N   UNL     1       4.766   2.743  19.890  0.00  0.00    +0.000 N 
ATOM     14  H   UNL     1       5.384   3.503  20.151  0.00  0.00    +0.000 HD
BRANCH  13  15
ATOM     15  O   UNL     1       5.287   1.435  19.914  0.00  0.00    +0.000 OA
ATOM     16  H   UNL     1       4.696   0.961  19.285  0.00  0.00    +0.000 HD
ENDBRANCH  13  15
ENDBRANCH   6  11
BRANCH   1  17
ATOM     17  C   UNL     1       1.397  10.286  18.478  0.00  0.00    +0.000 C 
BRANCH  17  20
ATOM     18  O   UNL     1      -0.810  11.815  19.411  0.00  0.00    +0.000 OA
ATOM     19  C   UNL     1      -0.916  11.168  18.374  0.00  0.00    +0.000 C 
ATOM     20  N   UNL     1       0.103  10.406  17.856  0.00  0.00    +0.000 N 
ATOM     21  H   UNL     1      -0.007   9.998  16.942  0.00  0.00    +0.000 HD
BRANCH  19  22
ATOM     22  C   UNL     1      -2.131  11.148  17.582  0.00  0.00    +0.000 A 
ATOM     23  C   UNL     1      -2.414  10.572  16.354  0.00  0.00    +0.000 A 
ATOM     24  C   UNL     1      -3.757  10.864  16.020  0.00  0.00    +0.000 A 
ATOM     25  C   UNL     1      -4.280  11.601  17.055  0.00  0.00    +0.000 A 
ATOM     26  N   UNL     1      -3.300  11.755  18.002  0.00  0.00    +0.000 N 
ATOM     27  H   UNL     1      -3.398  12.248  18.882  0.00  0.00    +0.000 HD
ENDBRANCH  19  22
ENDBRANCH  17  20
ENDBRANCH   1  17
TORSDOF 5
ENDMDL
MODEL 4
REMARK VINA RESULT:      -7.9      1.347      1.894
REMARK  Name = 
REMARK  5 active torsions:
REMARK  status: ('A' for Active; 'I' for Inactive)
REMARK    1  A    between atoms: C_2  and  C_19
REMARK    2  A    between atoms: N_3  and  C_4
REMARK    3  A    between atoms: C_4  and  C_5
REMARK    4  A    between atoms: C_10  and  C_11
REMARK    5  A    between atoms: N_13  and  O_14
REMARK                            x       y       z     vdW  Elec       q    Type
REMARK                         _______ _______ _______ _____ _____    ______ ____
ROOT
ATOM      1  C   UNL     1       2.184   8.448  18.618  0.00  0.00    +0.000 A 
ATOM      2  C   UNL     1       2.978   8.325  17.478  0.00  0.00    +0.000 A 
ATOM      3  C   UNL     1       3.636   7.121  17.184  0.00  0.00    +0.000 A 
ATOM      4  C   UNL     1       3.495   5.998  18.036  0.00  0.00    +0.000 A 
ATOM      5  C   UNL     1       4.054   4.673  17.962  0.00  0.00    +0.000 A 
ATOM      6  C   UNL     1       3.663   3.855  19.007  0.00  0.00    +0.000 A 
ATOM      7  S   UNL     1       2.622   4.687  20.077  0.00  0.00    +0.000 S 
ATOM      8  C   UNL     1       2.685   6.134  19.164  0.00  0.00    +0.000 A 
ATOM      9  C   UNL     1       2.030   7.342  19.456  0.00  0.00    +0.000 A 
ATOM     10  F   UNL     1       1.254   7.439  20.546  0.00  0.00    +0.000 F 
ENDROOT
BRANCH   6  11
ATOM     11  C   UNL     1       4.032   2.468  19.247  0.00  0.00    +0.000 C 
ATOM     12  O   UNL     1       3.457   1.506  18.738  0.00  0.00    +0.000 OA
ATOM     13  N   UNL     1       5.092   2.273  20.106  0.00  0.00    +0.000 N 
ATOM     14  H   UNL     1       5.595   3.031  20.552  0.00  0.00    +0.000 HD
BRANCH  13  15
ATOM     15  O   UNL     1       5.503   0.956  20.388  0.00  0.00    +0.000 OA
ATOM     16  H   UNL     1       4.702   0.572  20.813  0.00  0.00    +0.000 HD
ENDBRANCH  13  15
ENDBRANCH   6  11
BRANCH   1  17
ATOM     17  C   UNL     1       1.483   9.739  18.940  0.00  0.00    +0.000 C 
BRANCH  17  20
ATOM     18  O   UNL     1      -1.078  10.609  19.815  0.00  0.00    +0.000 OA
ATOM     19  C   UNL     1      -0.898  10.351  18.630  0.00  0.00    +0.000 C 
ATOM     20  N   UNL     1       0.309   9.927  18.128  0.00  0.00    +0.000 N 
ATOM     21  H   UNL     1       0.423   9.850  17.130  0.00  0.00    +0.000 HD
BRANCH  19  22
ATOM     22  C   UNL     1      -1.943  10.476  17.632  0.00  0.00    +0.000 A 
ATOM     23  C   UNL     1      -3.145   9.804  17.475  0.00  0.00    +0.000 A 
ATOM     24  C   UNL     1      -3.791  10.303  16.321  0.00  0.00    +0.000 A 
ATOM     25  C   UNL     1      -2.983  11.284  15.797  0.00  0.00    +0.000 A 
ATOM     26  N   UNL     1      -1.878  11.395  16.601  0.00  0.00    +0.000 N 
ATOM     27  H   UNL     1      -1.111  12.044  16.468  0.00  0.00    +0.000 HD
ENDBRANCH  19  22
ENDBRANCH  17  20
ENDBRANCH   1  17
TORSDOF 5
ENDMDL
MODEL 5
REMARK VINA RESULT:      -7.7      1.107      1.307
REMARK  Name = 
REMARK  5 active torsions:
REMARK  status: ('A' for Active; 'I' for Inactive)
REMARK    1  A    between atoms: C_2  and  C_19
REMARK    2  A    between atoms: N_3  and  C_4
REMARK    3  A    between atoms: C_4  and  C_5
REMARK    4  A    between atoms: C_10  and  C_11
REMARK    5  A    between atoms: N_13  and  O_14
REMARK                            x       y       z     vdW  Elec       q    Type
REMARK                         _______ _______ _______ _____ _____    ______ ____
ROOT
ATOM      1  C   UNL     1       2.262   8.143  18.752  0.00  0.00    +0.000 A 
ATOM      2  C   UNL     1       1.724   7.847  20.004  0.00  0.00    +0.000 A 
ATOM      3  C   UNL     1       1.883   6.575  20.575  0.00  0.00    +0.000 A 
ATOM      4  C   UNL     1       2.608   5.566  19.894  0.00  0.00    +0.000 A 
ATOM      5  C   UNL     1       2.910   4.205  20.254  0.00  0.00    +0.000 A 
ATOM      6  C   UNL     1       3.660   3.540  19.301  0.00  0.00    +0.000 A 
ATOM      7  S   UNL     1       3.999   4.559  17.971  0.00  0.00    +0.000 S 
ATOM      8  C   UNL     1       3.153   5.884  18.650  0.00  0.00    +0.000 A 
ATOM      9  C   UNL     1       2.989   7.158  18.080  0.00  0.00    +0.000 A 
ATOM     10  F   UNL     1       3.530   7.434  16.884  0.00  0.00    +0.000 F 
ENDROOT
BRANCH   6  11
ATOM     11  C   UNL     1       4.141   2.167  19.335  0.00  0.00    +0.000 C 
ATOM     12  O   UNL     1       3.733   1.276  18.590  0.00  0.00    +0.000 OA
ATOM     13  N   UNL     1       5.110   1.898  20.278  0.00  0.00    +0.000 N 
ATOM     14  H   UNL     1       5.476   2.596  20.915  0.00  0.00    +0.000 HD
BRANCH  13  15
ATOM     15  O   UNL     1       5.621   0.590  20.371  0.00  0.00    +0.000 OA
ATOM     16  H   UNL     1       5.110   0.218  21.127  0.00  0.00    +0.000 HD
ENDBRANCH  13  15
ENDBRANCH   6  11
BRANCH   1  17
ATOM     17  C   UNL     1       2.087   9.501  18.133  0.00  0.00    +0.000 C 
BRANCH  17  20
ATOM     18  O   UNL     1       0.257  11.102  19.607  0.00  0.00    +0.000 OA
ATOM     19  C   UNL     1      -0.113  10.554  18.574  0.00  0.00    +0.000 C 
ATOM     20  N   UNL     1       0.710   9.767  17.805  0.00  0.00    +0.000 N 
ATOM     21  H   UNL     1       0.381   9.446  16.908  0.00  0.00    +0.000 HD
BRANCH  19  22
ATOM     22  C   UNL     1      -1.460  10.688  18.053  0.00  0.00    +0.000 A 
ATOM     23  C   UNL     1      -2.049  10.196  16.899  0.00  0.00    +0.000 A 
ATOM     24  C   UNL     1      -3.392  10.634  16.859  0.00  0.00    +0.000 A 
ATOM     25  C   UNL     1      -3.611  11.374  17.996  0.00  0.00    +0.000 A 
ATOM     26  N   UNL     1      -2.447  11.389  18.720  0.00  0.00    +0.000 N 
ATOM     27  H   UNL     1      -2.309  11.850  19.612  0.00  0.00    +0.000 HD
ENDBRANCH  19  22
ENDBRANCH  17  20
ENDBRANCH   1  17
TORSDOF 5
ENDMDL
MODEL 6
REMARK VINA RESULT:      -7.6      1.810      2.256
REMARK  Name = 
REMARK  5 active torsions:
REMARK  status: ('A' for Active; 'I' for Inactive)
REMARK    1  A    between atoms: C_2  and  C_19
REMARK    2  A    between atoms: N_3  and  C_4
REMARK    3  A    between atoms: C_4  and  C_5
REMARK    4  A    between atoms: C_10  and  C_11
REMARK    5  A    between atoms: N_13  and  O_14
REMARK                            x       y       z     vdW  Elec       q    Type
REMARK                         _______ _______ _______ _____ _____    ______ ____
ROOT
ATOM      1  C   UNL     1       1.442   9.094  19.384  0.00  0.00    +0.000 A 
ATOM      2  C   UNL     1       1.968   9.219  18.099  0.00  0.00    +0.000 A 
ATOM      3  C   UNL     1       2.678   8.165  17.504  0.00  0.00    +0.000 A 
ATOM      4  C   UNL     1       2.865   6.943  18.197  0.00  0.00    +0.000 A 
ATOM      5  C   UNL     1       3.543   5.731  17.818  0.00  0.00    +0.000 A 
ATOM      6  C   UNL     1       3.495   4.750  18.793  0.00  0.00    +0.000 A 
ATOM      7  S   UNL     1       2.631   5.294  20.164  0.00  0.00    +0.000 S 
ATOM      8  C   UNL     1       2.319   6.830  19.475  0.00  0.00    +0.000 A 
ATOM      9  C   UNL     1       1.610   7.889  20.068  0.00  0.00    +0.000 A 
ATOM     10  F   UNL     1       1.093   7.745  21.297  0.00  0.00    +0.000 F 
ENDROOT
BRANCH   6  11
ATOM     11  C   UNL     1       4.067   3.413  18.749  0.00  0.00    +0.000 C 
ATOM     12  O   UNL     1       4.036   2.683  17.758  0.00  0.00    +0.000 OA
ATOM     13  N   UNL     1       4.665   2.982  19.914  0.00  0.00    +0.000 N 
ATOM     14  H   UNL     1       4.714   3.543  20.756  0.00  0.00    +0.000 HD
BRANCH  13  15
ATOM     15  O   UNL     1       5.238   1.696  19.947  0.00  0.00    +0.000 OA
ATOM     16  H   UNL     1       4.572   1.182  20.459  0.00  0.00    +0.000 HD
ENDBRANCH  13  15
ENDBRANCH   6  11
BRANCH   1  17
ATOM     17  C   UNL     1       0.686  10.224  20.027  0.00  0.00    +0.000 C 
BRANCH  17  20
ATOM     18  O   UNL     1      -0.179  12.433  18.462  0.00  0.00    +0.000 OA
ATOM     19  C   UNL     1      -0.954  11.509  18.686  0.00  0.00    +0.000 C 
ATOM     20  N   UNL     1      -0.612  10.406  19.430  0.00  0.00    +0.000 N 
ATOM     21  H   UNL     1      -1.252   9.630  19.475  0.00  0.00    +0.000 HD
BRANCH  19  22
ATOM     22  C   UNL     1      -2.312  11.483  18.177  0.00  0.00    +0.000 A 
ATOM     23  C   UNL     1      -2.845  10.944  17.017  0.00  0.00    +0.000 A 
ATOM     24  C   UNL     1      -4.234  11.209  16.997  0.00  0.00    +0.000 A 
ATOM     25  C   UNL     1      -4.533  11.891  18.152  0.00  0.00    +0.000 A 
ATOM     26  N   UNL     1      -3.373  12.039  18.868  0.00  0.00    +0.000 N 
ATOM     27  H   UNL     1      -3.286  12.495  19.768  0.00  0.00    +0.000 HD
ENDBRANCH  19  22
ENDBRANCH  17  20
ENDBRANCH   1  17
TORSDOF 5
ENDMDL
MODEL 7
REMARK VINA RESULT:      -7.5      4.313      8.257
REMARK  Name = 
REMARK  5 active torsions:
REMARK  status: ('A' for Active; 'I' for Inactive)
REMARK    1  A    between atoms: C_2  and  C_19
REMARK    2  A    between atoms: N_3  and  C_4
REMARK    3  A    between atoms: C_4  and  C_5
REMARK    4  A    between atoms: C_10  and  C_11
REMARK    5  A    between atoms: N_13  and  O_14
REMARK                            x       y       z     vdW  Elec       q    Type
REMARK                         _______ _______ _______ _____ _____    ______ ____
ROOT
ATOM      1  C   UNL     1       5.432   5.093  17.565  0.00  0.00    +0.000 A 
ATOM      2  C   UNL     1       4.928   4.493  18.719  0.00  0.00    +0.000 A 
ATOM      3  C   UNL     1       3.890   5.093  19.448  0.00  0.00    +0.000 A 
ATOM      4  C   UNL     1       3.323   6.318  19.018  0.00  0.00    +0.000 A 
ATOM      5  C   UNL     1       2.269   7.125  19.576  0.00  0.00    +0.000 A 
ATOM      6  C   UNL     1       2.006   8.267  18.840  0.00  0.00    +0.000 A 
ATOM      7  S   UNL     1       3.031   8.363  17.475  0.00  0.00    +0.000 S 
ATOM      8  C   UNL     1       3.829   6.896  17.853  0.00  0.00    +0.000 A 
ATOM      9  C   UNL     1       4.870   6.293  17.128  0.00  0.00    +0.000 A 
ATOM     10  F   UNL     1       5.331   6.873  16.008  0.00  0.00    +0.000 F 
ENDROOT
BRANCH   6  11
ATOM     11  C   UNL     1       1.016   9.299  19.108  0.00  0.00    +0.000 C 
ATOM     12  O   UNL     1       0.472   9.464  20.200  0.00  0.00    +0.000 OA
ATOM     13  N   UNL     1       0.700  10.113  18.042  0.00  0.00    +0.000 N 
ATOM     14  H   UNL     1       1.117  10.016  17.123  0.00  0.00    +0.000 HD
BRANCH  13  15
ATOM     15  O   UNL     1      -0.253  11.133  18.226  0.00  0.00    +0.000 OA
ATOM     16  H   UNL     1      -0.286  11.553  17.335  0.00  0.00    +0.000 HD
ENDBRANCH  13  15
ENDBRANCH   6  11
BRANCH   1  17
ATOM     17  C   UNL     1       6.549   4.457  16.785  0.00  0.00    +0.000 C 
BRANCH  17  20
ATOM     18  O   UNL     1       7.476   5.209  14.205  0.00  0.00    +0.000 OA
ATOM     19  C   UNL     1       6.593   4.364  14.309  0.00  0.00    +0.000 C 
ATOM     20  N   UNL     1       6.093   3.946  15.518  0.00  0.00    +0.000 N 
ATOM     21  H   UNL     1       5.457   3.164  15.540  0.00  0.00    +0.000 HD
BRANCH  19  22
ATOM     22  C   UNL     1       5.992   3.712  13.161  0.00  0.00    +0.000 A 
ATOM     23  C   UNL     1       4.747   3.862  12.571  0.00  0.00    +0.000 A 
ATOM     24  C   UNL     1       4.658   2.970  11.478  0.00  0.00    +0.000 A 
ATOM     25  C   UNL     1       5.855   2.298  11.406  0.00  0.00    +0.000 A 
ATOM     26  N   UNL     1       6.661   2.762  12.413  0.00  0.00    +0.000 N 
ATOM     27  H   UNL     1       7.609   2.457  12.602  0.00  0.00    +0.000 HD
ENDBRANCH  19  22
ENDBRANCH  17  20
ENDBRANCH   1  17
TORSDOF 5
ENDMDL
MODEL 8
REMARK VINA RESULT:      -7.5      4.229      8.260
REMARK  Name = 
REMARK  5 active torsions:
REMARK  status: ('A' for Active; 'I' for Inactive)
REMARK    1  A    between atoms: C_2  and  C_19
REMARK    2  A    between atoms: N_3  and  C_4
REMARK    3  A    between atoms: C_4  and  C_5
REMARK    4  A    between atoms: C_10  and  C_11
REMARK    5  A    between atoms: N_13  and  O_14
REMARK                            x       y       z     vdW  Elec       q    Type
REMARK                         _______ _______ _______ _____ _____    ______ ____
ROOT
ATOM      1  C   UNL     1       4.012   5.429  17.944  0.00  0.00    +0.000 A 
ATOM      2  C   UNL     1       3.997   6.547  17.111  0.00  0.00    +0.000 A 
ATOM      3  C   UNL     1       3.276   7.699  17.463  0.00  0.00    +0.000 A 
ATOM      4  C   UNL     1       2.558   7.753  18.683  0.00  0.00    +0.000 A 
ATOM      5  C   UNL     1       1.754   8.796  19.267  0.00  0.00    +0.000 A 
ATOM      6  C   UNL     1       1.218   8.450  20.494  0.00  0.00    +0.000 A 
ATOM      7  S   UNL     1       1.685   6.868  20.941  0.00  0.00    +0.000 S 
ATOM      8  C   UNL     1       2.598   6.632  19.512  0.00  0.00    +0.000 A 
ATOM      9  C   UNL     1       3.318   5.480  19.154  0.00  0.00    +0.000 A 
ATOM     10  F   UNL     1       3.340   4.420  19.977  0.00  0.00    +0.000 F 
ENDROOT
BRANCH   6  11
ATOM     11  C   UNL     1       0.366   9.253  21.358  0.00  0.00    +0.000 C 
ATOM     12  O   UNL     1      -0.619   9.879  20.965  0.00  0.00    +0.000 OA
ATOM     13  N   UNL     1       0.727   9.285  22.688  0.00  0.00    +0.000 N 
ATOM     14  H   UNL     1       1.529   8.790  23.060  0.00  0.00    +0.000 HD
BRANCH  13  15
ATOM     15  O   UNL     1      -0.050  10.044  23.584  0.00  0.00    +0.000 OA
ATOM     16  H   UNL     1      -0.968   9.773  23.349  0.00  0.00    +0.000 HD
ENDBRANCH  13  15
ENDBRANCH   6  11
BRANCH   1  17
ATOM     17  C   UNL     1       4.777   4.191  17.568  0.00  0.00    +0.000 C 
BRANCH  17  20
ATOM     18  O   UNL     1       7.457   4.650  16.738  0.00  0.00    +0.000 OA
ATOM     19  C   UNL     1       6.582   4.483  15.895  0.00  0.00    +0.000 C 
ATOM     20  N   UNL     1       5.265   4.255  16.214  0.00  0.00    +0.000 N 
ATOM     21  H   UNL     1       4.621   4.005  15.481  0.00  0.00    +0.000 HD
BRANCH  19  22
ATOM     22  C   UNL     1       6.851   4.502  14.470  0.00  0.00    +0.000 A 
ATOM     23  C   UNL     1       6.308   3.770  13.426  0.00  0.00    +0.000 A 
ATOM     24  C   UNL     1       6.936   4.170  12.224  0.00  0.00    +0.000 A 
ATOM     25  C   UNL     1       7.843   5.150  12.547  0.00  0.00    +0.000 A 
ATOM     26  N   UNL     1       7.775   5.359  13.901  0.00  0.00    +0.000 N 
ATOM     27  H   UNL     1       8.323   6.030  14.426  0.00  0.00    +0.000 HD
ENDBRANCH  19  22
ENDBRANCH  17  20
ENDBRANCH   1  17
TORSDOF 5
ENDMDL
MODEL 9
REMARK VINA RESULT:      -7.5      4.480      8.224
REMARK  Name = 
REMARK  5 active torsions:
REMARK  status: ('A' for Active; 'I' for Inactive)
REMARK    1  A    between atoms: C_2  and  C_19
REMARK    2  A    between atoms: N_3  and  C_4
REMARK    3  A    between atoms: C_4  and  C_5
REMARK    4  A    between atoms: C_10  and  C_11
REMARK    5  A    between atoms: N_13  and  O_14
REMARK                            x       y       z     vdW  Elec       q    Type
REMARK                         _______ _______ _______ _____ _____    ______ ____
ROOT
ATOM      1  C   UNL     1       5.579   4.930  17.360  0.00  0.00    +0.000 A 
ATOM      2  C   UNL     1       5.146   4.221  18.481  0.00  0.00    +0.000 A 
ATOM      3  C   UNL     1       4.131   4.727  19.306  0.00  0.00    +0.000 A 
ATOM      4  C   UNL     1       3.514   5.968  19.009  0.00  0.00    +0.000 A 
ATOM      5  C   UNL     1       2.469   6.695  19.682  0.00  0.00    +0.000 A 
ATOM      6  C   UNL     1       2.142   7.886  19.060  0.00  0.00    +0.000 A 
ATOM      7  S   UNL     1       3.096   8.125  17.662  0.00  0.00    +0.000 S 
ATOM      8  C   UNL     1       3.948   6.655  17.876  0.00  0.00    +0.000 A 
ATOM      9  C   UNL     1       4.967   6.146  17.053  0.00  0.00    +0.000 A 
ATOM     10  F   UNL     1       5.358   6.831  15.967  0.00  0.00    +0.000 F 
ENDROOT
BRANCH   6  11
ATOM     11  C   UNL     1       1.141   8.863  19.461  0.00  0.00    +0.000 C 
ATOM     12  O   UNL     1       0.657   9.702  18.701  0.00  0.00    +0.000 OA
ATOM     13  N   UNL     1       0.748   8.807  20.780  0.00  0.00    +0.000 N 
ATOM     14  H   UNL     1       1.119   8.137  21.445  0.00  0.00    +0.000 HD
BRANCH  13  15
ATOM     15  O   UNL     1      -0.216   9.724  21.241  0.00  0.00    +0.000 OA
ATOM     16  H   UNL     1      -0.432  10.230  20.424  0.00  0.00    +0.000 HD
ENDBRANCH  13  15
ENDBRANCH   6  11
BRANCH   1  17
ATOM     17  C   UNL     1       6.672   4.395  16.477  0.00  0.00    +0.000 C 
BRANCH  17  20
ATOM     18  O   UNL     1       7.314   5.212  13.832  0.00  0.00    +0.000 OA
ATOM     19  C   UNL     1       6.511   4.302  14.006  0.00  0.00    +0.000 C 
ATOM     20  N   UNL     1       6.149   3.848  15.252  0.00  0.00    +0.000 N 
ATOM     21  H   UNL     1       5.580   3.020  15.323  0.00  0.00    +0.000 HD
BRANCH  19  22
ATOM     22  C   UNL     1       5.865   3.604  12.911  0.00  0.00    +0.000 A 
ATOM     23  C   UNL     1       4.632   3.790  12.307  0.00  0.00    +0.000 A 
ATOM     24  C   UNL     1       4.481   2.823  11.286  0.00  0.00    +0.000 A 
ATOM     25  C   UNL     1       5.631   2.070  11.270  0.00  0.00    +0.000 A 
ATOM     26  N   UNL     1       6.468   2.556  12.240  0.00  0.00    +0.000 N 
ATOM     27  H   UNL     1       7.393   2.204  12.456  0.00  0.00    +0.000 HD
ENDBRANCH  19  22
ENDBRANCH  17  20
ENDBRANCH   1  17
TORSDOF 5
ENDMDL
