MODEL 1
REMARK VINA RESULT:      -6.7      0.000      0.000
REMARK  Name = 
REMARK  6 active torsions:
REMARK  status: ('A' for Active; 'I' for Inactive)
REMARK    1  A    between atoms: C_1  and  C_2
REMARK    2  A    between atoms: C_2  and  C_3
REMARK    3  A    between atoms: C_2  and  O_10
REMARK    4  A    between atoms: C_3  and  N_4
REMARK    5  A    between atoms: O_10  and  C_11
REMARK    6  A    between atoms: C_11  and  C_13
REMARK                            x       y       z     vdW  Elec       q    Type
REMARK                         _______ _______ _______ _____ _____    ______ ____
ROOT
ATOM      1  O   UNL     1       5.253   5.144  16.376  0.00  0.00    +0.000 OA
ENDROOT
BRANCH   1   3
ATOM      2  C   UNL     1       4.210   7.013  17.409  0.00  0.00    +0.000 C 
ATOM      3  C   UNL     1       4.957   5.690  17.610  0.00  0.00    +0.000 C 
BRANCH   3   4
ATOM      4  C   UNL     1       4.078   4.702  18.411  0.00  0.00    +0.000 C 
BRANCH   4   5
ATOM      5  N   UNL     1       3.176   3.886  17.555  0.00  0.00    +0.000 NA
ATOM      6  C   UNL     1       1.753   4.228  17.783  0.00  0.00    +0.000 C 
ATOM      7  C   UNL     1       1.246   3.669  19.131  0.00  0.00    +0.000 C 
ATOM      8  O   UNL     1       1.424   2.266  19.200  0.00  0.00    +0.000 OA
ATOM      9  C   UNL     1       2.798   1.950  19.072  0.00  0.00    +0.000 C 
ATOM     10  C   UNL     1       3.332   2.423  17.711  0.00  0.00    +0.000 C 
ENDBRANCH   4   5
ENDBRANCH   3   4
ENDBRANCH   1   3
BRANCH   1  11
ATOM     11  C   UNL     1       6.499   4.792  15.965  0.00  0.00    +0.000 C 
ATOM     12  O   UNL     1       7.408   4.668  16.778  0.00  0.00    +0.000 OA
BRANCH  11  13
ATOM     13  C   UNL     1       6.760   4.618  14.519  0.00  0.00    +0.000 A 
ATOM     14  C   UNL     1       7.681   5.433  13.836  0.00  0.00    +0.000 A 
ATOM     15  C   UNL     1       7.886   5.265  12.464  0.00  0.00    +0.000 A 
ATOM     16  C   UNL     1       7.174   4.291  11.760  0.00  0.00    +0.000 A 
ATOM     17  C   UNL     1       6.254   3.479  12.429  0.00  0.00    +0.000 A 
ATOM     18 CL   UNL     1       5.347   2.262  11.548  0.00  0.00    +0.000 Cl
ATOM     19  C   UNL     1       6.049   3.639  13.801  0.00  0.00    +0.000 A 
ENDBRANCH  11  13
ENDBRANCH   1  11
TORSDOF 5
ENDMDL
MODEL 2
REMARK VINA RESULT:      -6.6      0.946      1.347
REMARK  Name = 
REMARK  6 active torsions:
REMARK  status: ('A' for Active; 'I' for Inactive)
REMARK    1  A    between atoms: C_1  and  C_2
REMARK    2  A    between atoms: C_2  and  C_3
REMARK    3  A    between atoms: C_2  and  O_10
REMARK    4  A    between atoms: C_3  and  N_4
REMARK    5  A    between atoms: O_10  and  C_11
REMARK    6  A    between atoms: C_11  and  C_13
REMARK                            x       y       z     vdW  Elec       q    Type
REMARK                         _______ _______ _______ _____ _____    ______ ____
ROOT
ATOM      1  O   UNL     1       5.562   4.030  16.674  0.00  0.00    +0.000 OA
ENDROOT
BRANCH   1   3
ATOM      2  C   UNL     1       4.525   6.155  16.910  0.00  0.00    +0.000 C 
ATOM      3  C   UNL     1       4.748   4.766  17.515  0.00  0.00    +0.000 C 
BRANCH   3   4
ATOM      4  C   UNL     1       3.395   4.038  17.684  0.00  0.00    +0.000 C 
BRANCH   4   5
ATOM      5  N   UNL     1       3.321   3.208  18.916  0.00  0.00    +0.000 NA
ATOM      6  C   UNL     1       2.375   2.079  18.756  0.00  0.00    +0.000 C 
ATOM      7  C   UNL     1       0.908   2.560  18.796  0.00  0.00    +0.000 C 
ATOM      8  O   UNL     1       0.633   3.255  19.999  0.00  0.00    +0.000 OA
ATOM      9  C   UNL     1       1.478   4.386  20.103  0.00  0.00    +0.000 C 
ATOM     10  C   UNL     1       2.952   3.952  20.141  0.00  0.00    +0.000 C 
ENDBRANCH   4   5
ENDBRANCH   3   4
ENDBRANCH   1   3
BRANCH   1  11
ATOM     11  C   UNL     1       6.715   4.488  16.119  0.00  0.00    +0.000 C 
ATOM     12  O   UNL     1       7.597   4.963  16.825  0.00  0.00    +0.000 OA
BRANCH  11  13
ATOM     13  C   UNL     1       6.868   4.458  14.647  0.00  0.00    +0.000 A 
ATOM     14  C   UNL     1       7.753   5.329  13.985  0.00  0.00    +0.000 A 
ATOM     15  C   UNL     1       7.857   5.300  12.592  0.00  0.00    +0.000 A 
ATOM     16  C   UNL     1       7.078   4.410  11.847  0.00  0.00    +0.000 A 
ATOM     17  C   UNL     1       6.194   3.544  12.496  0.00  0.00    +0.000 A 
ATOM     18 CL   UNL     1       5.205   2.433  11.565  0.00  0.00    +0.000 Cl
ATOM     19  C   UNL     1       6.091   3.565  13.888  0.00  0.00    +0.000 A 
ENDBRANCH  11  13
ENDBRANCH   1  11
TORSDOF 5
ENDMDL
MODEL 3
REMARK VINA RESULT:      -6.6      1.029      1.288
REMARK  Name = 
REMARK  6 active torsions:
REMARK  status: ('A' for Active; 'I' for Inactive)
REMARK    1  A    between atoms: C_1  and  C_2
REMARK    2  A    between atoms: C_2  and  C_3
REMARK    3  A    between atoms: C_2  and  O_10
REMARK    4  A    between atoms: C_3  and  N_4
REMARK    5  A    between atoms: O_10  and  C_11
REMARK    6  A    between atoms: C_11  and  C_13
REMARK                            x       y       z     vdW  Elec       q    Type
REMARK                         _______ _______ _______ _____ _____    ______ ____
ROOT
ATOM      1  O   UNL     1       5.244   4.505  16.625  0.00  0.00    +0.000 OA
ENDROOT
BRANCH   1   3
ATOM      2  C   UNL     1       4.082   6.327  17.614  0.00  0.00    +0.000 C 
ATOM      3  C   UNL     1       4.841   5.016  17.844  0.00  0.00    +0.000 C 
BRANCH   3   4
ATOM      4  C   UNL     1       3.926   3.991  18.552  0.00  0.00    +0.000 C 
BRANCH   4   5
ATOM      5  N   UNL     1       2.666   4.584  19.074  0.00  0.00    +0.000 NA
ATOM      6  C   UNL     1       2.653   4.619  20.555  0.00  0.00    +0.000 C 
ATOM      7  C   UNL     1       2.428   3.212  21.151  0.00  0.00    +0.000 C 
ATOM      8  O   UNL     1       1.225   2.641  20.670  0.00  0.00    +0.000 OA
ATOM      9  C   UNL     1       1.280   2.526  19.260  0.00  0.00    +0.000 C 
ATOM     10  C   UNL     1       1.430   3.912  18.614  0.00  0.00    +0.000 C 
ENDBRANCH   4   5
ENDBRANCH   3   4
ENDBRANCH   1   3
BRANCH   1  11
ATOM     11  C   UNL     1       6.521   4.529  16.161  0.00  0.00    +0.000 C 
ATOM     12  O   UNL     1       7.461   4.648  16.939  0.00  0.00    +0.000 OA
BRANCH  11  13
ATOM     13  C   UNL     1       6.760   4.469  14.702  0.00  0.00    +0.000 A 
ATOM     14  C   UNL     1       7.670   5.336  14.072  0.00  0.00    +0.000 A 
ATOM     15  C   UNL     1       7.855   5.278  12.688  0.00  0.00    +0.000 A 
ATOM     16  C   UNL     1       7.132   4.361  11.921  0.00  0.00    +0.000 A 
ATOM     17  C   UNL     1       6.223   3.498  12.537  0.00  0.00    +0.000 A 
ATOM     18 CL   UNL     1       5.303   2.353  11.577  0.00  0.00    +0.000 Cl
ATOM     19  C   UNL     1       6.039   3.549  13.920  0.00  0.00    +0.000 A 
ENDBRANCH  11  13
ENDBRANCH   1  11
TORSDOF 5
ENDMDL
MODEL 4
REMARK VINA RESULT:      -6.5      3.339      6.627
REMARK  Name = 
REMARK  6 active torsions:
REMARK  status: ('A' for Active; 'I' for Inactive)
REMARK    1  A    between atoms: C_1  and  C_2
REMARK    2  A    between atoms: C_2  and  C_3
REMARK    3  A    between atoms: C_2  and  O_10
REMARK    4  A    between atoms: C_3  and  N_4
REMARK    5  A    between atoms: O_10  and  C_11
REMARK    6  A    between atoms: C_11  and  C_13
REMARK                            x       y       z     vdW  Elec       q    Type
REMARK                         _______ _______ _______ _____ _____    ______ ____
ROOT
ATOM      1  O   UNL     1       4.281   4.014  16.476  0.00  0.00    +0.000 OA
ENDROOT
BRANCH   1   3
ATOM      2  C   UNL     1       5.514   4.406  14.483  0.00  0.00    +0.000 C 
ATOM      3  C   UNL     1       5.523   3.824  15.900  0.00  0.00    +0.000 C 
BRANCH   3   4
ATOM      4  C   UNL     1       6.598   4.531  16.757  0.00  0.00    +0.000 C 
BRANCH   4   5
ATOM      5  N   UNL     1       6.038   5.538  17.696  0.00  0.00    +0.000 NA
ATOM      6  C   UNL     1       6.263   6.920  17.211  0.00  0.00    +0.000 C 
ATOM      7  C   UNL     1       7.738   7.345  17.380  0.00  0.00    +0.000 C 
ATOM      8  O   UNL     1       8.149   7.233  18.730  0.00  0.00    +0.000 OA
ATOM      9  C   UNL     1       8.018   5.891  19.161  0.00  0.00    +0.000 C 
ATOM     10  C   UNL     1       6.550   5.444  19.082  0.00  0.00    +0.000 C 
ENDBRANCH   4   5
ENDBRANCH   3   4
ENDBRANCH   1   3
BRANCH   1  11
ATOM     11  C   UNL     1       3.747   3.218  17.440  0.00  0.00    +0.000 C 
ATOM     12  O   UNL     1       3.846   1.999  17.363  0.00  0.00    +0.000 OA
BRANCH  11  13
ATOM     13  C   UNL     1       2.992   3.840  18.551  0.00  0.00    +0.000 A 
ATOM     14  C   UNL     1       2.783   5.229  18.608  0.00  0.00    +0.000 A 
ATOM     15  C   UNL     1       2.092   5.792  19.684  0.00  0.00    +0.000 A 
ATOM     16  C   UNL     1       1.609   4.980  20.713  0.00  0.00    +0.000 A 
ATOM     17  C   UNL     1       1.815   3.599  20.667  0.00  0.00    +0.000 A 
ATOM     18 CL   UNL     1       1.223   2.574  21.962  0.00  0.00    +0.000 Cl
ATOM     19  C   UNL     1       2.501   3.030  19.591  0.00  0.00    +0.000 A 
ENDBRANCH  11  13
ENDBRANCH   1  11
TORSDOF 5
ENDMDL
MODEL 5
REMARK VINA RESULT:      -6.5      3.297      6.744
REMARK  Name = 
REMARK  6 active torsions:
REMARK  status: ('A' for Active; 'I' for Inactive)
REMARK    1  A    between atoms: C_1  and  C_2
REMARK    2  A    between atoms: C_2  and  C_3
REMARK    3  A    between atoms: C_2  and  O_10
REMARK    4  A    between atoms: C_3  and  N_4
REMARK    5  A    between atoms: O_10  and  C_11
REMARK    6  A    between atoms: C_11  and  C_13
REMARK                            x       y       z     vdW  Elec       q    Type
REMARK                         _______ _______ _______ _____ _____    ______ ____
ROOT
ATOM      1  O   UNL     1       4.280   3.965  16.718  0.00  0.00    +0.000 OA
ENDROOT
BRANCH   1   3
ATOM      2  C   UNL     1       5.226   4.287  14.563  0.00  0.00    +0.000 C 
ATOM      3  C   UNL     1       5.457   3.831  16.007  0.00  0.00    +0.000 C 
BRANCH   3   4
ATOM      4  C   UNL     1       6.555   4.696  16.667  0.00  0.00    +0.000 C 
BRANCH   4   5
ATOM      5  N   UNL     1       6.027   5.655  17.673  0.00  0.00    +0.000 NA
ATOM      6  C   UNL     1       6.287   7.059  17.277  0.00  0.00    +0.000 C 
ATOM      7  C   UNL     1       7.774   7.433  17.461  0.00  0.00    +0.000 C 
ATOM      8  O   UNL     1       8.189   7.223  18.798  0.00  0.00    +0.000 OA
ATOM      9  C   UNL     1       8.024   5.860  19.144  0.00  0.00    +0.000 C 
ATOM     10  C   UNL     1       6.544   5.458  19.046  0.00  0.00    +0.000 C 
ENDBRANCH   4   5
ENDBRANCH   3   4
ENDBRANCH   1   3
BRANCH   1  11
ATOM     11  C   UNL     1       3.806   3.053  17.608  0.00  0.00    +0.000 C 
ATOM     12  O   UNL     1       4.116   1.872  17.509  0.00  0.00    +0.000 OA
BRANCH  11  13
ATOM     13  C   UNL     1       2.866   3.495  18.662  0.00  0.00    +0.000 A 
ATOM     14  C   UNL     1       1.982   2.593  19.280  0.00  0.00    +0.000 A 
ATOM     15  C   UNL     1       1.084   3.043  20.252  0.00  0.00    +0.000 A 
ATOM     16  C   UNL     1       1.055   4.392  20.612  0.00  0.00    +0.000 A 
ATOM     17  C   UNL     1       1.927   5.297  20.001  0.00  0.00    +0.000 A 
ATOM     18 CL   UNL     1       1.887   6.995  20.439  0.00  0.00    +0.000 Cl
ATOM     19  C   UNL     1       2.830   4.851  19.033  0.00  0.00    +0.000 A 
ENDBRANCH  11  13
ENDBRANCH   1  11
TORSDOF 5
ENDMDL
MODEL 6
REMARK VINA RESULT:      -6.5      3.858      6.994
REMARK  Name = 
REMARK  6 active torsions:
REMARK  status: ('A' for Active; 'I' for Inactive)
REMARK    1  A    between atoms: C_1  and  C_2
REMARK    2  A    between atoms: C_2  and  C_3
REMARK    3  A    between atoms: C_2  and  O_10
REMARK    4  A    between atoms: C_3  and  N_4
REMARK    5  A    between atoms: O_10  and  C_11
REMARK    6  A    between atoms: C_11  and  C_13
REMARK                            x       y       z     vdW  Elec       q    Type
REMARK                         _______ _______ _______ _____ _____    ______ ____
ROOT
ATOM      1  O   UNL     1       2.689   4.479  18.473  0.00  0.00    +0.000 OA
ENDROOT
BRANCH   1   3
ATOM      2  C   UNL     1       3.250   2.176  18.298  0.00  0.00    +0.000 C 
ATOM      3  C   UNL     1       3.741   3.624  18.202  0.00  0.00    +0.000 C 
BRANCH   3   4
ATOM      4  C   UNL     1       4.280   3.909  16.782  0.00  0.00    +0.000 C 
BRANCH   4   5
ATOM      5  N   UNL     1       4.962   5.225  16.662  0.00  0.00    +0.000 NA
ATOM      6  C   UNL     1       5.510   5.433  15.301  0.00  0.00    +0.000 C 
ATOM      7  C   UNL     1       6.772   4.574  15.063  0.00  0.00    +0.000 C 
ATOM      8  O   UNL     1       7.766   4.851  16.032  0.00  0.00    +0.000 OA
ATOM      9  C   UNL     1       7.267   4.564  17.326  0.00  0.00    +0.000 C 
ATOM     10  C   UNL     1       6.051   5.449  17.640  0.00  0.00    +0.000 C 
ENDBRANCH   4   5
ENDBRANCH   3   4
ENDBRANCH   1   3
BRANCH   1  11
ATOM     11  C   UNL     1       2.655   5.359  19.508  0.00  0.00    +0.000 C 
ATOM     12  O   UNL     1       2.909   4.987  20.647  0.00  0.00    +0.000 OA
BRANCH  11  13
ATOM     13  C   UNL     1       2.251   6.759  19.251  0.00  0.00    +0.000 A 
ATOM     14  C   UNL     1       2.425   7.352  17.988  0.00  0.00    +0.000 A 
ATOM     15  C   UNL     1       2.061   8.686  17.780  0.00  0.00    +0.000 A 
ATOM     16  C   UNL     1       1.527   9.440  18.828  0.00  0.00    +0.000 A 
ATOM     17  C   UNL     1       1.353   8.860  20.087  0.00  0.00    +0.000 A 
ATOM     18 CL   UNL     1       0.694   9.806  21.411  0.00  0.00    +0.000 Cl
ATOM     19  C   UNL     1       1.710   7.527  20.298  0.00  0.00    +0.000 A 
ENDBRANCH  11  13
ENDBRANCH   1  11
TORSDOF 5
ENDMDL
MODEL 7
REMARK VINA RESULT:      -6.5      3.177      6.772
REMARK  Name = 
REMARK  6 active torsions:
REMARK  status: ('A' for Active; 'I' for Inactive)
REMARK    1  A    between atoms: C_1  and  C_2
REMARK    2  A    between atoms: C_2  and  C_3
REMARK    3  A    between atoms: C_2  and  O_10
REMARK    4  A    between atoms: C_3  and  N_4
REMARK    5  A    between atoms: O_10  and  C_11
REMARK    6  A    between atoms: C_11  and  C_13
REMARK                            x       y       z     vdW  Elec       q    Type
REMARK                         _______ _______ _______ _____ _____    ______ ____
ROOT
ATOM      1  O   UNL     1       2.061   6.056  18.292  0.00  0.00    +0.000 OA
ENDROOT
BRANCH   1   3
ATOM      2  C   UNL     1       2.939   8.200  17.763  0.00  0.00    +0.000 C 
ATOM      3  C   UNL     1       2.987   6.694  17.488  0.00  0.00    +0.000 C 
BRANCH   3   4
ATOM      4  C   UNL     1       4.398   6.143  17.795  0.00  0.00    +0.000 C 
BRANCH   4   5
ATOM      5  N   UNL     1       5.430   6.586  16.820  0.00  0.00    +0.000 NA
ATOM      6  C   UNL     1       5.604   5.603  15.726  0.00  0.00    +0.000 C 
ATOM      7  C   UNL     1       6.364   4.348  16.209  0.00  0.00    +0.000 C 
ATOM      8  O   UNL     1       7.625   4.694  16.752  0.00  0.00    +0.000 OA
ATOM      9  C   UNL     1       7.448   5.563  17.856  0.00  0.00    +0.000 C 
ATOM     10  C   UNL     1       6.759   6.862  17.411  0.00  0.00    +0.000 C 
ENDBRANCH   4   5
ENDBRANCH   3   4
ENDBRANCH   1   3
BRANCH   1  11
ATOM     11  C   UNL     1       1.764   4.732  18.229  0.00  0.00    +0.000 C 
ATOM     12  O   UNL     1       1.247   4.260  17.223  0.00  0.00    +0.000 OA
BRANCH  11  13
ATOM     13  C   UNL     1       2.019   3.878  19.411  0.00  0.00    +0.000 A 
ATOM     14  C   UNL     1       1.079   3.767  20.451  0.00  0.00    +0.000 A 
ATOM     15  C   UNL     1       1.357   2.977  21.569  0.00  0.00    +0.000 A 
ATOM     16  C   UNL     1       2.574   2.297  21.664  0.00  0.00    +0.000 A 
ATOM     17  C   UNL     1       3.515   2.403  20.637  0.00  0.00    +0.000 A 
ATOM     18 CL   UNL     1       5.050   1.561  20.756  0.00  0.00    +0.000 Cl
ATOM     19  C   UNL     1       3.240   3.187  19.515  0.00  0.00    +0.000 A 
ENDBRANCH  11  13
ENDBRANCH   1  11
TORSDOF 5
ENDMDL
MODEL 8
REMARK VINA RESULT:      -6.4      3.765      6.847
REMARK  Name = 
REMARK  6 active torsions:
REMARK  status: ('A' for Active; 'I' for Inactive)
REMARK    1  A    between atoms: C_1  and  C_2
REMARK    2  A    between atoms: C_2  and  C_3
REMARK    3  A    between atoms: C_2  and  O_10
REMARK    4  A    between atoms: C_3  and  N_4
REMARK    5  A    between atoms: O_10  and  C_11
REMARK    6  A    between atoms: C_11  and  C_13
REMARK                            x       y       z     vdW  Elec       q    Type
REMARK                         _______ _______ _______ _____ _____    ______ ____
ROOT
ATOM      1  O   UNL     1       3.164   4.421  18.588  0.00  0.00    +0.000 OA
ENDROOT
BRANCH   1   3
ATOM      2  C   UNL     1       3.078   2.193  17.768  0.00  0.00    +0.000 C 
ATOM      3  C   UNL     1       3.933   3.446  17.984  0.00  0.00    +0.000 C 
BRANCH   3   4
ATOM      4  C   UNL     1       4.456   3.972  16.628  0.00  0.00    +0.000 C 
BRANCH   4   5
ATOM      5  N   UNL     1       5.867   3.592  16.351  0.00  0.00    +0.000 NA
ATOM      6  C   UNL     1       6.813   4.347  17.206  0.00  0.00    +0.000 C 
ATOM      7  C   UNL     1       6.946   5.814  16.741  0.00  0.00    +0.000 C 
ATOM      8  O   UNL     1       7.355   5.885  15.388  0.00  0.00    +0.000 OA
ATOM      9  C   UNL     1       6.401   5.240  14.565  0.00  0.00    +0.000 C 
ATOM     10  C   UNL     1       6.285   3.754  14.941  0.00  0.00    +0.000 C 
ENDBRANCH   4   5
ENDBRANCH   3   4
ENDBRANCH   1   3
BRANCH   1  11
ATOM     11  C   UNL     1       3.655   5.557  19.150  0.00  0.00    +0.000 C 
ATOM     12  O   UNL     1       4.706   5.532  19.779  0.00  0.00    +0.000 OA
BRANCH  11  13
ATOM     13  C   UNL     1       2.877   6.811  19.041  0.00  0.00    +0.000 A 
ATOM     14  C   UNL     1       2.927   7.606  17.882  0.00  0.00    +0.000 A 
ATOM     15  C   UNL     1       2.205   8.801  17.817  0.00  0.00    +0.000 A 
ATOM     16  C   UNL     1       1.433   9.216  18.905  0.00  0.00    +0.000 A 
ATOM     17  C   UNL     1       1.380   8.434  20.062  0.00  0.00    +0.000 A 
ATOM     18 CL   UNL     1       0.423   8.957  21.437  0.00  0.00    +0.000 Cl
ATOM     19  C   UNL     1       2.096   7.237  20.130  0.00  0.00    +0.000 A 
ENDBRANCH  11  13
ENDBRANCH   1  11
TORSDOF 5
ENDMDL
MODEL 9
REMARK VINA RESULT:      -6.4      3.136      6.788
REMARK  Name = 
REMARK  6 active torsions:
REMARK  status: ('A' for Active; 'I' for Inactive)
REMARK    1  A    between atoms: C_1  and  C_2
REMARK    2  A    between atoms: C_2  and  C_3
REMARK    3  A    between atoms: C_2  and  O_10
REMARK    4  A    between atoms: C_3  and  N_4
REMARK    5  A    between atoms: O_10  and  C_11
REMARK    6  A    between atoms: C_11  and  C_13
REMARK                            x       y       z     vdW  Elec       q    Type
REMARK                         _______ _______ _______ _____ _____    ______ ____
ROOT
ATOM      1  O   UNL     1       3.192   3.434  18.267  0.00  0.00    +0.000 OA
ENDROOT
BRANCH   1   3
ATOM      2  C   UNL     1       4.582   2.461  19.931  0.00  0.00    +0.000 C 
ATOM      3  C   UNL     1       4.248   3.713  19.113  0.00  0.00    +0.000 C 
BRANCH   3   4
ATOM      4  C   UNL     1       5.475   4.143  18.277  0.00  0.00    +0.000 C 
BRANCH   4   5
ATOM      5  N   UNL     1       5.148   5.125  17.209  0.00  0.00    +0.000 NA
ATOM      6  C   UNL     1       5.522   4.617  15.869  0.00  0.00    +0.000 C 
ATOM      7  C   UNL     1       7.052   4.652  15.658  0.00  0.00    +0.000 C 
ATOM      8  O   UNL     1       7.561   5.961  15.839  0.00  0.00    +0.000 OA
ATOM      9  C   UNL     1       7.280   6.407  17.153  0.00  0.00    +0.000 C 
ATOM     10  C   UNL     1       5.762   6.460  17.388  0.00  0.00    +0.000 C 
ENDBRANCH   4   5
ENDBRANCH   3   4
ENDBRANCH   1   3
BRANCH   1  11
ATOM     11  C   UNL     1       2.069   4.192  18.157  0.00  0.00    +0.000 C 
ATOM     12  O   UNL     1       1.144   3.828  17.441  0.00  0.00    +0.000 OA
BRANCH  11  13
ATOM     13  C   UNL     1       2.001   5.489  18.867  0.00  0.00    +0.000 A 
ATOM     14  C   UNL     1       1.734   5.557  20.246  0.00  0.00    +0.000 A 
ATOM     15  C   UNL     1       1.647   6.797  20.885  0.00  0.00    +0.000 A 
ATOM     16  C   UNL     1       1.819   7.977  20.157  0.00  0.00    +0.000 A 
ATOM     17  C   UNL     1       2.081   7.919  18.786  0.00  0.00    +0.000 A 
ATOM     18 CL   UNL     1       2.285   9.398  17.863  0.00  0.00    +0.000 Cl
ATOM     19  C   UNL     1       2.174   6.683  18.144  0.00  0.00    +0.000 A 
ENDBRANCH  11  13
ENDBRANCH   1  11
TORSDOF 5
ENDMDL
