MODEL 1
REMARK VINA RESULT:      -8.9      0.000      0.000
REMARK  Name = 
REMARK  8 active torsions:
REMARK  status: ('A' for Active; 'I' for Inactive)
REMARK    1  A    between atoms: C_1  and  C_2
REMARK    2  A    between atoms: C_8  and  C_9
REMARK    3  A    between atoms: C_11  and  N_12
REMARK    4  A    between atoms: N_12  and  C_13
REMARK    5  A    between atoms: C_13  and  C_14
REMARK    6  A    between atoms: C_13  and  C_15
REMARK    7  A    between atoms: C_23  and  C_24
REMARK    8  A    between atoms: C_30  and  O_31
REMARK                            x       y       z     vdW  Elec       q    Type
REMARK                         _______ _______ _______ _____ _____    ______ ____
ROOT
ATOM      1  C   UNL     1      -0.377  10.054  20.249  0.00  0.00    +0.000 A 
ATOM      2  C   UNL     1       0.395   8.908  19.941  0.00  0.00    +0.000 A 
ATOM      3  C   UNL     1       1.420   8.446  20.758  0.00  0.00    +0.000 A 
ATOM      4  C   UNL     1       1.632   9.192  21.909  0.00  0.00    +0.000 A 
ATOM      5  N   UNL     1       0.885  10.252  22.302  0.00  0.00    +0.000 NA
ATOM      6  C   UNL     1      -0.112  10.692  21.479  0.00  0.00    +0.000 A 
ENDROOT
BRANCH   1  14
ATOM      7  C   UNL     1      -5.545  12.561  19.832  0.00  0.00    +0.000 C 
ATOM      8  C   UNL     1      -4.747  12.183  18.643  0.00  0.00    +0.000 A 
ATOM      9  N   UNL     1      -5.236  12.341  17.407  0.00  0.00    +0.000 NA
ATOM     10  N   UNL     1      -4.274  11.836  16.616  0.00  0.00    +0.000 N 
ATOM     11  C   UNL     1      -3.194  11.336  17.292  0.00  0.00    +0.000 A 
ATOM     12  C   UNL     1      -2.037  10.691  16.857  0.00  0.00    +0.000 A 
ATOM     13  C   UNL     1      -1.144  10.263  17.851  0.00  0.00    +0.000 A 
ATOM     14  C   UNL     1      -1.353  10.512  19.225  0.00  0.00    +0.000 A 
ATOM     15  C   UNL     1      -2.507  11.231  19.598  0.00  0.00    +0.000 A 
ATOM     16  C   UNL     1      -3.457  11.594  18.629  0.00  0.00    +0.000 A 
ATOM     17  H   UNL     1      -4.426  11.845  15.614  0.00  0.00    +0.000 HD
ENDBRANCH   1  14
BRANCH   6  18
ATOM     18  C   UNL     1      -0.884  11.850  22.050  0.00  0.00    +0.000 A 
ATOM     19  C   UNL     1      -1.924  11.630  22.980  0.00  0.00    +0.000 A 
ATOM     20  C   UNL     1      -2.716  12.671  23.460  0.00  0.00    +0.000 A 
ATOM     21 CL   UNL     1      -4.081  12.320  24.449  0.00  0.00    +0.000 Cl
ATOM     22  C   UNL     1      -2.437  13.987  23.117  0.00  0.00    +0.000 A 
ATOM     23  C   UNL     1      -1.376  14.255  22.260  0.00  0.00    +0.000 A 
ATOM     24  C   UNL     1      -0.630  13.196  21.717  0.00  0.00    +0.000 A 
BRANCH  24  25
ATOM     25  O   UNL     1       0.336  13.526  20.795  0.00  0.00    +0.000 OA
ATOM     26  H   UNL     1       0.008  14.253  20.241  0.00  0.00    +0.000 HD
ENDBRANCH  24  25
ENDBRANCH   6  18
BRANCH   3  27
ATOM     27  N   UNL     1       2.210   7.355  20.433  0.00  0.00    +0.000 N 
ATOM     28  H   UNL     1       2.477   6.754  21.205  0.00  0.00    +0.000 HD
BRANCH  27  29
ATOM     29  C   UNL     1       2.130   6.695  19.127  0.00  0.00    +0.000 C 
ATOM     30  C   UNL     1       3.458   6.906  18.403  0.00  0.00    +0.000 C 
BRANCH  29  31
ATOM     31  C   UNL     1       1.779   5.222  19.296  0.00  0.00    +0.000 A 
ATOM     32  C   UNL     1       1.495   4.716  20.578  0.00  0.00    +0.000 A 
ATOM     33  C   UNL     1       1.221   3.360  20.770  0.00  0.00    +0.000 A 
ATOM     34  C   UNL     1       1.222   2.487  19.684  0.00  0.00    +0.000 A 
ATOM     35  C   UNL     1       1.477   2.974  18.404  0.00  0.00    +0.000 A 
ATOM     36  C   UNL     1       1.744   4.333  18.210  0.00  0.00    +0.000 A 
ENDBRANCH  29  31
ENDBRANCH  27  29
ENDBRANCH   3  27
TORSDOF 6
ENDMDL
MODEL 2
REMARK VINA RESULT:      -8.8      0.723      1.846
REMARK  Name = 
REMARK  8 active torsions:
REMARK  status: ('A' for Active; 'I' for Inactive)
REMARK    1  A    between atoms: C_1  and  C_2
REMARK    2  A    between atoms: C_8  and  C_9
REMARK    3  A    between atoms: C_11  and  N_12
REMARK    4  A    between atoms: N_12  and  C_13
REMARK    5  A    between atoms: C_13  and  C_14
REMARK    6  A    between atoms: C_13  and  C_15
REMARK    7  A    between atoms: C_23  and  C_24
REMARK    8  A    between atoms: C_30  and  O_31
REMARK                            x       y       z     vdW  Elec       q    Type
REMARK                         _______ _______ _______ _____ _____    ______ ____
ROOT
ATOM      1  C   UNL     1      -0.453  10.152  20.536  0.00  0.00    +0.000 A 
ATOM      2  C   UNL     1       0.298   9.031  20.108  0.00  0.00    +0.000 A 
ATOM      3  C   UNL     1       1.362   8.512  20.836  0.00  0.00    +0.000 A 
ATOM      4  C   UNL     1       1.636   9.174  22.024  0.00  0.00    +0.000 A 
ATOM      5  N   UNL     1       0.915  10.203  22.529  0.00  0.00    +0.000 NA
ATOM      6  C   UNL     1      -0.122  10.701  21.793  0.00  0.00    +0.000 A 
ENDROOT
BRANCH   1  14
ATOM      7  C   UNL     1      -2.382   9.401  15.163  0.00  0.00    +0.000 C 
ATOM      8  C   UNL     1      -2.983  10.386  16.092  0.00  0.00    +0.000 A 
ATOM      9  N   UNL     1      -3.961  11.205  15.689  0.00  0.00    +0.000 NA
ATOM     10  N   UNL     1      -4.193  11.979  16.763  0.00  0.00    +0.000 N 
ATOM     11  C   UNL     1      -3.388  11.708  17.836  0.00  0.00    +0.000 A 
ATOM     12  C   UNL     1      -3.272  12.304  19.091  0.00  0.00    +0.000 A 
ATOM     13  C   UNL     1      -2.286  11.787  19.945  0.00  0.00    +0.000 A 
ATOM     14  C   UNL     1      -1.479  10.682  19.599  0.00  0.00    +0.000 A 
ATOM     15  C   UNL     1      -1.690  10.077  18.344  0.00  0.00    +0.000 A 
ATOM     16  C   UNL     1      -2.611  10.630  17.438  0.00  0.00    +0.000 A 
ATOM     17  H   UNL     1      -4.908  12.693  16.692  0.00  0.00    +0.000 HD
ENDBRANCH   1  14
BRANCH   6  18
ATOM     18  C   UNL     1      -0.858  11.816  22.484  0.00  0.00    +0.000 A 
ATOM     19  C   UNL     1      -2.051  11.555  23.194  0.00  0.00    +0.000 A 
ATOM     20  C   UNL     1      -2.804  12.576  23.770  0.00  0.00    +0.000 A 
ATOM     21 CL   UNL     1      -4.338  12.219  24.465  0.00  0.00    +0.000 Cl
ATOM     22  C   UNL     1      -2.347  13.887  23.754  0.00  0.00    +0.000 A 
ATOM     23  C   UNL     1      -1.141  14.177  23.127  0.00  0.00    +0.000 A 
ATOM     24  C   UNL     1      -0.424  13.156  22.481  0.00  0.00    +0.000 A 
BRANCH  24  25
ATOM     25  O   UNL     1       0.705  13.533  21.791  0.00  0.00    +0.000 OA
ATOM     26  H   UNL     1       0.816  14.494  21.868  0.00  0.00    +0.000 HD
ENDBRANCH  24  25
ENDBRANCH   6  18
BRANCH   3  27
ATOM     27  N   UNL     1       2.129   7.446  20.394  0.00  0.00    +0.000 N 
ATOM     28  H   UNL     1       2.486   6.827  21.113  0.00  0.00    +0.000 HD
BRANCH  27  29
ATOM     29  C   UNL     1       1.921   6.824  19.082  0.00  0.00    +0.000 C 
ATOM     30  C   UNL     1       3.109   7.179  18.191  0.00  0.00    +0.000 C 
BRANCH  29  31
ATOM     31  C   UNL     1       1.724   5.322  19.232  0.00  0.00    +0.000 A 
ATOM     32  C   UNL     1       1.848   4.486  18.106  0.00  0.00    +0.000 A 
ATOM     33  C   UNL     1       1.622   3.111  18.204  0.00  0.00    +0.000 A 
ATOM     34  C   UNL     1       1.271   2.547  19.428  0.00  0.00    +0.000 A 
ATOM     35  C   UNL     1       1.168   3.354  20.559  0.00  0.00    +0.000 A 
ATOM     36  C   UNL     1       1.402   4.730  20.464  0.00  0.00    +0.000 A 
ENDBRANCH  29  31
ENDBRANCH  27  29
ENDBRANCH   3  27
TORSDOF 6
ENDMDL
MODEL 3
REMARK VINA RESULT:      -8.6      2.626      3.340
REMARK  Name = 
REMARK  8 active torsions:
REMARK  status: ('A' for Active; 'I' for Inactive)
REMARK    1  A    between atoms: C_1  and  C_2
REMARK    2  A    between atoms: C_8  and  C_9
REMARK    3  A    between atoms: C_11  and  N_12
REMARK    4  A    between atoms: N_12  and  C_13
REMARK    5  A    between atoms: C_13  and  C_14
REMARK    6  A    between atoms: C_13  and  C_15
REMARK    7  A    between atoms: C_23  and  C_24
REMARK    8  A    between atoms: C_30  and  O_31
REMARK                            x       y       z     vdW  Elec       q    Type
REMARK                         _______ _______ _______ _____ _____    ______ ____
ROOT
ATOM      1  C   UNL     1      -0.610  10.887  18.222  0.00  0.00    +0.000 A 
ATOM      2  C   UNL     1      -0.034   9.645  17.863  0.00  0.00    +0.000 A 
ATOM      3  C   UNL     1       1.313   9.355  18.051  0.00  0.00    +0.000 A 
ATOM      4  C   UNL     1       2.057  10.377  18.623  0.00  0.00    +0.000 A 
ATOM      5  N   UNL     1       1.557  11.560  19.056  0.00  0.00    +0.000 NA
ATOM      6  C   UNL     1       0.233  11.825  18.855  0.00  0.00    +0.000 A 
ENDROOT
BRANCH   1  14
ATOM      7  C   UNL     1      -5.674  12.274  20.589  0.00  0.00    +0.000 C 
ATOM      8  C   UNL     1      -5.514  12.038  19.136  0.00  0.00    +0.000 A 
ATOM      9  N   UNL     1      -6.571  12.063  18.315  0.00  0.00    +0.000 NA
ATOM     10  N   UNL     1      -6.051  11.744  17.116  0.00  0.00    +0.000 N 
ATOM     11  C   UNL     1      -4.706  11.493  17.135  0.00  0.00    +0.000 A 
ATOM     12  C   UNL     1      -3.818  11.087  16.140  0.00  0.00    +0.000 A 
ATOM     13  C   UNL     1      -2.487  10.875  16.531  0.00  0.00    +0.000 A 
ATOM     14  C   UNL     1      -2.032  11.110  17.847  0.00  0.00    +0.000 A 
ATOM     15  C   UNL     1      -2.961  11.587  18.792  0.00  0.00    +0.000 A 
ATOM     16  C   UNL     1      -4.316  11.724  18.445  0.00  0.00    +0.000 A 
ATOM     17  H   UNL     1      -6.678  11.697  16.321  0.00  0.00    +0.000 HD
ENDBRANCH   1  14
BRANCH   6  18
ATOM     18  C   UNL     1      -0.198  13.153  19.414  0.00  0.00    +0.000 A 
ATOM     19  C   UNL     1      -0.295  14.285  18.576  0.00  0.00    +0.000 A 
ATOM     20  C   UNL     1      -0.605  15.549  19.076  0.00  0.00    +0.000 A 
ATOM     21 CL   UNL     1      -0.530  16.921  18.039  0.00  0.00    +0.000 Cl
ATOM     22  C   UNL     1      -0.936  15.717  20.414  0.00  0.00    +0.000 A 
ATOM     23  C   UNL     1      -0.924  14.614  21.260  0.00  0.00    +0.000 A 
ATOM     24  C   UNL     1      -0.535  13.358  20.767  0.00  0.00    +0.000 A 
BRANCH  24  25
ATOM     25  O   UNL     1      -0.443  12.334  21.681  0.00  0.00    +0.000 OA
ATOM     26  H   UNL     1      -0.942  12.577  22.478  0.00  0.00    +0.000 HD
ENDBRANCH  24  25
ENDBRANCH   6  18
BRANCH   3  27
ATOM     27  N   UNL     1       1.889   8.158  17.655  0.00  0.00    +0.000 N 
ATOM     28  H   UNL     1       1.950   8.004  16.655  0.00  0.00    +0.000 HD
BRANCH  27  29
ATOM     29  C   UNL     1       2.916   7.484  18.454  0.00  0.00    +0.000 C 
ATOM     30  C   UNL     1       2.243   6.876  19.683  0.00  0.00    +0.000 C 
BRANCH  29  31
ATOM     31  C   UNL     1       3.650   6.449  17.612  0.00  0.00    +0.000 A 
ATOM     32  C   UNL     1       3.357   5.082  17.775  0.00  0.00    +0.000 A 
ATOM     33  C   UNL     1       4.051   4.108  17.054  0.00  0.00    +0.000 A 
ATOM     34  C   UNL     1       5.046   4.482  16.154  0.00  0.00    +0.000 A 
ATOM     35  C   UNL     1       5.333   5.832  15.961  0.00  0.00    +0.000 A 
ATOM     36  C   UNL     1       4.634   6.808  16.677  0.00  0.00    +0.000 A 
ENDBRANCH  29  31
ENDBRANCH  27  29
ENDBRANCH   3  27
TORSDOF 6
ENDMDL
MODEL 4
REMARK VINA RESULT:      -8.5      1.398      1.634
REMARK  Name = 
REMARK  8 active torsions:
REMARK  status: ('A' for Active; 'I' for Inactive)
REMARK    1  A    between atoms: C_1  and  C_2
REMARK    2  A    between atoms: C_8  and  C_9
REMARK    3  A    between atoms: C_11  and  N_12
REMARK    4  A    between atoms: N_12  and  C_13
REMARK    5  A    between atoms: C_13  and  C_14
REMARK    6  A    between atoms: C_13  and  C_15
REMARK    7  A    between atoms: C_23  and  C_24
REMARK    8  A    between atoms: C_30  and  O_31
REMARK                            x       y       z     vdW  Elec       q    Type
REMARK                         _______ _______ _______ _____ _____    ______ ____
ROOT
ATOM      1  C   UNL     1      -0.284  10.047  20.043  0.00  0.00    +0.000 A 
ATOM      2  C   UNL     1       0.401   8.822  19.856  0.00  0.00    +0.000 A 
ATOM      3  C   UNL     1       1.436   8.401  20.684  0.00  0.00    +0.000 A 
ATOM      4  C   UNL     1       1.751   9.273  21.716  0.00  0.00    +0.000 A 
ATOM      5  N   UNL     1       1.091  10.423  21.997  0.00  0.00    +0.000 NA
ATOM      6  C   UNL     1       0.081  10.819  21.166  0.00  0.00    +0.000 A 
ENDROOT
BRANCH   1  14
ATOM      7  C   UNL     1      -5.433  12.578  19.553  0.00  0.00    +0.000 C 
ATOM      8  C   UNL     1      -4.670  12.095  18.379  0.00  0.00    +0.000 A 
ATOM      9  N   UNL     1      -5.189  12.160  17.147  0.00  0.00    +0.000 NA
ATOM     10  N   UNL     1      -4.254  11.579  16.376  0.00  0.00    +0.000 N 
ATOM     11  C   UNL     1      -3.162  11.122  17.063  0.00  0.00    +0.000 A 
ATOM     12  C   UNL     1      -2.024  10.429  16.654  0.00  0.00    +0.000 A 
ATOM     13  C   UNL     1      -1.110  10.071  17.656  0.00  0.00    +0.000 A 
ATOM     14  C   UNL     1      -1.281  10.433  19.010  0.00  0.00    +0.000 A 
ATOM     15  C   UNL     1      -2.416  11.194  19.352  0.00  0.00    +0.000 A 
ATOM     16  C   UNL     1      -3.388  11.490  18.381  0.00  0.00    +0.000 A 
ATOM     17  H   UNL     1      -4.431  11.509  15.380  0.00  0.00    +0.000 HD
ENDBRANCH   1  14
BRANCH   6  18
ATOM     18  C   UNL     1      -0.588  12.090  21.611  0.00  0.00    +0.000 A 
ATOM     19  C   UNL     1      -0.305  13.313  20.964  0.00  0.00    +0.000 A 
ATOM     20  C   UNL     1      -0.839  14.522  21.407  0.00  0.00    +0.000 A 
ATOM     21 CL   UNL     1      -0.316  15.999  20.694  0.00  0.00    +0.000 Cl
ATOM     22  C   UNL     1      -1.762  14.549  22.444  0.00  0.00    +0.000 A 
ATOM     23  C   UNL     1      -2.124  13.358  23.061  0.00  0.00    +0.000 A 
ATOM     24  C   UNL     1      -1.523  12.152  22.663  0.00  0.00    +0.000 A 
BRANCH  24  25
ATOM     25  O   UNL     1      -1.849  11.029  23.387  0.00  0.00    +0.000 OA
ATOM     26  H   UNL     1      -1.722  10.245  22.828  0.00  0.00    +0.000 HD
ENDBRANCH  24  25
ENDBRANCH   6  18
BRANCH   3  27
ATOM     27  N   UNL     1       2.140   7.226  20.472  0.00  0.00    +0.000 N 
ATOM     28  H   UNL     1       2.223   6.608  21.271  0.00  0.00    +0.000 HD
BRANCH  27  29
ATOM     29  C   UNL     1       2.182   6.566  19.165  0.00  0.00    +0.000 C 
ATOM     30  C   UNL     1       3.576   6.764  18.573  0.00  0.00    +0.000 C 
BRANCH  29  31
ATOM     31  C   UNL     1       1.803   5.097  19.299  0.00  0.00    +0.000 A 
ATOM     32  C   UNL     1       1.493   4.570  20.566  0.00  0.00    +0.000 A 
ATOM     33  C   UNL     1       1.193   3.215  20.727  0.00  0.00    +0.000 A 
ATOM     34  C   UNL     1       1.194   2.365  19.624  0.00  0.00    +0.000 A 
ATOM     35  C   UNL     1       1.474   2.873  18.358  0.00  0.00    +0.000 A 
ATOM     36  C   UNL     1       1.767   4.230  18.194  0.00  0.00    +0.000 A 
ENDBRANCH  29  31
ENDBRANCH  27  29
ENDBRANCH   3  27
TORSDOF 6
ENDMDL
MODEL 5
REMARK VINA RESULT:      -8.4      3.085      4.375
REMARK  Name = 
REMARK  8 active torsions:
REMARK  status: ('A' for Active; 'I' for Inactive)
REMARK    1  A    between atoms: C_1  and  C_2
REMARK    2  A    between atoms: C_8  and  C_9
REMARK    3  A    between atoms: C_11  and  N_12
REMARK    4  A    between atoms: N_12  and  C_13
REMARK    5  A    between atoms: C_13  and  C_14
REMARK    6  A    between atoms: C_13  and  C_15
REMARK    7  A    between atoms: C_23  and  C_24
REMARK    8  A    between atoms: C_30  and  O_31
REMARK                            x       y       z     vdW  Elec       q    Type
REMARK                         _______ _______ _______ _____ _____    ______ ____
ROOT
ATOM      1  C   UNL     1       0.610  10.689  19.892  0.00  0.00    +0.000 A 
ATOM      2  C   UNL     1       0.873   9.325  19.612  0.00  0.00    +0.000 A 
ATOM      3  C   UNL     1       1.684   8.913  18.561  0.00  0.00    +0.000 A 
ATOM      4  C   UNL     1       2.224   9.941  17.801  0.00  0.00    +0.000 A 
ATOM      5  N   UNL     1       2.076  11.263  18.056  0.00  0.00    +0.000 NA
ATOM      6  C   UNL     1       1.269  11.645  19.090  0.00  0.00    +0.000 A 
ENDROOT
BRANCH   1  14
ATOM      7  C   UNL     1      -4.064  13.907  20.870  0.00  0.00    +0.000 C 
ATOM      8  C   UNL     1      -3.508  12.984  21.887  0.00  0.00    +0.000 A 
ATOM      9  N   UNL     1      -4.032  12.918  23.116  0.00  0.00    +0.000 NA
ATOM     10  N   UNL     1      -3.237  12.042  23.756  0.00  0.00    +0.000 N 
ATOM     11  C   UNL     1      -2.207  11.558  22.995  0.00  0.00    +0.000 A 
ATOM     12  C   UNL     1      -1.153  10.694  23.291  0.00  0.00    +0.000 A 
ATOM     13  C   UNL     1      -0.234  10.447  22.260  0.00  0.00    +0.000 A 
ATOM     14  C   UNL     1      -0.377  10.984  20.963  0.00  0.00    +0.000 A 
ATOM     15  C   UNL     1      -1.501  11.794  20.705  0.00  0.00    +0.000 A 
ATOM     16  C   UNL     1      -2.388  12.126  21.743  0.00  0.00    +0.000 A 
ATOM     17  H   UNL     1      -3.442  11.830  24.725  0.00  0.00    +0.000 HD
ENDBRANCH   1  14
BRANCH   6  18
ATOM     18  C   UNL     1       1.219  13.135  19.285  0.00  0.00    +0.000 A 
ATOM     19  C   UNL     1       2.093  13.768  20.196  0.00  0.00    +0.000 A 
ATOM     20  C   UNL     1       2.014  15.133  20.466  0.00  0.00    +0.000 A 
ATOM     21 CL   UNL     1       2.982  15.814  21.717  0.00  0.00    +0.000 Cl
ATOM     22  C   UNL     1       1.134  15.943  19.761  0.00  0.00    +0.000 A 
ATOM     23  C   UNL     1       0.305  15.371  18.803  0.00  0.00    +0.000 A 
ATOM     24  C   UNL     1       0.334  13.983  18.591  0.00  0.00    +0.000 A 
BRANCH  24  25
ATOM     25  O   UNL     1      -0.586  13.472  17.705  0.00  0.00    +0.000 OA
ATOM     26  H   UNL     1      -1.228  12.931  18.192  0.00  0.00    +0.000 HD
ENDBRANCH  24  25
ENDBRANCH   6  18
BRANCH   3  27
ATOM     27  N   UNL     1       1.901   7.579  18.255  0.00  0.00    +0.000 N 
ATOM     28  H   UNL     1       1.664   7.295  17.311  0.00  0.00    +0.000 HD
BRANCH  27  29
ATOM     29  C   UNL     1       2.960   6.793  18.895  0.00  0.00    +0.000 C 
ATOM     30  C   UNL     1       2.312   5.855  19.911  0.00  0.00    +0.000 C 
BRANCH  29  31
ATOM     31  C   UNL     1       3.779   6.052  17.847  0.00  0.00    +0.000 A 
ATOM     32  C   UNL     1       4.588   6.776  16.953  0.00  0.00    +0.000 A 
ATOM     33  C   UNL     1       5.309   6.126  15.948  0.00  0.00    +0.000 A 
ATOM     34  C   UNL     1       5.237   4.741  15.822  0.00  0.00    +0.000 A 
ATOM     35  C   UNL     1       4.460   4.004  16.713  0.00  0.00    +0.000 A 
ATOM     36  C   UNL     1       3.744   4.653  17.724  0.00  0.00    +0.000 A 
ENDBRANCH  29  31
ENDBRANCH  27  29
ENDBRANCH   3  27
TORSDOF 6
ENDMDL
MODEL 6
REMARK VINA RESULT:      -8.4      3.082      4.285
REMARK  Name = 
REMARK  8 active torsions:
REMARK  status: ('A' for Active; 'I' for Inactive)
REMARK    1  A    between atoms: C_1  and  C_2
REMARK    2  A    between atoms: C_8  and  C_9
REMARK    3  A    between atoms: C_11  and  N_12
REMARK    4  A    between atoms: N_12  and  C_13
REMARK    5  A    between atoms: C_13  and  C_14
REMARK    6  A    between atoms: C_13  and  C_15
REMARK    7  A    between atoms: C_23  and  C_24
REMARK    8  A    between atoms: C_30  and  O_31
REMARK                            x       y       z     vdW  Elec       q    Type
REMARK                         _______ _______ _______ _____ _____    ______ ____
ROOT
ATOM      1  C   UNL     1       0.542  11.102  19.931  0.00  0.00    +0.000 A 
ATOM      2  C   UNL     1       0.803   9.761  19.559  0.00  0.00    +0.000 A 
ATOM      3  C   UNL     1       1.684   9.418  18.539  0.00  0.00    +0.000 A 
ATOM      4  C   UNL     1       2.296  10.492  17.909  0.00  0.00    +0.000 A 
ATOM      5  N   UNL     1       2.149  11.792  18.262  0.00  0.00    +0.000 NA
ATOM      6  C   UNL     1       1.274  12.106  19.262  0.00  0.00    +0.000 A 
ENDROOT
BRANCH   1  14
ATOM      7  C   UNL     1      -4.623  13.586  20.494  0.00  0.00    +0.000 C 
ATOM      8  C   UNL     1      -3.962  12.866  21.608  0.00  0.00    +0.000 A 
ATOM      9  N   UNL     1      -4.512  12.831  22.827  0.00  0.00    +0.000 NA
ATOM     10  N   UNL     1      -3.609  12.162  23.565  0.00  0.00    +0.000 N 
ATOM     11  C   UNL     1      -2.488  11.784  22.877  0.00  0.00    +0.000 A 
ATOM     12  C   UNL     1      -1.320  11.137  23.277  0.00  0.00    +0.000 A 
ATOM     13  C   UNL     1      -0.336  10.948  22.294  0.00  0.00    +0.000 A 
ATOM     14  C   UNL     1      -0.518  11.331  20.948  0.00  0.00    +0.000 A 
ATOM     15  C   UNL     1      -1.749  11.917  20.589  0.00  0.00    +0.000 A 
ATOM     16  C   UNL     1      -2.714  12.195  21.571  0.00  0.00    +0.000 A 
ATOM     17  H   UNL     1      -3.812  12.011  24.547  0.00  0.00    +0.000 HD
ENDBRANCH   1  14
BRANCH   6  18
ATOM     18  C   UNL     1       1.233  13.576  19.576  0.00  0.00    +0.000 A 
ATOM     19  C   UNL     1       0.393  14.442  18.842  0.00  0.00    +0.000 A 
ATOM     20  C   UNL     1       0.396  15.821  19.047  0.00  0.00    +0.000 A 
ATOM     21 CL   UNL     1      -0.513  16.842  18.001  0.00  0.00    +0.000 Cl
ATOM     22  C   UNL     1       1.156  16.382  20.064  0.00  0.00    +0.000 A 
ATOM     23  C   UNL     1       1.943  15.556  20.858  0.00  0.00    +0.000 A 
ATOM     24  C   UNL     1       1.996  14.177  20.596  0.00  0.00    +0.000 A 
BRANCH  24  25
ATOM     25  O   UNL     1       2.875  13.436  21.352  0.00  0.00    +0.000 OA
ATOM     26  H   UNL     1       2.906  13.803  22.250  0.00  0.00    +0.000 HD
ENDBRANCH  24  25
ENDBRANCH   6  18
BRANCH   3  27
ATOM     27  N   UNL     1       1.903   8.109  18.140  0.00  0.00    +0.000 N 
ATOM     28  H   UNL     1       1.774   7.918  17.153  0.00  0.00    +0.000 HD
BRANCH  27  29
ATOM     29  C   UNL     1       2.856   7.233  18.827  0.00  0.00    +0.000 C 
ATOM     30  C   UNL     1       2.089   6.406  19.857  0.00  0.00    +0.000 C 
BRANCH  29  31
ATOM     31  C   UNL     1       3.605   6.370  17.819  0.00  0.00    +0.000 A 
ATOM     32  C   UNL     1       3.381   4.982  17.786  0.00  0.00    +0.000 A 
ATOM     33  C   UNL     1       4.092   4.160  16.908  0.00  0.00    +0.000 A 
ATOM     34  C   UNL     1       5.036   4.712  16.046  0.00  0.00    +0.000 A 
ATOM     35  C   UNL     1       5.255   6.088  16.047  0.00  0.00    +0.000 A 
ATOM     36  C   UNL     1       4.538   6.913  16.920  0.00  0.00    +0.000 A 
ENDBRANCH  29  31
ENDBRANCH  27  29
ENDBRANCH   3  27
TORSDOF 6
ENDMDL
MODEL 7
REMARK VINA RESULT:      -8.2      0.919      1.154
REMARK  Name = 
REMARK  8 active torsions:
REMARK  status: ('A' for Active; 'I' for Inactive)
REMARK    1  A    between atoms: C_1  and  C_2
REMARK    2  A    between atoms: C_8  and  C_9
REMARK    3  A    between atoms: C_11  and  N_12
REMARK    4  A    between atoms: N_12  and  C_13
REMARK    5  A    between atoms: C_13  and  C_14
REMARK    6  A    between atoms: C_13  and  C_15
REMARK    7  A    between atoms: C_23  and  C_24
REMARK    8  A    between atoms: C_30  and  O_31
REMARK                            x       y       z     vdW  Elec       q    Type
REMARK                         _______ _______ _______ _____ _____    ______ ____
ROOT
ATOM      1  C   UNL     1      -0.369  10.107  20.219  0.00  0.00    +0.000 A 
ATOM      2  C   UNL     1       0.367   8.965  19.820  0.00  0.00    +0.000 A 
ATOM      3  C   UNL     1       1.440   8.466  20.549  0.00  0.00    +0.000 A 
ATOM      4  C   UNL     1       1.739   9.170  21.706  0.00  0.00    +0.000 A 
ATOM      5  N   UNL     1       1.034  10.223  22.185  0.00  0.00    +0.000 NA
ATOM      6  C   UNL     1      -0.013  10.700  21.449  0.00  0.00    +0.000 A 
ENDROOT
BRANCH   1  14
ATOM      7  C   UNL     1      -5.528  12.667  20.245  0.00  0.00    +0.000 C 
ATOM      8  C   UNL     1      -4.817  12.325  18.991  0.00  0.00    +0.000 A 
ATOM      9  N   UNL     1      -5.387  12.530  17.798  0.00  0.00    +0.000 NA
ATOM     10  N   UNL     1      -4.487  12.045  16.926  0.00  0.00    +0.000 N 
ATOM     11  C   UNL     1      -3.369  11.514  17.508  0.00  0.00    +0.000 A 
ATOM     12  C   UNL     1      -2.251  10.875  16.973  0.00  0.00    +0.000 A 
ATOM     13  C   UNL     1      -1.296  10.405  17.888  0.00  0.00    +0.000 A 
ATOM     14  C   UNL     1      -1.408  10.608  19.281  0.00  0.00    +0.000 A 
ATOM     15  C   UNL     1      -2.526  11.322  19.756  0.00  0.00    +0.000 A 
ATOM     16  C   UNL     1      -3.537  11.726  18.868  0.00  0.00    +0.000 A 
ATOM     17  H   UNL     1      -4.707  12.090  15.938  0.00  0.00    +0.000 HD
ENDBRANCH   1  14
BRANCH   6  18
ATOM     18  C   UNL     1      -0.730  11.845  22.109  0.00  0.00    +0.000 A 
ATOM     19  C   UNL     1      -1.839  11.607  22.949  0.00  0.00    +0.000 A 
ATOM     20  C   UNL     1      -2.580  12.648  23.506  0.00  0.00    +0.000 A 
ATOM     21 CL   UNL     1      -4.027  12.301  24.372  0.00  0.00    +0.000 Cl
ATOM     22  C   UNL     1      -2.183  13.968  23.335  0.00  0.00    +0.000 A 
ATOM     23  C   UNL     1      -1.053  14.243  22.574  0.00  0.00    +0.000 A 
ATOM     24  C   UNL     1      -0.356  13.195  21.951  0.00  0.00    +0.000 A 
BRANCH  24  25
ATOM     25  O   UNL     1       0.688  13.548  21.128  0.00  0.00    +0.000 OA
ATOM     26  H   UNL     1       0.766  12.891  20.416  0.00  0.00    +0.000 HD
ENDBRANCH  24  25
ENDBRANCH   6  18
BRANCH   3  27
ATOM     27  N   UNL     1       2.193   7.379  20.134  0.00  0.00    +0.000 N 
ATOM     28  H   UNL     1       2.337   6.649  20.823  0.00  0.00    +0.000 HD
BRANCH  27  29
ATOM     29  C   UNL     1       2.216   6.932  18.738  0.00  0.00    +0.000 C 
ATOM     30  C   UNL     1       3.100   7.892  17.944  0.00  0.00    +0.000 C 
BRANCH  29  31
ATOM     31  C   UNL     1       2.689   5.487  18.651  0.00  0.00    +0.000 A 
ATOM     32  C   UNL     1       1.987   4.571  17.845  0.00  0.00    +0.000 A 
ATOM     33  C   UNL     1       2.366   3.228  17.787  0.00  0.00    +0.000 A 
ATOM     34  C   UNL     1       3.455   2.778  18.530  0.00  0.00    +0.000 A 
ATOM     35  C   UNL     1       4.177   3.675  19.314  0.00  0.00    +0.000 A 
ATOM     36  C   UNL     1       3.803   5.021  19.367  0.00  0.00    +0.000 A 
ENDBRANCH  29  31
ENDBRANCH  27  29
ENDBRANCH   3  27
TORSDOF 6
ENDMDL
MODEL 8
REMARK VINA RESULT:      -8.2      1.966      2.645
REMARK  Name = 
REMARK  8 active torsions:
REMARK  status: ('A' for Active; 'I' for Inactive)
REMARK    1  A    between atoms: C_1  and  C_2
REMARK    2  A    between atoms: C_8  and  C_9
REMARK    3  A    between atoms: C_11  and  N_12
REMARK    4  A    between atoms: N_12  and  C_13
REMARK    5  A    between atoms: C_13  and  C_14
REMARK    6  A    between atoms: C_13  and  C_15
REMARK    7  A    between atoms: C_23  and  C_24
REMARK    8  A    between atoms: C_30  and  O_31
REMARK                            x       y       z     vdW  Elec       q    Type
REMARK                         _______ _______ _______ _____ _____    ______ ____
ROOT
ATOM      1  C   UNL     1      -0.846  10.869  18.514  0.00  0.00    +0.000 A 
ATOM      2  C   UNL     1      -0.157   9.735  18.020  0.00  0.00    +0.000 A 
ATOM      3  C   UNL     1       1.171   9.464  18.330  0.00  0.00    +0.000 A 
ATOM      4  C   UNL     1       1.777  10.391  19.166  0.00  0.00    +0.000 A 
ATOM      5  N   UNL     1       1.158  11.455  19.733  0.00  0.00    +0.000 NA
ATOM      6  C   UNL     1      -0.145  11.704  19.409  0.00  0.00    +0.000 A 
ENDROOT
BRANCH   1  14
ATOM      7  C   UNL     1      -6.162  12.035  20.396  0.00  0.00    +0.000 C 
ATOM      8  C   UNL     1      -5.839  11.906  18.956  0.00  0.00    +0.000 A 
ATOM      9  N   UNL     1      -6.799  11.980  18.027  0.00  0.00    +0.000 NA
ATOM     10  N   UNL     1      -6.146  11.754  16.874  0.00  0.00    +0.000 N 
ATOM     11  C   UNL     1      -4.807  11.514  17.024  0.00  0.00    +0.000 A 
ATOM     12  C   UNL     1      -3.808  11.189  16.107  0.00  0.00    +0.000 A 
ATOM     13  C   UNL     1      -2.525  10.962  16.628  0.00  0.00    +0.000 A 
ATOM     14  C   UNL     1      -2.221  11.106  17.999  0.00  0.00    +0.000 A 
ATOM     15  C   UNL     1      -3.257  11.505  18.867  0.00  0.00    +0.000 A 
ATOM     16  C   UNL     1      -4.567  11.654  18.383  0.00  0.00    +0.000 A 
ATOM     17  H   UNL     1      -6.680  11.759  16.013  0.00  0.00    +0.000 HD
ENDBRANCH   1  14
BRANCH   6  18
ATOM     18  C   UNL     1      -0.719  12.891  20.132  0.00  0.00    +0.000 A 
ATOM     19  C   UNL     1      -1.185  12.765  21.459  0.00  0.00    +0.000 A 
ATOM     20  C   UNL     1      -1.803  13.821  22.127  0.00  0.00    +0.000 A 
ATOM     21 CL   UNL     1      -2.511  13.556  23.674  0.00  0.00    +0.000 Cl
ATOM     22  C   UNL     1      -1.886  15.076  21.540  0.00  0.00    +0.000 A 
ATOM     23  C   UNL     1      -1.375  15.262  20.261  0.00  0.00    +0.000 A 
ATOM     24  C   UNL     1      -0.824  14.175  19.562  0.00  0.00    +0.000 A 
BRANCH  24  25
ATOM     25  O   UNL     1      -0.434  14.407  18.263  0.00  0.00    +0.000 OA
ATOM     26  H   UNL     1      -1.217  14.627  17.733  0.00  0.00    +0.000 HD
ENDBRANCH  24  25
ENDBRANCH   6  18
BRANCH   3  27
ATOM     27  N   UNL     1       1.862   8.382  17.807  0.00  0.00    +0.000 N 
ATOM     28  H   UNL     1       2.054   8.416  16.813  0.00  0.00    +0.000 HD
BRANCH  27  29
ATOM     29  C   UNL     1       2.822   7.611  18.603  0.00  0.00    +0.000 C 
ATOM     30  C   UNL     1       2.071   6.970  19.768  0.00  0.00    +0.000 C 
BRANCH  29  31
ATOM     31  C   UNL     1       3.536   6.589  17.728  0.00  0.00    +0.000 A 
ATOM     32  C   UNL     1       3.198   5.227  17.828  0.00  0.00    +0.000 A 
ATOM     33  C   UNL     1       3.872   4.262  17.077  0.00  0.00    +0.000 A 
ATOM     34  C   UNL     1       4.894   4.642  16.210  0.00  0.00    +0.000 A 
ATOM     35  C   UNL     1       5.227   5.988  16.079  0.00  0.00    +0.000 A 
ATOM     36  C   UNL     1       4.547   6.956  16.825  0.00  0.00    +0.000 A 
ENDBRANCH  29  31
ENDBRANCH  27  29
ENDBRANCH   3  27
TORSDOF 6
ENDMDL
MODEL 9
REMARK VINA RESULT:      -8.2      2.944      3.847
REMARK  Name = 
REMARK  8 active torsions:
REMARK  status: ('A' for Active; 'I' for Inactive)
REMARK    1  A    between atoms: C_1  and  C_2
REMARK    2  A    between atoms: C_8  and  C_9
REMARK    3  A    between atoms: C_11  and  N_12
REMARK    4  A    between atoms: N_12  and  C_13
REMARK    5  A    between atoms: C_13  and  C_14
REMARK    6  A    between atoms: C_13  and  C_15
REMARK    7  A    between atoms: C_23  and  C_24
REMARK    8  A    between atoms: C_30  and  O_31
REMARK                            x       y       z     vdW  Elec       q    Type
REMARK                         _______ _______ _______ _____ _____    ______ ____
ROOT
ATOM      1  C   UNL     1      -0.205  11.589  19.186  0.00  0.00    +0.000 A 
ATOM      2  C   UNL     1       0.133  10.245  18.894  0.00  0.00    +0.000 A 
ATOM      3  C   UNL     1       1.379   9.869  18.407  0.00  0.00    +0.000 A 
ATOM      4  C   UNL     1       2.277  10.911  18.230  0.00  0.00    +0.000 A 
ATOM      5  N   UNL     1       2.047  12.206  18.558  0.00  0.00    +0.000 NA
ATOM      6  C   UNL     1       0.813  12.553  19.028  0.00  0.00    +0.000 A 
ENDROOT
BRANCH   1  14
ATOM      7  C   UNL     1      -3.390  12.721  23.849  0.00  0.00    +0.000 C 
ATOM      8  C   UNL     1      -3.969  12.660  22.486  0.00  0.00    +0.000 A 
ATOM      9  N   UNL     1      -5.286  12.791  22.292  0.00  0.00    +0.000 NA
ATOM     10  N   UNL     1      -5.433  12.616  20.967  0.00  0.00    +0.000 N 
ATOM     11  C   UNL     1      -4.266  12.353  20.302  0.00  0.00    +0.000 A 
ATOM     12  C   UNL     1      -3.998  12.063  18.965  0.00  0.00    +0.000 A 
ATOM     13  C   UNL     1      -2.661  11.795  18.634  0.00  0.00    +0.000 A 
ATOM     14  C   UNL     1      -1.612  11.867  19.576  0.00  0.00    +0.000 A 
ATOM     15  C   UNL     1      -1.936  12.234  20.898  0.00  0.00    +0.000 A 
ATOM     16  C   UNL     1      -3.277  12.422  21.272  0.00  0.00    +0.000 A 
ATOM     17  H   UNL     1      -6.367  12.669  20.578  0.00  0.00    +0.000 HD
ENDBRANCH   1  14
BRANCH   6  18
ATOM     18  C   UNL     1       0.703  14.010  19.386  0.00  0.00    +0.000 A 
ATOM     19  C   UNL     1       0.039  14.911  18.525  0.00  0.00    +0.000 A 
ATOM     20  C   UNL     1      -0.004  16.280  18.782  0.00  0.00    +0.000 A 
ATOM     21 CL   UNL     1      -0.670  17.349  17.608  0.00  0.00    +0.000 Cl
ATOM     22  C   UNL     1       0.519  16.794  19.961  0.00  0.00    +0.000 A 
ATOM     23  C   UNL     1       1.118  15.931  20.870  0.00  0.00    +0.000 A 
ATOM     24  C   UNL     1       1.229  14.564  20.570  0.00  0.00    +0.000 A 
BRANCH  24  25
ATOM     25  O   UNL     1       1.927  13.787  21.466  0.00  0.00    +0.000 OA
ATOM     26  H   UNL     1       1.302  13.391  22.094  0.00  0.00    +0.000 HD
ENDBRANCH  24  25
ENDBRANCH   6  18
BRANCH   3  27
ATOM     27  N   UNL     1       1.694   8.561  18.072  0.00  0.00    +0.000 N 
ATOM     28  H   UNL     1       1.738   8.354  17.081  0.00  0.00    +0.000 HD
BRANCH  27  29
ATOM     29  C   UNL     1       2.541   7.720  18.923  0.00  0.00    +0.000 C 
ATOM     30  C   UNL     1       1.758   7.380  20.190  0.00  0.00    +0.000 C 
BRANCH  29  31
ATOM     31  C   UNL     1       2.996   6.482  18.162  0.00  0.00    +0.000 A 
ATOM     32  C   UNL     1       2.205   5.318  18.186  0.00  0.00    +0.000 A 
ATOM     33  C   UNL     1       2.623   4.152  17.540  0.00  0.00    +0.000 A 
ATOM     34  C   UNL     1       3.836   4.130  16.856  0.00  0.00    +0.000 A 
ATOM     35  C   UNL     1       4.621   5.279  16.800  0.00  0.00    +0.000 A 
ATOM     36  C   UNL     1       4.200   6.450  17.440  0.00  0.00    +0.000 A 
ENDBRANCH  29  31
ENDBRANCH  27  29
ENDBRANCH   3  27
TORSDOF 6
ENDMDL
