MODEL 1
REMARK VINA RESULT:      -7.7      0.000      0.000
REMARK  Name = 
REMARK  5 active torsions:
REMARK  status: ('A' for Active; 'I' for Inactive)
REMARK    1  A    between atoms: C_4  and  C_5
REMARK    2  A    between atoms: C_5  and  O_6
REMARK    3  A    between atoms: O_6  and  C_7
REMARK    4  A    between atoms: N_14  and  C_15
REMARK    5  A    between atoms: C_15  and  C_16
REMARK                            x       y       z     vdW  Elec       q    Type
REMARK                         _______ _______ _______ _____ _____    ______ ____
ROOT
ATOM      1  C   UNL     1       3.296   4.273  17.788  0.00  0.00    +0.000 A 
ATOM      2  C   UNL     1       3.579   2.991  17.283  0.00  0.00    +0.000 A 
ATOM      3  C   UNL     1       3.017   1.842  17.831  0.00  0.00    +0.000 A 
ATOM      4  C   UNL     1       2.151   1.936  18.917  0.00  0.00    +0.000 A 
ATOM      5  C   UNL     1       1.883   3.197  19.484  0.00  0.00    +0.000 A 
ATOM      6  C   UNL     1       1.082   3.599  20.583  0.00  0.00    +0.000 A 
ATOM      7  C   UNL     1       1.223   4.956  20.725  0.00  0.00    +0.000 A 
ATOM      8  N   UNL     1       2.110   5.401  19.769  0.00  0.00    +0.000 N 
ATOM      9  C   UNL     1       2.480   4.347  18.940  0.00  0.00    +0.000 A 
ENDROOT
BRANCH   1  10
ATOM     10  O   UNL     1       3.801   5.422  17.215  0.00  0.00    +0.000 OA
BRANCH  10  11
ATOM     11  C   UNL     1       5.026   5.209  16.498  0.00  0.00    +0.000 C 
BRANCH  11  15
ATOM     12  C   UNL     1       8.224   7.058  18.720  0.00  0.00    +0.000 A 
ATOM     13  C   UNL     1       7.634   7.730  17.652  0.00  0.00    +0.000 A 
ATOM     14  C   UNL     1       6.616   7.119  16.920  0.00  0.00    +0.000 A 
ATOM     15  C   UNL     1       6.176   5.830  17.254  0.00  0.00    +0.000 A 
ATOM     16  C   UNL     1       6.778   5.161  18.328  0.00  0.00    +0.000 A 
ATOM     17  C   UNL     1       7.799   5.774  19.057  0.00  0.00    +0.000 A 
ENDBRANCH  11  15
ENDBRANCH  10  11
ENDBRANCH   1  10
BRANCH   8  18
ATOM     18  C   UNL     1       2.781   6.692  19.877  0.00  0.00    +0.000 C 
BRANCH  18  19
ATOM     19  C   UNL     1       2.070   7.858  19.241  0.00  0.00    +0.000 C 
ATOM     20  N   UNL     1       1.365   8.695  19.968  0.00  0.00    +0.000 NA
ATOM     21  C   UNL     1       1.003   9.791  19.021  0.00  0.00    +0.000 C 
ATOM     22  C   UNL     1       1.897   9.599  17.792  0.00  0.00    +0.000 C 
ATOM     23  N   UNL     1       2.234   8.201  17.919  0.00  0.00    +0.000 N 
ATOM     24  H   UNL     1       3.095   7.884  17.483  0.00  0.00    +0.000 HD
ENDBRANCH  18  19
ENDBRANCH   8  18
TORSDOF 5
ENDMDL
MODEL 2
REMARK VINA RESULT:      -7.5      0.318      1.049
REMARK  Name = 
REMARK  5 active torsions:
REMARK  status: ('A' for Active; 'I' for Inactive)
REMARK    1  A    between atoms: C_4  and  C_5
REMARK    2  A    between atoms: C_5  and  O_6
REMARK    3  A    between atoms: O_6  and  C_7
REMARK    4  A    between atoms: N_14  and  C_15
REMARK    5  A    between atoms: C_15  and  C_16
REMARK                            x       y       z     vdW  Elec       q    Type
REMARK                         _______ _______ _______ _____ _____    ______ ____
ROOT
ATOM      1  C   UNL     1       3.310   3.998  17.821  0.00  0.00    +0.000 A 
ATOM      2  C   UNL     1       3.533   2.641  17.526  0.00  0.00    +0.000 A 
ATOM      3  C   UNL     1       2.959   1.620  18.276  0.00  0.00    +0.000 A 
ATOM      4  C   UNL     1       2.141   1.923  19.361  0.00  0.00    +0.000 A 
ATOM      5  C   UNL     1       1.934   3.269  19.720  0.00  0.00    +0.000 A 
ATOM      6  C   UNL     1       1.192   3.876  20.764  0.00  0.00    +0.000 A 
ATOM      7  C   UNL     1       1.379   5.231  20.675  0.00  0.00    +0.000 A 
ATOM      8  N   UNL     1       2.240   5.480  19.627  0.00  0.00    +0.000 N 
ATOM      9  C   UNL     1       2.544   4.292  18.972  0.00  0.00    +0.000 A 
ENDROOT
BRANCH   1  10
ATOM     10  O   UNL     1       3.826   5.018  17.048  0.00  0.00    +0.000 OA
BRANCH  10  11
ATOM     11  C   UNL     1       5.141   4.739  16.543  0.00  0.00    +0.000 C 
BRANCH  11  15
ATOM     12  C   UNL     1       8.141   7.086  18.563  0.00  0.00    +0.000 A 
ATOM     13  C   UNL     1       7.933   5.756  18.923  0.00  0.00    +0.000 A 
ATOM     14  C   UNL     1       6.945   5.007  18.284  0.00  0.00    +0.000 A 
ATOM     15  C   UNL     1       6.159   5.581  17.275  0.00  0.00    +0.000 A 
ATOM     16  C   UNL     1       6.373   6.921  16.922  0.00  0.00    +0.000 A 
ATOM     17  C   UNL     1       7.361   7.668  17.566  0.00  0.00    +0.000 A 
ENDBRANCH  11  15
ENDBRANCH  10  11
ENDBRANCH   1  10
BRANCH   8  18
ATOM     18  C   UNL     1       2.955   6.745  19.497  0.00  0.00    +0.000 C 
BRANCH  18  19
ATOM     19  C   UNL     1       2.122   7.931  19.081  0.00  0.00    +0.000 C 
ATOM     20  N   UNL     1       1.382   8.574  19.956  0.00  0.00    +0.000 NA
ATOM     21  C   UNL     1       0.889   9.771  19.212  0.00  0.00    +0.000 C 
ATOM     22  C   UNL     1       1.741   9.860  17.943  0.00  0.00    +0.000 C 
ATOM     23  N   UNL     1       2.199   8.495  17.829  0.00  0.00    +0.000 N 
ATOM     24  H   UNL     1       3.063   8.330  17.322  0.00  0.00    +0.000 HD
ENDBRANCH  18  19
ENDBRANCH   8  18
TORSDOF 5
ENDMDL
MODEL 3
REMARK VINA RESULT:      -7.4      1.941      5.116
REMARK  Name = 
REMARK  5 active torsions:
REMARK  status: ('A' for Active; 'I' for Inactive)
REMARK    1  A    between atoms: C_4  and  C_5
REMARK    2  A    between atoms: C_5  and  O_6
REMARK    3  A    between atoms: O_6  and  C_7
REMARK    4  A    between atoms: N_14  and  C_15
REMARK    5  A    between atoms: C_15  and  C_16
REMARK                            x       y       z     vdW  Elec       q    Type
REMARK                         _______ _______ _______ _____ _____    ______ ____
ROOT
ATOM      1  C   UNL     1       2.665   4.952  19.580  0.00  0.00    +0.000 A 
ATOM      2  C   UNL     1       1.567   4.830  20.451  0.00  0.00    +0.000 A 
ATOM      3  C   UNL     1       0.991   3.597  20.742  0.00  0.00    +0.000 A 
ATOM      4  C   UNL     1       1.493   2.435  20.162  0.00  0.00    +0.000 A 
ATOM      5  C   UNL     1       2.559   2.522  19.246  0.00  0.00    +0.000 A 
ATOM      6  C   UNL     1       3.252   1.541  18.491  0.00  0.00    +0.000 A 
ATOM      7  C   UNL     1       4.177   2.190  17.715  0.00  0.00    +0.000 A 
ATOM      8  N   UNL     1       4.057   3.545  17.942  0.00  0.00    +0.000 N 
ATOM      9  C   UNL     1       3.113   3.776  18.936  0.00  0.00    +0.000 A 
ENDROOT
BRANCH   1  10
ATOM     10  O   UNL     1       3.281   6.161  19.331  0.00  0.00    +0.000 OA
BRANCH  10  11
ATOM     11  C   UNL     1       2.651   6.915  18.284  0.00  0.00    +0.000 C 
BRANCH  11  15
ATOM     12  C   UNL     1       0.694  10.409  19.877  0.00  0.00    +0.000 A 
ATOM     13  C   UNL     1       1.054  10.361  18.532  0.00  0.00    +0.000 A 
ATOM     14  C   UNL     1       1.709   9.238  18.025  0.00  0.00    +0.000 A 
ATOM     15  C   UNL     1       2.005   8.151  18.860  0.00  0.00    +0.000 A 
ATOM     16  C   UNL     1       1.642   8.211  20.212  0.00  0.00    +0.000 A 
ATOM     17  C   UNL     1       0.990   9.337  20.717  0.00  0.00    +0.000 A 
ENDBRANCH  11  15
ENDBRANCH  10  11
ENDBRANCH   1  10
BRANCH   8  18
ATOM     18  C   UNL     1       4.596   4.535  17.015  0.00  0.00    +0.000 C 
BRANCH  18  19
ATOM     19  C   UNL     1       5.919   5.145  17.402  0.00  0.00    +0.000 C 
ATOM     20  N   UNL     1       6.130   6.435  17.267  0.00  0.00    +0.000 NA
ATOM     21  C   UNL     1       7.446   6.663  17.933  0.00  0.00    +0.000 C 
ATOM     22  C   UNL     1       7.738   5.394  18.738  0.00  0.00    +0.000 C 
ATOM     23  N   UNL     1       6.907   4.438  18.047  0.00  0.00    +0.000 N 
ATOM     24  H   UNL     1       6.599   3.620  18.565  0.00  0.00    +0.000 HD
ENDBRANCH  18  19
ENDBRANCH   8  18
TORSDOF 5
ENDMDL
MODEL 4
REMARK VINA RESULT:      -7.4      0.793      1.193
REMARK  Name = 
REMARK  5 active torsions:
REMARK  status: ('A' for Active; 'I' for Inactive)
REMARK    1  A    between atoms: C_4  and  C_5
REMARK    2  A    between atoms: C_5  and  O_6
REMARK    3  A    between atoms: O_6  and  C_7
REMARK    4  A    between atoms: N_14  and  C_15
REMARK    5  A    between atoms: C_15  and  C_16
REMARK                            x       y       z     vdW  Elec       q    Type
REMARK                         _______ _______ _______ _____ _____    ______ ____
ROOT
ATOM      1  C   UNL     1       3.418   3.948  17.808  0.00  0.00    +0.000 A 
ATOM      2  C   UNL     1       3.744   2.607  17.534  0.00  0.00    +0.000 A 
ATOM      3  C   UNL     1       3.194   1.553  18.257  0.00  0.00    +0.000 A 
ATOM      4  C   UNL     1       2.298   1.805  19.291  0.00  0.00    +0.000 A 
ATOM      5  C   UNL     1       1.985   3.136  19.630  0.00  0.00    +0.000 A 
ATOM      6  C   UNL     1       1.146   3.696  20.627  0.00  0.00    +0.000 A 
ATOM      7  C   UNL     1       1.252   5.060  20.540  0.00  0.00    +0.000 A 
ATOM      8  N   UNL     1       2.154   5.362  19.542  0.00  0.00    +0.000 N 
ATOM      9  C   UNL     1       2.570   4.194  18.912  0.00  0.00    +0.000 A 
ENDROOT
BRANCH   1  10
ATOM     10  O   UNL     1       3.911   4.997  17.060  0.00  0.00    +0.000 OA
BRANCH  10  11
ATOM     11  C   UNL     1       5.200   4.730  16.487  0.00  0.00    +0.000 C 
BRANCH  11  15
ATOM     12  C   UNL     1       8.123   7.089  18.602  0.00  0.00    +0.000 A 
ATOM     13  C   UNL     1       7.428   7.636  17.525  0.00  0.00    +0.000 A 
ATOM     14  C   UNL     1       6.501   6.862  16.828  0.00  0.00    +0.000 A 
ATOM     15  C   UNL     1       6.257   5.534  17.206  0.00  0.00    +0.000 A 
ATOM     16  C   UNL     1       6.963   4.992  18.288  0.00  0.00    +0.000 A 
ATOM     17  C   UNL     1       7.893   5.768  18.981  0.00  0.00    +0.000 A 
ENDBRANCH  11  15
ENDBRANCH  10  11
ENDBRANCH   1  10
BRANCH   8  18
ATOM     18  C   UNL     1       2.792   6.670  19.446  0.00  0.00    +0.000 C 
BRANCH  18  19
ATOM     19  C   UNL     1       2.007   7.828  20.008  0.00  0.00    +0.000 C 
ATOM     20  N   UNL     1       1.402   8.680  19.212  0.00  0.00    +0.000 NA
ATOM     21  C   UNL     1       0.591   9.530  20.133  0.00  0.00    +0.000 C 
ATOM     22  C   UNL     1       0.575   8.799  21.479  0.00  0.00    +0.000 C 
ATOM     23  N   UNL     1       1.752   7.974  21.352  0.00  0.00    +0.000 N 
ATOM     24  H   UNL     1       1.792   7.123  21.904  0.00  0.00    +0.000 HD
ENDBRANCH  18  19
ENDBRANCH   8  18
TORSDOF 5
ENDMDL
MODEL 5
REMARK VINA RESULT:      -7.4      1.862      5.193
REMARK  Name = 
REMARK  5 active torsions:
REMARK  status: ('A' for Active; 'I' for Inactive)
REMARK    1  A    between atoms: C_4  and  C_5
REMARK    2  A    between atoms: C_5  and  O_6
REMARK    3  A    between atoms: O_6  and  C_7
REMARK    4  A    between atoms: N_14  and  C_15
REMARK    5  A    between atoms: C_15  and  C_16
REMARK                            x       y       z     vdW  Elec       q    Type
REMARK                         _______ _______ _______ _____ _____    ______ ____
ROOT
ATOM      1  C   UNL     1       2.330   4.992  19.774  0.00  0.00    +0.000 A 
ATOM      2  C   UNL     1       1.264   4.458  20.520  0.00  0.00    +0.000 A 
ATOM      3  C   UNL     1       0.879   3.126  20.406  0.00  0.00    +0.000 A 
ATOM      4  C   UNL     1       1.549   2.276  19.530  0.00  0.00    +0.000 A 
ATOM      5  C   UNL     1       2.588   2.786  18.728  0.00  0.00    +0.000 A 
ATOM      6  C   UNL     1       3.420   2.187  17.747  0.00  0.00    +0.000 A 
ATOM      7  C   UNL     1       4.236   3.165  17.241  0.00  0.00    +0.000 A 
ATOM      8  N   UNL     1       3.914   4.357  17.854  0.00  0.00    +0.000 N 
ATOM      9  C   UNL     1       2.948   4.141  18.830  0.00  0.00    +0.000 A 
ENDROOT
BRANCH   1  10
ATOM     10  O   UNL     1       2.757   6.296  19.923  0.00  0.00    +0.000 OA
BRANCH  10  11
ATOM     11  C   UNL     1       1.847   7.109  20.679  0.00  0.00    +0.000 C 
BRANCH  11  15
ATOM     12  C   UNL     1       1.035  10.770  18.552  0.00  0.00    +0.000 A 
ATOM     13  C   UNL     1       0.599  10.611  19.865  0.00  0.00    +0.000 A 
ATOM     14  C   UNL     1       0.842   9.417  20.543  0.00  0.00    +0.000 A 
ATOM     15  C   UNL     1       1.529   8.370  19.912  0.00  0.00    +0.000 A 
ATOM     16  C   UNL     1       1.961   8.537  18.589  0.00  0.00    +0.000 A 
ATOM     17  C   UNL     1       1.713   9.733  17.913  0.00  0.00    +0.000 A 
ENDBRANCH  11  15
ENDBRANCH  10  11
ENDBRANCH   1  10
BRANCH   8  18
ATOM     18  C   UNL     1       4.297   5.646  17.288  0.00  0.00    +0.000 C 
BRANCH  18  19
ATOM     19  C   UNL     1       5.743   6.037  17.463  0.00  0.00    +0.000 C 
ATOM     20  N   UNL     1       6.216   7.131  16.910  0.00  0.00    +0.000 NA
ATOM     21  C   UNL     1       7.592   7.263  17.474  0.00  0.00    +0.000 C 
ATOM     22  C   UNL     1       7.657   6.293  18.658  0.00  0.00    +0.000 C 
ATOM     23  N   UNL     1       6.597   5.376  18.315  0.00  0.00    +0.000 N 
ATOM     24  H   UNL     1       6.156   4.862  19.071  0.00  0.00    +0.000 HD
ENDBRANCH  18  19
ENDBRANCH   8  18
TORSDOF 5
ENDMDL
MODEL 6
REMARK VINA RESULT:      -7.4      0.806      1.564
REMARK  Name = 
REMARK  5 active torsions:
REMARK  status: ('A' for Active; 'I' for Inactive)
REMARK    1  A    between atoms: C_4  and  C_5
REMARK    2  A    between atoms: C_5  and  O_6
REMARK    3  A    between atoms: O_6  and  C_7
REMARK    4  A    between atoms: N_14  and  C_15
REMARK    5  A    between atoms: C_15  and  C_16
REMARK                            x       y       z     vdW  Elec       q    Type
REMARK                         _______ _______ _______ _____ _____    ______ ____
ROOT
ATOM      1  C   UNL     1       3.368   3.978  17.849  0.00  0.00    +0.000 A 
ATOM      2  C   UNL     1       3.695   2.632  17.604  0.00  0.00    +0.000 A 
ATOM      3  C   UNL     1       3.145   1.593  18.346  0.00  0.00    +0.000 A 
ATOM      4  C   UNL     1       2.245   1.865  19.373  0.00  0.00    +0.000 A 
ATOM      5  C   UNL     1       1.931   3.202  19.683  0.00  0.00    +0.000 A 
ATOM      6  C   UNL     1       1.088   3.783  20.666  0.00  0.00    +0.000 A 
ATOM      7  C   UNL     1       1.193   5.145  20.552  0.00  0.00    +0.000 A 
ATOM      8  N   UNL     1       2.098   5.426  19.550  0.00  0.00    +0.000 N 
ATOM      9  C   UNL     1       2.517   4.246  18.946  0.00  0.00    +0.000 A 
ENDROOT
BRANCH   1  10
ATOM     10  O   UNL     1       3.862   5.012  17.081  0.00  0.00    +0.000 OA
BRANCH  10  11
ATOM     11  C   UNL     1       5.175   4.755  16.559  0.00  0.00    +0.000 C 
BRANCH  11  15
ATOM     12  C   UNL     1       8.177   7.059  18.625  0.00  0.00    +0.000 A 
ATOM     13  C   UNL     1       7.909   5.748  19.014  0.00  0.00    +0.000 A 
ATOM     14  C   UNL     1       6.920   5.014  18.360  0.00  0.00    +0.000 A 
ATOM     15  C   UNL     1       6.193   5.584  17.305  0.00  0.00    +0.000 A 
ATOM     16  C   UNL     1       6.467   6.904  16.923  0.00  0.00    +0.000 A 
ATOM     17  C   UNL     1       7.455   7.637  17.583  0.00  0.00    +0.000 A 
ENDBRANCH  11  15
ENDBRANCH  10  11
ENDBRANCH   1  10
BRANCH   8  18
ATOM     18  C   UNL     1       2.736   6.733  19.428  0.00  0.00    +0.000 C 
BRANCH  18  19
ATOM     19  C   UNL     1       1.979   7.892  20.026  0.00  0.00    +0.000 C 
ATOM     20  N   UNL     1       1.419   8.798  19.257  0.00  0.00    +0.000 NA
ATOM     21  C   UNL     1       0.619   9.636  20.199  0.00  0.00    +0.000 C 
ATOM     22  C   UNL     1       0.551   8.849  21.511  0.00  0.00    +0.000 C 
ATOM     23  N   UNL     1       1.703   7.989  21.370  0.00  0.00    +0.000 N 
ATOM     24  H   UNL     1       1.703   7.115  21.886  0.00  0.00    +0.000 HD
ENDBRANCH  18  19
ENDBRANCH   8  18
TORSDOF 5
ENDMDL
MODEL 7
REMARK VINA RESULT:      -7.4      1.947      5.186
REMARK  Name = 
REMARK  5 active torsions:
REMARK  status: ('A' for Active; 'I' for Inactive)
REMARK    1  A    between atoms: C_4  and  C_5
REMARK    2  A    between atoms: C_5  and  O_6
REMARK    3  A    between atoms: O_6  and  C_7
REMARK    4  A    between atoms: N_14  and  C_15
REMARK    5  A    between atoms: C_15  and  C_16
REMARK                            x       y       z     vdW  Elec       q    Type
REMARK                         _______ _______ _______ _____ _____    ______ ____
ROOT
ATOM      1  C   UNL     1       2.659   4.964  19.574  0.00  0.00    +0.000 A 
ATOM      2  C   UNL     1       1.556   4.830  20.436  0.00  0.00    +0.000 A 
ATOM      3  C   UNL     1       0.989   3.592  20.722  0.00  0.00    +0.000 A 
ATOM      4  C   UNL     1       1.506   2.435  20.145  0.00  0.00    +0.000 A 
ATOM      5  C   UNL     1       2.578   2.532  19.237  0.00  0.00    +0.000 A 
ATOM      6  C   UNL     1       3.286   1.559  18.488  0.00  0.00    +0.000 A 
ATOM      7  C   UNL     1       4.211   2.217  17.719  0.00  0.00    +0.000 A 
ATOM      8  N   UNL     1       4.076   3.570  17.945  0.00  0.00    +0.000 N 
ATOM      9  C   UNL     1       3.123   3.792  18.933  0.00  0.00    +0.000 A 
ENDROOT
BRANCH   1  10
ATOM     10  O   UNL     1       3.266   6.179  19.331  0.00  0.00    +0.000 OA
BRANCH  10  11
ATOM     11  C   UNL     1       2.643   6.923  18.272  0.00  0.00    +0.000 C 
BRANCH  11  15
ATOM     12  C   UNL     1       0.823  10.456  19.942  0.00  0.00    +0.000 A 
ATOM     13  C   UNL     1       1.052   9.340  20.745  0.00  0.00    +0.000 A 
ATOM     14  C   UNL     1       1.619   8.190  20.196  0.00  0.00    +0.000 A 
ATOM     15  C   UNL     1       1.966   8.148  18.838  0.00  0.00    +0.000 A 
ATOM     16  C   UNL     1       1.729   9.274  18.038  0.00  0.00    +0.000 A 
ATOM     17  C   UNL     1       1.159  10.422  18.590  0.00  0.00    +0.000 A 
ENDBRANCH  11  15
ENDBRANCH  10  11
ENDBRANCH   1  10
BRANCH   8  18
ATOM     18  C   UNL     1       4.613   4.566  17.024  0.00  0.00    +0.000 C 
BRANCH  18  19
ATOM     19  C   UNL     1       5.933   5.180  17.415  0.00  0.00    +0.000 C 
ATOM     20  N   UNL     1       6.166   6.458  17.221  0.00  0.00    +0.000 NA
ATOM     21  C   UNL     1       7.467   6.705  17.910  0.00  0.00    +0.000 C 
ATOM     22  C   UNL     1       7.720   5.475  18.786  0.00  0.00    +0.000 C 
ATOM     23  N   UNL     1       6.895   4.494  18.122  0.00  0.00    +0.000 N 
ATOM     24  H   UNL     1       6.563   3.708  18.672  0.00  0.00    +0.000 HD
ENDBRANCH  18  19
ENDBRANCH   8  18
TORSDOF 5
ENDMDL
MODEL 8
REMARK VINA RESULT:      -7.3      1.852      5.190
REMARK  Name = 
REMARK  5 active torsions:
REMARK  status: ('A' for Active; 'I' for Inactive)
REMARK    1  A    between atoms: C_4  and  C_5
REMARK    2  A    between atoms: C_5  and  O_6
REMARK    3  A    between atoms: O_6  and  C_7
REMARK    4  A    between atoms: N_14  and  C_15
REMARK    5  A    between atoms: C_15  and  C_16
REMARK                            x       y       z     vdW  Elec       q    Type
REMARK                         _______ _______ _______ _____ _____    ______ ____
ROOT
ATOM      1  C   UNL     1       2.220   5.010  19.798  0.00  0.00    +0.000 A 
ATOM      2  C   UNL     1       1.118   4.431  20.453  0.00  0.00    +0.000 A 
ATOM      3  C   UNL     1       0.719   3.121  20.207  0.00  0.00    +0.000 A 
ATOM      4  C   UNL     1       1.411   2.340  19.285  0.00  0.00    +0.000 A 
ATOM      5  C   UNL     1       2.488   2.900  18.572  0.00  0.00    +0.000 A 
ATOM      6  C   UNL     1       3.350   2.375  17.575  0.00  0.00    +0.000 A 
ATOM      7  C   UNL     1       4.199   3.379  17.188  0.00  0.00    +0.000 A 
ATOM      8  N   UNL     1       3.870   4.518  17.891  0.00  0.00    +0.000 N 
ATOM      9  C   UNL     1       2.863   4.234  18.807  0.00  0.00    +0.000 A 
ENDROOT
BRANCH   1  10
ATOM     10  O   UNL     1       2.659   6.288  20.078  0.00  0.00    +0.000 OA
BRANCH  10  11
ATOM     11  C   UNL     1       1.673   7.096  20.738  0.00  0.00    +0.000 C 
BRANCH  11  15
ATOM     12  C   UNL     1       1.092  10.778  18.573  0.00  0.00    +0.000 A 
ATOM     13  C   UNL     1       1.678   9.681  17.945  0.00  0.00    +0.000 A 
ATOM     14  C   UNL     1       1.887   8.499  18.655  0.00  0.00    +0.000 A 
ATOM     15  C   UNL     1       1.506   8.403  20.001  0.00  0.00    +0.000 A 
ATOM     16  C   UNL     1       0.921   9.513  20.626  0.00  0.00    +0.000 A 
ATOM     17  C   UNL     1       0.716  10.695  19.912  0.00  0.00    +0.000 A 
ENDBRANCH  11  15
ENDBRANCH  10  11
ENDBRANCH   1  10
BRANCH   8  18
ATOM     18  C   UNL     1       4.294   5.845  17.456  0.00  0.00    +0.000 C 
BRANCH  18  19
ATOM     19  C   UNL     1       5.766   6.142  17.590  0.00  0.00    +0.000 C 
ATOM     20  N   UNL     1       6.307   7.161  16.962  0.00  0.00    +0.000 NA
ATOM     21  C   UNL     1       7.697   7.230  17.503  0.00  0.00    +0.000 C 
ATOM     22  C   UNL     1       7.711   6.336  18.746  0.00  0.00    +0.000 C 
ATOM     23  N   UNL     1       6.583   5.477  18.474  0.00  0.00    +0.000 N 
ATOM     24  H   UNL     1       6.119   5.045  19.268  0.00  0.00    +0.000 HD
ENDBRANCH  18  19
ENDBRANCH   8  18
TORSDOF 5
ENDMDL
MODEL 9
REMARK VINA RESULT:      -7.3      1.616      4.932
REMARK  Name = 
REMARK  5 active torsions:
REMARK  status: ('A' for Active; 'I' for Inactive)
REMARK    1  A    between atoms: C_4  and  C_5
REMARK    2  A    between atoms: C_5  and  O_6
REMARK    3  A    between atoms: O_6  and  C_7
REMARK    4  A    between atoms: N_14  and  C_15
REMARK    5  A    between atoms: C_15  and  C_16
REMARK                            x       y       z     vdW  Elec       q    Type
REMARK                         _______ _______ _______ _____ _____    ______ ____
ROOT
ATOM      1  C   UNL     1       4.706   4.058  16.594  0.00  0.00    +0.000 A 
ATOM      2  C   UNL     1       5.162   3.856  15.279  0.00  0.00    +0.000 A 
ATOM      3  C   UNL     1       6.447   4.211  14.882  0.00  0.00    +0.000 A 
ATOM      4  C   UNL     1       7.327   4.790  15.792  0.00  0.00    +0.000 A 
ATOM      5  C   UNL     1       6.891   5.056  17.104  0.00  0.00    +0.000 A 
ATOM      6  C   UNL     1       7.533   5.647  18.223  0.00  0.00    +0.000 A 
ATOM      7  C   UNL     1       6.620   5.704  19.244  0.00  0.00    +0.000 A 
ATOM      8  N   UNL     1       5.424   5.196  18.784  0.00  0.00    +0.000 N 
ATOM      9  C   UNL     1       5.580   4.721  17.486  0.00  0.00    +0.000 A 
ENDROOT
BRANCH   1  10
ATOM     10  O   UNL     1       3.454   3.657  17.014  0.00  0.00    +0.000 OA
BRANCH  10  11
ATOM     11  C   UNL     1       3.465   2.407  17.720  0.00  0.00    +0.000 C 
BRANCH  11  15
ATOM     12  C   UNL     1       1.353   2.914  21.444  0.00  0.00    +0.000 A 
ATOM     13  C   UNL     1       2.681   2.492  21.444  0.00  0.00    +0.000 A 
ATOM     14  C   UNL     1       3.354   2.306  20.237  0.00  0.00    +0.000 A 
ATOM     15  C   UNL     1       2.705   2.545  19.017  0.00  0.00    +0.000 A 
ATOM     16  C   UNL     1       1.368   2.966  19.027  0.00  0.00    +0.000 A 
ATOM     17  C   UNL     1       0.696   3.148  20.237  0.00  0.00    +0.000 A 
ENDBRANCH  11  15
ENDBRANCH  10  11
ENDBRANCH   1  10
BRANCH   8  18
ATOM     18  C   UNL     1       4.159   5.464  19.459  0.00  0.00    +0.000 C 
BRANCH  18  19
ATOM     19  C   UNL     1       3.319   6.567  18.869  0.00  0.00    +0.000 C 
ATOM     20  N   UNL     1       2.341   7.111  19.558  0.00  0.00    +0.000 NA
ATOM     21  C   UNL     1       1.902   8.268  18.723  0.00  0.00    +0.000 C 
ATOM     22  C   UNL     1       2.999   8.473  17.675  0.00  0.00    +0.000 C 
ATOM     23  N   UNL     1       3.611   7.165  17.665  0.00  0.00    +0.000 N 
ATOM     24  H   UNL     1       4.579   7.101  17.363  0.00  0.00    +0.000 HD
ENDBRANCH  18  19
ENDBRANCH   8  18
TORSDOF 5
ENDMDL
