MODEL 1
REMARK VINA RESULT:      -8.2      0.000      0.000
REMARK  Name = 
REMARK  12 active torsions:
REMARK  status: ('A' for Active; 'I' for Inactive)
REMARK    1  A    between atoms: C_1  and  C_2
REMARK    2  A    between atoms: C_5  and  N_6
REMARK    3  A    between atoms: C_7  and  C_9
REMARK    4  A    between atoms: C_9  and  O_10
REMARK    5  A    between atoms: O_10  and  C_11
REMARK    6  A    between atoms: C_11  and  C_13
REMARK    7  A    between atoms: C_13  and  N_14
REMARK    8  A    between atoms: C_13  and  C_25
REMARK    9  A    between atoms: N_14  and  S_15
REMARK   10  A    between atoms: S_15  and  C_18
REMARK   11  A    between atoms: C_25  and  C_26
REMARK   12  A    between atoms: C_25  and  O_27
REMARK                            x       y       z     vdW  Elec       q    Type
REMARK                         _______ _______ _______ _____ _____    ______ ____
ROOT
ATOM      1  C   UNL     1       5.875   4.269  16.717  0.00  0.00    +0.000 C 
ENDROOT
BRANCH   1   2
ATOM      2  C   UNL     1       6.503   4.943  17.943  0.00  0.00    +0.000 C 
ATOM      3  O   UNL     1       6.429   4.525  19.091  0.00  0.00    +0.000 OA
BRANCH   2   4
ATOM      4  O   UNL     1       6.931   6.211  17.645  0.00  0.00    +0.000 OA
BRANCH   4   5
ATOM      5  C   UNL     1       7.973   6.655  18.525  0.00  0.00    +0.000 C 
BRANCH   5   7
ATOM      6  N   UNL     1       8.985   8.806  19.142  0.00  0.00    +0.000 N 
ATOM      7  C   UNL     1       8.149   8.152  18.257  0.00  0.00    +0.000 C 
ATOM      8  O   UNL     1       7.525   8.678  17.335  0.00  0.00    +0.000 OA
ATOM      9  H   UNL     1       9.464   8.249  19.841  0.00  0.00    +0.000 HD
BRANCH   6  14
ATOM     10  C   UNL     1       9.957  14.463  19.110  0.00  0.00    +0.000 C 
ATOM     11  C   UNL     1       9.710  12.984  19.132  0.00  0.00    +0.000 A 
ATOM     12  C   UNL     1       9.554  12.312  20.342  0.00  0.00    +0.000 A 
ATOM     13  C   UNL     1       9.316  10.935  20.365  0.00  0.00    +0.000 A 
ATOM     14  C   UNL     1       9.224  10.200  19.182  0.00  0.00    +0.000 A 
ATOM     15  C   UNL     1       9.391  10.873  17.967  0.00  0.00    +0.000 A 
ATOM     16  C   UNL     1       9.629  12.254  17.943  0.00  0.00    +0.000 A 
ENDBRANCH   6  14
ENDBRANCH   5   7
ENDBRANCH   4   5
ENDBRANCH   2   4
ENDBRANCH   1   2
BRANCH   1  17
ATOM     17  N   UNL     1       4.415   4.582  16.567  0.00  0.00    +0.000 NA
ATOM     18  H   UNL     1       4.092   4.647  15.598  0.00  0.00    +0.000 HD
BRANCH  17  19
ATOM     19  S   UNL     1       3.303   3.780  17.537  0.00  0.00    +0.000 S 
ATOM     20  O   UNL     1       2.172   3.465  16.691  0.00  0.00    +0.000 OA
ATOM     21  O   UNL     1       4.008   2.759  18.279  0.00  0.00    +0.000 OA
BRANCH  19  22
ATOM     22  C   UNL     1       2.774   5.036  18.673  0.00  0.00    +0.000 A 
ATOM     23  C   UNL     1       2.168   4.662  19.875  0.00  0.00    +0.000 A 
ATOM     24  C   UNL     1       1.680   5.652  20.732  0.00  0.00    +0.000 A 
ATOM     25  C   UNL     1       1.796   6.998  20.377  0.00  0.00    +0.000 A 
ATOM     26 CL   UNL     1       1.166   8.212  21.421  0.00  0.00    +0.000 Cl
ATOM     27  C   UNL     1       2.415   7.370  19.184  0.00  0.00    +0.000 A 
ATOM     28  C   UNL     1       2.923   6.387  18.335  0.00  0.00    +0.000 A 
ENDBRANCH  19  22
ENDBRANCH  17  19
ENDBRANCH   1  17
BRANCH   1  29
ATOM     29  C   UNL     1       6.647   4.489  15.398  0.00  0.00    +0.000 C 
ATOM     30  C   UNL     1       6.183   3.676  14.197  0.00  0.00    +0.000 C 
BRANCH  29  31
ATOM     31  O   UNL     1       6.556   5.872  15.002  0.00  0.00    +0.000 OA
ATOM     32  H   UNL     1       5.844   5.957  14.344  0.00  0.00    +0.000 HD
ENDBRANCH  29  31
ENDBRANCH   1  29
TORSDOF 10
ENDMDL
MODEL 2
REMARK VINA RESULT:      -7.9      0.455      1.010
REMARK  Name = 
REMARK  12 active torsions:
REMARK  status: ('A' for Active; 'I' for Inactive)
REMARK    1  A    between atoms: C_1  and  C_2
REMARK    2  A    between atoms: C_5  and  N_6
REMARK    3  A    between atoms: C_7  and  C_9
REMARK    4  A    between atoms: C_9  and  O_10
REMARK    5  A    between atoms: O_10  and  C_11
REMARK    6  A    between atoms: C_11  and  C_13
REMARK    7  A    between atoms: C_13  and  N_14
REMARK    8  A    between atoms: C_13  and  C_25
REMARK    9  A    between atoms: N_14  and  S_15
REMARK   10  A    between atoms: S_15  and  C_18
REMARK   11  A    between atoms: C_25  and  C_26
REMARK   12  A    between atoms: C_25  and  O_27
REMARK                            x       y       z     vdW  Elec       q    Type
REMARK                         _______ _______ _______ _____ _____    ______ ____
ROOT
ATOM      1  C   UNL     1       5.730   4.636  16.983  0.00  0.00    +0.000 C 
ENDROOT
BRANCH   1   2
ATOM      2  C   UNL     1       6.247   5.521  18.123  0.00  0.00    +0.000 C 
ATOM      3  O   UNL     1       5.984   5.366  19.309  0.00  0.00    +0.000 OA
BRANCH   2   4
ATOM      4  O   UNL     1       6.822   6.668  17.638  0.00  0.00    +0.000 OA
BRANCH   4   5
ATOM      5  C   UNL     1       8.041   6.996  18.319  0.00  0.00    +0.000 C 
BRANCH   5   7
ATOM      6  N   UNL     1       9.156   9.054  19.062  0.00  0.00    +0.000 N 
ATOM      7  C   UNL     1       8.167   8.520  18.258  0.00  0.00    +0.000 C 
ATOM      8  O   UNL     1       7.382   9.164  17.560  0.00  0.00    +0.000 OA
ATOM      9  H   UNL     1       9.756   8.410  19.565  0.00  0.00    +0.000 HD
BRANCH   6  14
ATOM     10  C   UNL     1      10.197  14.660  19.723  0.00  0.00    +0.000 C 
ATOM     11  C   UNL     1       9.929  13.193  19.565  0.00  0.00    +0.000 A 
ATOM     12  C   UNL     1       9.501  12.432  20.651  0.00  0.00    +0.000 A 
ATOM     13  C   UNL     1       9.242  11.067  20.504  0.00  0.00    +0.000 A 
ATOM     14  C   UNL     1       9.402  10.432  19.271  0.00  0.00    +0.000 A 
ATOM     15  C   UNL     1       9.842  11.193  18.183  0.00  0.00    +0.000 A 
ATOM     16  C   UNL     1      10.100  12.563  18.329  0.00  0.00    +0.000 A 
ENDBRANCH   6  14
ENDBRANCH   5   7
ENDBRANCH   4   5
ENDBRANCH   2   4
ENDBRANCH   1   2
BRANCH   1  17
ATOM     17  N   UNL     1       4.253   4.781  16.760  0.00  0.00    +0.000 NA
ATOM     18  H   UNL     1       3.964   4.723  15.780  0.00  0.00    +0.000 HD
BRANCH  17  19
ATOM     19  S   UNL     1       3.190   3.959  17.767  0.00  0.00    +0.000 S 
ATOM     20  O   UNL     1       2.100   3.506  16.931  0.00  0.00    +0.000 OA
ATOM     21  O   UNL     1       3.959   3.045  18.581  0.00  0.00    +0.000 OA
BRANCH  19  22
ATOM     22  C   UNL     1       2.549   5.241  18.813  0.00  0.00    +0.000 A 
ATOM     23  C   UNL     1       2.644   6.573  18.403  0.00  0.00    +0.000 A 
ATOM     24  C   UNL     1       2.212   7.586  19.262  0.00  0.00    +0.000 A 
ATOM     25  C   UNL     1       1.700   7.260  20.520  0.00  0.00    +0.000 A 
ATOM     26 CL   UNL     1       1.199   8.513  21.588  0.00  0.00    +0.000 Cl
ATOM     27  C   UNL     1       1.592   5.929  20.923  0.00  0.00    +0.000 A 
ATOM     28  C   UNL     1       2.001   4.912  20.060  0.00  0.00    +0.000 A 
ENDBRANCH  19  22
ENDBRANCH  17  19
ENDBRANCH   1  17
BRANCH   1  29
ATOM     29  C   UNL     1       6.524   4.761  15.663  0.00  0.00    +0.000 C 
ATOM     30  C   UNL     1       6.227   3.719  14.593  0.00  0.00    +0.000 C 
BRANCH  29  31
ATOM     31  O   UNL     1       6.267   6.042  15.056  0.00  0.00    +0.000 OA
ATOM     32  H   UNL     1       6.500   6.738  15.696  0.00  0.00    +0.000 HD
ENDBRANCH  29  31
ENDBRANCH   1  29
TORSDOF 10
ENDMDL
MODEL 3
REMARK VINA RESULT:      -7.7      4.806      8.301
REMARK  Name = 
REMARK  12 active torsions:
REMARK  status: ('A' for Active; 'I' for Inactive)
REMARK    1  A    between atoms: C_1  and  C_2
REMARK    2  A    between atoms: C_5  and  N_6
REMARK    3  A    between atoms: C_7  and  C_9
REMARK    4  A    between atoms: C_9  and  O_10
REMARK    5  A    between atoms: O_10  and  C_11
REMARK    6  A    between atoms: C_11  and  C_13
REMARK    7  A    between atoms: C_13  and  N_14
REMARK    8  A    between atoms: C_13  and  C_25
REMARK    9  A    between atoms: N_14  and  S_15
REMARK   10  A    between atoms: S_15  and  C_18
REMARK   11  A    between atoms: C_25  and  C_26
REMARK   12  A    between atoms: C_25  and  O_27
REMARK                            x       y       z     vdW  Elec       q    Type
REMARK                         _______ _______ _______ _____ _____    ______ ____
ROOT
ATOM      1  C   UNL     1       3.340   5.765  18.730  0.00  0.00    +0.000 C 
ENDROOT
BRANCH   1   2
ATOM      2  C   UNL     1       3.151   7.089  17.980  0.00  0.00    +0.000 C 
ATOM      3  O   UNL     1       3.819   7.456  17.022  0.00  0.00    +0.000 OA
BRANCH   2   4
ATOM      4  O   UNL     1       2.325   7.936  18.673  0.00  0.00    +0.000 OA
BRANCH   4   5
ATOM      5  C   UNL     1       1.997   9.113  17.921  0.00  0.00    +0.000 C 
BRANCH   5   7
ATOM      6  N   UNL     1      -0.316   9.884  17.631  0.00  0.00    +0.000 N 
ATOM      7  C   UNL     1       0.707   9.665  18.533  0.00  0.00    +0.000 C 
ATOM      8  O   UNL     1       0.669   9.916  19.738  0.00  0.00    +0.000 OA
ATOM      9  H   UNL     1      -0.166   9.604  16.668  0.00  0.00    +0.000 HD
BRANCH   6  14
ATOM     10  C   UNL     1      -5.459  12.194  18.712  0.00  0.00    +0.000 C 
ATOM     11  C   UNL     1      -4.109  11.604  18.430  0.00  0.00    +0.000 A 
ATOM     12  C   UNL     1      -2.955  12.219  18.911  0.00  0.00    +0.000 A 
ATOM     13  C   UNL     1      -1.697  11.668  18.657  0.00  0.00    +0.000 A 
ATOM     14  C   UNL     1      -1.562  10.489  17.920  0.00  0.00    +0.000 A 
ATOM     15  C   UNL     1      -2.719   9.877  17.428  0.00  0.00    +0.000 A 
ATOM     16  C   UNL     1      -3.982  10.428  17.684  0.00  0.00    +0.000 A 
ENDBRANCH   6  14
ENDBRANCH   5   7
ENDBRANCH   4   5
ENDBRANCH   2   4
ENDBRANCH   1   2
BRANCH   1  17
ATOM     17  N   UNL     1       4.593   5.739  19.556  0.00  0.00    +0.000 NA
ATOM     18  H   UNL     1       4.446   5.902  20.555  0.00  0.00    +0.000 HD
BRANCH  17  19
ATOM     19  S   UNL     1       5.724   4.527  19.288  0.00  0.00    +0.000 S 
ATOM     20  O   UNL     1       6.969   4.993  19.858  0.00  0.00    +0.000 OA
ATOM     21  O   UNL     1       5.132   3.267  19.676  0.00  0.00    +0.000 OA
BRANCH  19  22
ATOM     22  C   UNL     1       5.919   4.537  17.524  0.00  0.00    +0.000 A 
ATOM     23  C   UNL     1       4.970   3.893  16.726  0.00  0.00    +0.000 A 
ATOM     24  C   UNL     1       5.166   3.833  15.344  0.00  0.00    +0.000 A 
ATOM     25  C   UNL     1       6.307   4.407  14.778  0.00  0.00    +0.000 A 
ATOM     26 CL   UNL     1       6.560   4.302  13.079  0.00  0.00    +0.000 Cl
ATOM     27  C   UNL     1       7.246   5.062  15.575  0.00  0.00    +0.000 A 
ATOM     28  C   UNL     1       7.044   5.144  16.952  0.00  0.00    +0.000 A 
ENDBRANCH  19  22
ENDBRANCH  17  19
ENDBRANCH   1  17
BRANCH   1  29
ATOM     29  C   UNL     1       2.109   5.306  19.542  0.00  0.00    +0.000 C 
ATOM     30  C   UNL     1       1.728   3.836  19.424  0.00  0.00    +0.000 C 
BRANCH  29  31
ATOM     31  O   UNL     1       2.329   5.549  20.945  0.00  0.00    +0.000 OA
ATOM     32  H   UNL     1       1.604   6.108  21.278  0.00  0.00    +0.000 HD
ENDBRANCH  29  31
ENDBRANCH   1  29
TORSDOF 10
ENDMDL
MODEL 4
REMARK VINA RESULT:      -7.6      4.150      6.245
REMARK  Name = 
REMARK  12 active torsions:
REMARK  status: ('A' for Active; 'I' for Inactive)
REMARK    1  A    between atoms: C_1  and  C_2
REMARK    2  A    between atoms: C_5  and  N_6
REMARK    3  A    between atoms: C_7  and  C_9
REMARK    4  A    between atoms: C_9  and  O_10
REMARK    5  A    between atoms: O_10  and  C_11
REMARK    6  A    between atoms: C_11  and  C_13
REMARK    7  A    between atoms: C_13  and  N_14
REMARK    8  A    between atoms: C_13  and  C_25
REMARK    9  A    between atoms: N_14  and  S_15
REMARK   10  A    between atoms: S_15  and  C_18
REMARK   11  A    between atoms: C_25  and  C_26
REMARK   12  A    between atoms: C_25  and  O_27
REMARK                            x       y       z     vdW  Elec       q    Type
REMARK                         _______ _______ _______ _____ _____    ______ ____
ROOT
ATOM      1  C   UNL     1       3.901   4.363  20.106  0.00  0.00    +0.000 C 
ENDROOT
BRANCH   1   2
ATOM      2  C   UNL     1       4.927   4.069  19.005  0.00  0.00    +0.000 C 
ATOM      3  O   UNL     1       4.691   3.461  17.968  0.00  0.00    +0.000 OA
BRANCH   2   4
ATOM      4  O   UNL     1       6.203   4.328  19.435  0.00  0.00    +0.000 OA
BRANCH   4   5
ATOM      5  C   UNL     1       6.786   5.453  18.762  0.00  0.00    +0.000 C 
BRANCH   5   7
ATOM      6  N   UNL     1       6.495   5.348  16.327  0.00  0.00    +0.000 N 
ATOM      7  C   UNL     1       7.260   4.937  17.401  0.00  0.00    +0.000 C 
ATOM      8  O   UNL     1       8.228   4.177  17.346  0.00  0.00    +0.000 OA
ATOM      9  H   UNL     1       5.740   6.001  16.505  0.00  0.00    +0.000 HD
BRANCH   6  14
ATOM     10  C   UNL     1       6.984   3.505  10.912  0.00  0.00    +0.000 C 
ATOM     11  C   UNL     1       6.871   3.990  12.326  0.00  0.00    +0.000 A 
ATOM     12  C   UNL     1       7.710   4.998  12.797  0.00  0.00    +0.000 A 
ATOM     13  C   UNL     1       7.601   5.458  14.112  0.00  0.00    +0.000 A 
ATOM     14  C   UNL     1       6.651   4.924  14.985  0.00  0.00    +0.000 A 
ATOM     15  C   UNL     1       5.816   3.904  14.517  0.00  0.00    +0.000 A 
ATOM     16  C   UNL     1       5.923   3.444  13.198  0.00  0.00    +0.000 A 
ENDBRANCH   6  14
ENDBRANCH   5   7
ENDBRANCH   4   5
ENDBRANCH   2   4
ENDBRANCH   1   2
BRANCH   1  17
ATOM     17  N   UNL     1       3.335   5.750  20.015  0.00  0.00    +0.000 NA
ATOM     18  H   UNL     1       3.827   6.447  20.580  0.00  0.00    +0.000 HD
BRANCH  17  19
ATOM     19  S   UNL     1       2.911   6.363  18.510  0.00  0.00    +0.000 S 
ATOM     20  O   UNL     1       4.148   6.713  17.846  0.00  0.00    +0.000 OA
ATOM     21  O   UNL     1       1.953   5.461  17.912  0.00  0.00    +0.000 OA
BRANCH  19  22
ATOM     22  C   UNL     1       2.082   7.880  18.908  0.00  0.00    +0.000 A 
ATOM     23  C   UNL     1       1.581   8.070  20.198  0.00  0.00    +0.000 A 
ATOM     24  C   UNL     1       0.860   9.230  20.487  0.00  0.00    +0.000 A 
ATOM     25  C   UNL     1       0.641  10.181  19.488  0.00  0.00    +0.000 A 
ATOM     26 CL   UNL     1      -0.276  11.594  19.841  0.00  0.00    +0.000 Cl
ATOM     27  C   UNL     1       1.154   9.997  18.204  0.00  0.00    +0.000 A 
ATOM     28  C   UNL     1       1.894   8.851  17.916  0.00  0.00    +0.000 A 
ENDBRANCH  19  22
ENDBRANCH  17  19
ENDBRANCH   1  17
BRANCH   1  29
ATOM     29  C   UNL     1       2.790   3.299  20.249  0.00  0.00    +0.000 C 
ATOM     30  C   UNL     1       1.607   3.669  21.135  0.00  0.00    +0.000 C 
BRANCH  29  31
ATOM     31  O   UNL     1       2.238   2.990  18.955  0.00  0.00    +0.000 OA
ATOM     32  H   UNL     1       2.382   2.043  18.778  0.00  0.00    +0.000 HD
ENDBRANCH  29  31
ENDBRANCH   1  29
TORSDOF 10
ENDMDL
MODEL 5
REMARK VINA RESULT:      -7.5      1.674      2.138
REMARK  Name = 
REMARK  12 active torsions:
REMARK  status: ('A' for Active; 'I' for Inactive)
REMARK    1  A    between atoms: C_1  and  C_2
REMARK    2  A    between atoms: C_5  and  N_6
REMARK    3  A    between atoms: C_7  and  C_9
REMARK    4  A    between atoms: C_9  and  O_10
REMARK    5  A    between atoms: O_10  and  C_11
REMARK    6  A    between atoms: C_11  and  C_13
REMARK    7  A    between atoms: C_13  and  N_14
REMARK    8  A    between atoms: C_13  and  C_25
REMARK    9  A    between atoms: N_14  and  S_15
REMARK   10  A    between atoms: S_15  and  C_18
REMARK   11  A    between atoms: C_25  and  C_26
REMARK   12  A    between atoms: C_25  and  O_27
REMARK                            x       y       z     vdW  Elec       q    Type
REMARK                         _______ _______ _______ _____ _____    ______ ____
ROOT
ATOM      1  C   UNL     1       5.713   5.071  17.736  0.00  0.00    +0.000 C 
ENDROOT
BRANCH   1   2
ATOM      2  C   UNL     1       7.122   5.525  18.135  0.00  0.00    +0.000 C 
ATOM      3  O   UNL     1       7.909   4.869  18.807  0.00  0.00    +0.000 OA
BRANCH   2   4
ATOM      4  O   UNL     1       7.303   6.860  17.882  0.00  0.00    +0.000 OA
BRANCH   4   5
ATOM      5  C   UNL     1       8.295   7.447  18.736  0.00  0.00    +0.000 C 
BRANCH   5   7
ATOM      6  N   UNL     1       9.416   9.624  18.925  0.00  0.00    +0.000 N 
ATOM      7  C   UNL     1       8.375   8.925  18.343  0.00  0.00    +0.000 C 
ATOM      8  O   UNL     1       7.517   9.400  17.599  0.00  0.00    +0.000 OA
ATOM      9  H   UNL     1      10.073   9.106  19.496  0.00  0.00    +0.000 HD
BRANCH   6  14
ATOM     10  C   UNL     1      10.250  15.297  18.650  0.00  0.00    +0.000 C 
ATOM     11  C   UNL     1      10.032  13.815  18.707  0.00  0.00    +0.000 A 
ATOM     12  C   UNL     1      10.519  12.990  17.695  0.00  0.00    +0.000 A 
ATOM     13  C   UNL     1      10.325  11.607  17.749  0.00  0.00    +0.000 A 
ATOM     14  C   UNL     1       9.643  11.017  18.815  0.00  0.00    +0.000 A 
ATOM     15  C   UNL     1       9.144  11.845  19.826  0.00  0.00    +0.000 A 
ATOM     16  C   UNL     1       9.340  13.232  19.773  0.00  0.00    +0.000 A 
ENDBRANCH   6  14
ENDBRANCH   5   7
ENDBRANCH   4   5
ENDBRANCH   2   4
ENDBRANCH   1   2
BRANCH   1  17
ATOM     17  N   UNL     1       4.685   6.150  17.910  0.00  0.00    +0.000 NA
ATOM     18  H   UNL     1       4.543   6.738  17.085  0.00  0.00    +0.000 HD
BRANCH  17  19
ATOM     19  S   UNL     1       3.230   5.778  18.662  0.00  0.00    +0.000 S 
ATOM     20  O   UNL     1       2.448   5.036  17.698  0.00  0.00    +0.000 OA
ATOM     21  O   UNL     1       3.525   5.249  19.975  0.00  0.00    +0.000 OA
BRANCH  19  22
ATOM     22  C   UNL     1       2.456   7.363  18.855  0.00  0.00    +0.000 A 
ATOM     23  C   UNL     1       1.912   7.715  20.093  0.00  0.00    +0.000 A 
ATOM     24  C   UNL     1       1.233   8.928  20.222  0.00  0.00    +0.000 A 
ATOM     25  C   UNL     1       1.099   9.772  19.116  0.00  0.00    +0.000 A 
ATOM     26 CL   UNL     1       0.235  11.252  19.273  0.00  0.00    +0.000 Cl
ATOM     27  C   UNL     1       1.656   9.427  17.885  0.00  0.00    +0.000 A 
ATOM     28  C   UNL     1       2.354   8.226  17.756  0.00  0.00    +0.000 A 
ENDBRANCH  19  22
ENDBRANCH  17  19
ENDBRANCH   1  17
BRANCH   1  29
ATOM     29  C   UNL     1       5.623   4.413  16.341  0.00  0.00    +0.000 C 
ATOM     30  C   UNL     1       5.329   5.343  15.171  0.00  0.00    +0.000 C 
BRANCH  29  31
ATOM     31  O   UNL     1       6.867   3.758  16.027  0.00  0.00    +0.000 OA
ATOM     32  H   UNL     1       6.829   2.847  16.370  0.00  0.00    +0.000 HD
ENDBRANCH  29  31
ENDBRANCH   1  29
TORSDOF 10
ENDMDL
MODEL 6
REMARK VINA RESULT:      -7.3      1.648      2.211
REMARK  Name = 
REMARK  12 active torsions:
REMARK  status: ('A' for Active; 'I' for Inactive)
REMARK    1  A    between atoms: C_1  and  C_2
REMARK    2  A    between atoms: C_5  and  N_6
REMARK    3  A    between atoms: C_7  and  C_9
REMARK    4  A    between atoms: C_9  and  O_10
REMARK    5  A    between atoms: O_10  and  C_11
REMARK    6  A    between atoms: C_11  and  C_13
REMARK    7  A    between atoms: C_13  and  N_14
REMARK    8  A    between atoms: C_13  and  C_25
REMARK    9  A    between atoms: N_14  and  S_15
REMARK   10  A    between atoms: S_15  and  C_18
REMARK   11  A    between atoms: C_25  and  C_26
REMARK   12  A    between atoms: C_25  and  O_27
REMARK                            x       y       z     vdW  Elec       q    Type
REMARK                         _______ _______ _______ _____ _____    ______ ____
ROOT
ATOM      1  C   UNL     1       5.305   4.615  17.155  0.00  0.00    +0.000 C 
ENDROOT
BRANCH   1   2
ATOM      2  C   UNL     1       6.655   5.244  17.517  0.00  0.00    +0.000 C 
ATOM      3  O   UNL     1       7.671   4.620  17.792  0.00  0.00    +0.000 OA
BRANCH   2   4
ATOM      4  O   UNL     1       6.526   6.588  17.759  0.00  0.00    +0.000 OA
BRANCH   4   5
ATOM      5  C   UNL     1       7.449   7.371  16.990  0.00  0.00    +0.000 C 
BRANCH   5   7
ATOM      6  N   UNL     1       8.137   9.640  17.628  0.00  0.00    +0.000 N 
ATOM      7  C   UNL     1       8.146   8.305  17.983  0.00  0.00    +0.000 C 
ATOM      8  O   UNL     1       8.694   7.829  18.978  0.00  0.00    +0.000 OA
ATOM      9  H   UNL     1       7.622   9.906  16.797  0.00  0.00    +0.000 HD
BRANCH   6  14
ATOM     10  C   UNL     1      10.898  13.752  20.531  0.00  0.00    +0.000 C 
ATOM     11  C   UNL     1      10.167  12.688  19.767  0.00  0.00    +0.000 A 
ATOM     12  C   UNL     1       9.508  12.998  18.579  0.00  0.00    +0.000 A 
ATOM     13  C   UNL     1       8.833  12.007  17.862  0.00  0.00    +0.000 A 
ATOM     14  C   UNL     1       8.803  10.686  18.312  0.00  0.00    +0.000 A 
ATOM     15  C   UNL     1       9.455  10.376  19.509  0.00  0.00    +0.000 A 
ATOM     16  C   UNL     1      10.134  11.369  20.229  0.00  0.00    +0.000 A 
ENDBRANCH   6  14
ENDBRANCH   5   7
ENDBRANCH   4   5
ENDBRANCH   2   4
ENDBRANCH   1   2
BRANCH   1  17
ATOM     17  N   UNL     1       4.144   5.519  17.452  0.00  0.00    +0.000 NA
ATOM     18  H   UNL     1       3.472   5.612  16.686  0.00  0.00    +0.000 HD
BRANCH  17  19
ATOM     19  S   UNL     1       3.374   5.399  18.939  0.00  0.00    +0.000 S 
ATOM     20  O   UNL     1       2.387   4.350  18.806  0.00  0.00    +0.000 OA
ATOM     21  O   UNL     1       4.388   5.367  19.969  0.00  0.00    +0.000 OA
BRANCH  19  22
ATOM     22  C   UNL     1       2.494   6.934  19.065  0.00  0.00    +0.000 A 
ATOM     23  C   UNL     1       2.461   7.799  17.968  0.00  0.00    +0.000 A 
ATOM     24  C   UNL     1       1.836   9.041  18.095  0.00  0.00    +0.000 A 
ATOM     25  C   UNL     1       1.259   9.409  19.312  0.00  0.00    +0.000 A 
ATOM     26 CL   UNL     1       0.518  10.954  19.473  0.00  0.00    +0.000 Cl
ATOM     27  C   UNL     1       1.279   8.539  20.402  0.00  0.00    +0.000 A 
ATOM     28  C   UNL     1       1.883   7.289  20.275  0.00  0.00    +0.000 A 
ENDBRANCH  19  22
ENDBRANCH  17  19
ENDBRANCH   1  17
BRANCH   1  29
ATOM     29  C   UNL     1       5.229   4.036  15.725  0.00  0.00    +0.000 C 
ATOM     30  C   UNL     1       5.653   4.966  14.595  0.00  0.00    +0.000 C 
BRANCH  29  31
ATOM     31  O   UNL     1       6.073   2.873  15.621  0.00  0.00    +0.000 OA
ATOM     32  H   UNL     1       5.712   2.293  14.926  0.00  0.00    +0.000 HD
ENDBRANCH  29  31
ENDBRANCH   1  29
TORSDOF 10
ENDMDL
MODEL 7
REMARK VINA RESULT:      -7.3      4.768      7.661
REMARK  Name = 
REMARK  12 active torsions:
REMARK  status: ('A' for Active; 'I' for Inactive)
REMARK    1  A    between atoms: C_1  and  C_2
REMARK    2  A    between atoms: C_5  and  N_6
REMARK    3  A    between atoms: C_7  and  C_9
REMARK    4  A    between atoms: C_9  and  O_10
REMARK    5  A    between atoms: O_10  and  C_11
REMARK    6  A    between atoms: C_11  and  C_13
REMARK    7  A    between atoms: C_13  and  N_14
REMARK    8  A    between atoms: C_13  and  C_25
REMARK    9  A    between atoms: N_14  and  S_15
REMARK   10  A    between atoms: S_15  and  C_18
REMARK   11  A    between atoms: C_25  and  C_26
REMARK   12  A    between atoms: C_25  and  O_27
REMARK                            x       y       z     vdW  Elec       q    Type
REMARK                         _______ _______ _______ _____ _____    ______ ____
ROOT
ATOM      1  C   UNL     1       3.335   5.780  18.646  0.00  0.00    +0.000 C 
ENDROOT
BRANCH   1   2
ATOM      2  C   UNL     1       3.072   7.030  17.798  0.00  0.00    +0.000 C 
ATOM      3  O   UNL     1       3.855   7.508  16.987  0.00  0.00    +0.000 OA
BRANCH   2   4
ATOM      4  O   UNL     1       1.967   7.708  18.246  0.00  0.00    +0.000 OA
BRANCH   4   5
ATOM      5  C   UNL     1       2.104   9.129  18.101  0.00  0.00    +0.000 C 
BRANCH   5   7
ATOM      6  N   UNL     1       1.117  10.221  20.066  0.00  0.00    +0.000 N 
ATOM      7  C   UNL     1       0.884   9.747  18.789  0.00  0.00    +0.000 C 
ATOM      8  O   UNL     1      -0.202   9.746  18.209  0.00  0.00    +0.000 OA
ATOM      9  H   UNL     1       2.067  10.191  20.416  0.00  0.00    +0.000 HD
BRANCH   6  14
ATOM     10  C   UNL     1      -2.891  12.431  23.531  0.00  0.00    +0.000 C 
ATOM     11  C   UNL     1      -1.836  11.849  22.638  0.00  0.00    +0.000 A 
ATOM     12  C   UNL     1      -1.128  10.714  23.028  0.00  0.00    +0.000 A 
ATOM     13  C   UNL     1      -0.151  10.164  22.194  0.00  0.00    +0.000 A 
ATOM     14  C   UNL     1       0.139  10.733  20.952  0.00  0.00    +0.000 A 
ATOM     15  C   UNL     1      -0.563  11.878  20.565  0.00  0.00    +0.000 A 
ATOM     16  C   UNL     1      -1.545  12.430  21.400  0.00  0.00    +0.000 A 
ENDBRANCH   6  14
ENDBRANCH   5   7
ENDBRANCH   4   5
ENDBRANCH   2   4
ENDBRANCH   1   2
BRANCH   1  17
ATOM     17  N   UNL     1       4.614   5.867  19.427  0.00  0.00    +0.000 NA
ATOM     18  H   UNL     1       4.500   6.190  20.391  0.00  0.00    +0.000 HD
BRANCH  17  19
ATOM     19  S   UNL     1       5.722   4.609  19.322  0.00  0.00    +0.000 S 
ATOM     20  O   UNL     1       6.943   5.086  19.933  0.00  0.00    +0.000 OA
ATOM     21  O   UNL     1       5.069   3.398  19.764  0.00  0.00    +0.000 OA
BRANCH  19  22
ATOM     22  C   UNL     1       6.025   4.481  17.578  0.00  0.00    +0.000 A 
ATOM     23  C   UNL     1       7.098   5.177  17.015  0.00  0.00    +0.000 A 
ATOM     24  C   UNL     1       7.287   5.139  15.632  0.00  0.00    +0.000 A 
ATOM     25  C   UNL     1       6.403   4.415  14.828  0.00  0.00    +0.000 A 
ATOM     26 CL   UNL     1       6.622   4.397  13.121  0.00  0.00    +0.000 Cl
ATOM     27  C   UNL     1       5.342   3.708  15.393  0.00  0.00    +0.000 A 
ATOM     28  C   UNL     1       5.160   3.725  16.776  0.00  0.00    +0.000 A 
ENDBRANCH  19  22
ENDBRANCH  17  19
ENDBRANCH   1  17
BRANCH   1  29
ATOM     29  C   UNL     1       2.148   5.347  19.536  0.00  0.00    +0.000 C 
ATOM     30  C   UNL     1       1.449   4.050  19.150  0.00  0.00    +0.000 C 
BRANCH  29  31
ATOM     31  O   UNL     1       2.593   5.171  20.895  0.00  0.00    +0.000 OA
ATOM     32  H   UNL     1       1.841   5.342  21.489  0.00  0.00    +0.000 HD
ENDBRANCH  29  31
ENDBRANCH   1  29
TORSDOF 10
ENDMDL
MODEL 8
REMARK VINA RESULT:      -7.2      4.797      7.535
REMARK  Name = 
REMARK  12 active torsions:
REMARK  status: ('A' for Active; 'I' for Inactive)
REMARK    1  A    between atoms: C_1  and  C_2
REMARK    2  A    between atoms: C_5  and  N_6
REMARK    3  A    between atoms: C_7  and  C_9
REMARK    4  A    between atoms: C_9  and  O_10
REMARK    5  A    between atoms: O_10  and  C_11
REMARK    6  A    between atoms: C_11  and  C_13
REMARK    7  A    between atoms: C_13  and  N_14
REMARK    8  A    between atoms: C_13  and  C_25
REMARK    9  A    between atoms: N_14  and  S_15
REMARK   10  A    between atoms: S_15  and  C_18
REMARK   11  A    between atoms: C_25  and  C_26
REMARK   12  A    between atoms: C_25  and  O_27
REMARK                            x       y       z     vdW  Elec       q    Type
REMARK                         _______ _______ _______ _____ _____    ______ ____
ROOT
ATOM      1  C   UNL     1       3.096   4.962  19.254  0.00  0.00    +0.000 C 
ENDROOT
BRANCH   1   2
ATOM      2  C   UNL     1       2.193   5.935  18.486  0.00  0.00    +0.000 C 
ATOM      3  O   UNL     1       1.581   5.665  17.460  0.00  0.00    +0.000 OA
BRANCH   2   4
ATOM      4  O   UNL     1       2.361   7.221  18.929  0.00  0.00    +0.000 OA
BRANCH   4   5
ATOM      5  C   UNL     1       2.700   8.124  17.867  0.00  0.00    +0.000 C 
BRANCH   5   7
ATOM      6  N   UNL     1       0.904   9.287  19.071  0.00  0.00    +0.000 N 
ATOM      7  C   UNL     1       1.908   9.408  18.129  0.00  0.00    +0.000 C 
ATOM      8  O   UNL     1       2.166  10.421  17.479  0.00  0.00    +0.000 OA
ATOM      9  H   UNL     1       0.816   8.403  19.558  0.00  0.00    +0.000 HD
BRANCH   6  14
ATOM     10  C   UNL     1      -2.816  13.378  20.614  0.00  0.00    +0.000 C 
ATOM     11  C   UNL     1      -1.856  12.302  20.204  0.00  0.00    +0.000 A 
ATOM     12  C   UNL     1      -2.030  11.620  19.001  0.00  0.00    +0.000 A 
ATOM     13  C   UNL     1      -1.131  10.624  18.612  0.00  0.00    +0.000 A 
ATOM     14  C   UNL     1      -0.038  10.287  19.413  0.00  0.00    +0.000 A 
ATOM     15  C   UNL     1       0.132  10.963  20.625  0.00  0.00    +0.000 A 
ATOM     16  C   UNL     1      -0.768  11.964  21.015  0.00  0.00    +0.000 A 
ENDBRANCH   6  14
ENDBRANCH   5   7
ENDBRANCH   4   5
ENDBRANCH   2   4
ENDBRANCH   1   2
BRANCH   1  17
ATOM     17  N   UNL     1       4.479   5.504  19.472  0.00  0.00    +0.000 NA
ATOM     18  H   UNL     1       4.586   6.064  20.322  0.00  0.00    +0.000 HD
BRANCH  17  19
ATOM     19  S   UNL     1       5.799   4.495  19.226  0.00  0.00    +0.000 S 
ATOM     20  O   UNL     1       6.928   5.133  19.867  0.00  0.00    +0.000 OA
ATOM     21  O   UNL     1       5.399   3.145  19.551  0.00  0.00    +0.000 OA
BRANCH  19  22
ATOM     22  C   UNL     1       6.066   4.596  17.475  0.00  0.00    +0.000 A 
ATOM     23  C   UNL     1       5.104   4.078  16.603  0.00  0.00    +0.000 A 
ATOM     24  C   UNL     1       5.352   4.086  15.229  0.00  0.00    +0.000 A 
ATOM     25  C   UNL     1       6.555   4.603  14.741  0.00  0.00    +0.000 A 
ATOM     26 CL   UNL     1       6.869   4.582  13.050  0.00  0.00    +0.000 Cl
ATOM     27  C   UNL     1       7.507   5.134  15.611  0.00  0.00    +0.000 A 
ATOM     28  C   UNL     1       7.256   5.148  16.983  0.00  0.00    +0.000 A 
ENDBRANCH  19  22
ENDBRANCH  17  19
ENDBRANCH   1  17
BRANCH   1  29
ATOM     29  C   UNL     1       2.483   4.414  20.561  0.00  0.00    +0.000 C 
ATOM     30  C   UNL     1       0.962   4.357  20.625  0.00  0.00    +0.000 C 
BRANCH  29  31
ATOM     31  O   UNL     1       2.942   3.068  20.792  0.00  0.00    +0.000 OA
ATOM     32  H   UNL     1       2.217   2.561  21.199  0.00  0.00    +0.000 HD
ENDBRANCH  29  31
ENDBRANCH   1  29
TORSDOF 10
ENDMDL
MODEL 9
REMARK VINA RESULT:      -7.1      3.665      6.906
REMARK  Name = 
REMARK  12 active torsions:
REMARK  status: ('A' for Active; 'I' for Inactive)
REMARK    1  A    between atoms: C_1  and  C_2
REMARK    2  A    between atoms: C_5  and  N_6
REMARK    3  A    between atoms: C_7  and  C_9
REMARK    4  A    between atoms: C_9  and  O_10
REMARK    5  A    between atoms: O_10  and  C_11
REMARK    6  A    between atoms: C_11  and  C_13
REMARK    7  A    between atoms: C_13  and  N_14
REMARK    8  A    between atoms: C_13  and  C_25
REMARK    9  A    between atoms: N_14  and  S_15
REMARK   10  A    between atoms: S_15  and  C_18
REMARK   11  A    between atoms: C_25  and  C_26
REMARK   12  A    between atoms: C_25  and  O_27
REMARK                            x       y       z     vdW  Elec       q    Type
REMARK                         _______ _______ _______ _____ _____    ______ ____
ROOT
ATOM      1  C   UNL     1       3.998   3.883  18.038  0.00  0.00    +0.000 C 
ENDROOT
BRANCH   1   2
ATOM      2  C   UNL     1       3.831   5.270  18.669  0.00  0.00    +0.000 C 
ATOM      3  O   UNL     1       4.291   5.611  19.751  0.00  0.00    +0.000 OA
BRANCH   2   4
ATOM      4  O   UNL     1       2.880   6.004  18.007  0.00  0.00    +0.000 OA
BRANCH   4   5
ATOM      5  C   UNL     1       3.226   7.394  17.922  0.00  0.00    +0.000 C 
BRANCH   5   7
ATOM      6  N   UNL     1       1.490   9.130  17.933  0.00  0.00    +0.000 N 
ATOM      7  C   UNL     1       2.127   8.152  18.672  0.00  0.00    +0.000 C 
ATOM      8  O   UNL     1       1.913   7.891  19.857  0.00  0.00    +0.000 OA
ATOM      9  H   UNL     1       1.740   9.223  16.955  0.00  0.00    +0.000 HD
BRANCH   6  14
ATOM     10  C   UNL     1      -2.288  12.922  20.007  0.00  0.00    +0.000 C 
ATOM     11  C   UNL     1      -1.312  11.921  19.465  0.00  0.00    +0.000 A 
ATOM     12  C   UNL     1      -1.740  10.911  18.605  0.00  0.00    +0.000 A 
ATOM     13  C   UNL     1      -0.831   9.983  18.091  0.00  0.00    +0.000 A 
ATOM     14  C   UNL     1       0.524  10.043  18.422  0.00  0.00    +0.000 A 
ATOM     15  C   UNL     1       0.952  11.049  19.293  0.00  0.00    +0.000 A 
ATOM     16  C   UNL     1       0.042  11.982  19.807  0.00  0.00    +0.000 A 
ENDBRANCH   6  14
ENDBRANCH   5   7
ENDBRANCH   4   5
ENDBRANCH   2   4
ENDBRANCH   1   2
BRANCH   1  17
ATOM     17  N   UNL     1       5.403   3.620  17.578  0.00  0.00    +0.000 NA
ATOM     18  H   UNL     1       5.635   2.630  17.469  0.00  0.00    +0.000 HD
BRANCH  17  19
ATOM     19  S   UNL     1       6.040   4.546  16.330  0.00  0.00    +0.000 S 
ATOM     20  O   UNL     1       7.089   3.755  15.726  0.00  0.00    +0.000 OA
ATOM     21  O   UNL     1       4.939   5.073  15.555  0.00  0.00    +0.000 OA
BRANCH  19  22
ATOM     22  C   UNL     1       6.822   5.891  17.182  0.00  0.00    +0.000 A 
ATOM     23  C   UNL     1       6.702   7.188  16.674  0.00  0.00    +0.000 A 
ATOM     24  C   UNL     1       7.385   8.233  17.300  0.00  0.00    +0.000 A 
ATOM     25  C   UNL     1       8.182   7.974  18.417  0.00  0.00    +0.000 A 
ATOM     26 CL   UNL     1       9.045   9.260  19.166  0.00  0.00    +0.000 Cl
ATOM     27  C   UNL     1       8.289   6.682  18.932  0.00  0.00    +0.000 A 
ATOM     28  C   UNL     1       7.593   5.638  18.324  0.00  0.00    +0.000 A 
ENDBRANCH  19  22
ENDBRANCH  17  19
ENDBRANCH   1  17
BRANCH   1  29
ATOM     29  C   UNL     1       3.448   2.719  18.892  0.00  0.00    +0.000 C 
ATOM     30  C   UNL     1       2.317   1.904  18.279  0.00  0.00    +0.000 C 
BRANCH  29  31
ATOM     31  O   UNL     1       4.504   1.782  19.182  0.00  0.00    +0.000 OA
ATOM     32  H   UNL     1       4.513   1.617  20.142  0.00  0.00    +0.000 HD
ENDBRANCH  29  31
ENDBRANCH   1  29
TORSDOF 10
ENDMDL
