MODEL 1
REMARK VINA RESULT:      -8.7      0.000      0.000
REMARK  Name = 
REMARK  8 active torsions:
REMARK  status: ('A' for Active; 'I' for Inactive)
REMARK    1  A    between atoms: C_1  and  C_2
REMARK    2  A    between atoms: N_5  and  C_6
REMARK    3  A    between atoms: C_6  and  C_7
REMARK    4  A    between atoms: N_10  and  C_11
REMARK    5  A    between atoms: C_12  and  C_13
REMARK    6  A    between atoms: C_15  and  C_16
REMARK    7  A    between atoms: N_19  and  C_20
REMARK    8  A    between atoms: C_20  and  C_21
REMARK                            x       y       z     vdW  Elec       q    Type
REMARK                         _______ _______ _______ _____ _____    ______ ____
ROOT
ATOM      1  C   UNL     1      -1.840   9.927  17.950  0.00  0.00    +0.000 C 
ATOM      2  C   UNL     1      -1.180  10.652  19.070  0.00  0.00    +0.000 A 
ATOM      3  N   UNL     1      -1.917  11.643  19.716  0.00  0.00    +0.000 NA
ATOM      4  C   UNL     1      -1.240  12.156  20.715  0.00  0.00    +0.000 A 
ATOM      5  N   UNL     1      -1.707  13.100  21.567  0.00  0.00    +0.000 N 
ATOM      6  S   UNL     1       0.347  11.511  20.902  0.00  0.00    +0.000 S 
ATOM      7  C   UNL     1       0.090  10.438  19.587  0.00  0.00    +0.000 A 
ATOM      8  H   UNL     1      -1.037  13.596  22.139  0.00  0.00    +0.000 HD
ENDROOT
BRANCH   7   9
ATOM      9  C   UNL     1       1.094   9.428  19.096  0.00  0.00    +0.000 A 
ATOM     10  C   UNL     1       1.826   9.480  17.882  0.00  0.00    +0.000 A 
ATOM     11  C   UNL     1       2.596   8.339  17.864  0.00  0.00    +0.000 A 
ATOM     12  N   UNL     1       2.261   7.652  18.994  0.00  0.00    +0.000 N 
ATOM     13  N   UNL     1       1.432   8.338  19.801  0.00  0.00    +0.000 NA
BRANCH  12  14
ATOM     14  C   UNL     1       2.826   6.388  19.436  0.00  0.00    +0.000 C 
BRANCH  14  15
ATOM     15  C   UNL     1       3.425   5.460  18.364  0.00  0.00    +0.000 C 
ATOM     16  C   UNL     1       4.132   4.198  18.857  0.00  0.00    +0.000 C 
ATOM     17  O   UNL     1       5.396   4.455  19.464  0.00  0.00    +0.000 OA
ATOM     18  C   UNL     1       6.103   5.419  18.794  0.00  0.00    +0.000 A 
ATOM     19  C   UNL     1       7.429   5.601  19.185  0.00  0.00    +0.000 A 
ATOM     20  C   UNL     1       8.190   6.619  18.610  0.00  0.00    +0.000 A 
ATOM     21  C   UNL     1       7.631   7.447  17.635  0.00  0.00    +0.000 A 
ATOM     22  C   UNL     1       6.312   7.250  17.227  0.00  0.00    +0.000 A 
ATOM     23  C   UNL     1       5.544   6.248  17.817  0.00  0.00    +0.000 A 
ATOM     24  O   UNL     1       4.234   6.176  17.423  0.00  0.00    +0.000 OA
ENDBRANCH  14  15
ENDBRANCH  12  14
ENDBRANCH   7   9
BRANCH   5  25
ATOM     25  C   UNL     1      -2.883  13.872  21.195  0.00  0.00    +0.000 C 
BRANCH  25  26
ATOM     26  C   UNL     1      -4.200  13.292  21.625  0.00  0.00    +0.000 A 
ATOM     27  C   UNL     1      -4.632  13.059  22.950  0.00  0.00    +0.000 A 
ATOM     28  N   UNL     1      -5.865  12.554  23.015  0.00  0.00    +0.000 NA
ATOM     29  N   UNL     1      -6.245  12.471  21.727  0.00  0.00    +0.000 N 
ATOM     30  C   UNL     1      -7.566  11.968  21.421  0.00  0.00    +0.000 C 
ATOM     31  C   UNL     1      -5.284  12.905  20.846  0.00  0.00    +0.000 A 
ATOM     32  C   UNL     1      -5.465  12.942  19.373  0.00  0.00    +0.000 C 
ENDBRANCH  25  26
ENDBRANCH   5  25
TORSDOF 5
ENDMDL
MODEL 2
REMARK VINA RESULT:      -8.6      2.603      3.494
REMARK  Name = 
REMARK  8 active torsions:
REMARK  status: ('A' for Active; 'I' for Inactive)
REMARK    1  A    between atoms: C_1  and  C_2
REMARK    2  A    between atoms: N_5  and  C_6
REMARK    3  A    between atoms: C_6  and  C_7
REMARK    4  A    between atoms: N_10  and  C_11
REMARK    5  A    between atoms: C_12  and  C_13
REMARK    6  A    between atoms: C_15  and  C_16
REMARK    7  A    between atoms: N_19  and  C_20
REMARK    8  A    between atoms: C_20  and  C_21
REMARK                            x       y       z     vdW  Elec       q    Type
REMARK                         _______ _______ _______ _____ _____    ______ ____
ROOT
ATOM      1  C   UNL     1       0.951   9.888  17.911  0.00  0.00    +0.000 C 
ATOM      2  C   UNL     1       0.927   9.652  19.380  0.00  0.00    +0.000 A 
ATOM      3  N   UNL     1       0.255  10.585  20.169  0.00  0.00    +0.000 NA
ATOM      4  C   UNL     1       0.260  10.224  21.430  0.00  0.00    +0.000 A 
ATOM      5  N   UNL     1      -0.357  10.895  22.433  0.00  0.00    +0.000 N 
ATOM      6  S   UNL     1       1.123   8.767  21.748  0.00  0.00    +0.000 S 
ATOM      7  C   UNL     1       1.468   8.581  20.077  0.00  0.00    +0.000 A 
ATOM      8  H   UNL     1      -0.092  10.675  23.384  0.00  0.00    +0.000 HD
ENDROOT
BRANCH   7   9
ATOM      9  C   UNL     1       2.232   7.426  19.483  0.00  0.00    +0.000 A 
ATOM     10  C   UNL     1       2.280   6.097  19.975  0.00  0.00    +0.000 A 
ATOM     11  C   UNL     1       3.112   5.413  19.118  0.00  0.00    +0.000 A 
ATOM     12  N   UNL     1       3.557   6.339  18.221  0.00  0.00    +0.000 N 
ATOM     13  N   UNL     1       2.960   7.537  18.362  0.00  0.00    +0.000 NA
BRANCH  12  14
ATOM     14  C   UNL     1       4.445   6.097  17.097  0.00  0.00    +0.000 C 
BRANCH  14  15
ATOM     15  C   UNL     1       5.477   4.963  17.235  0.00  0.00    +0.000 C 
ATOM     16  C   UNL     1       6.950   5.368  17.280  0.00  0.00    +0.000 C 
ATOM     17  O   UNL     1       7.461   5.797  16.020  0.00  0.00    +0.000 OA
ATOM     18  C   UNL     1       6.994   5.029  14.986  0.00  0.00    +0.000 A 
ATOM     19  C   UNL     1       7.587   5.236  13.742  0.00  0.00    +0.000 A 
ATOM     20  C   UNL     1       7.110   4.554  12.621  0.00  0.00    +0.000 A 
ATOM     21  C   UNL     1       6.050   3.655  12.748  0.00  0.00    +0.000 A 
ATOM     22  C   UNL     1       5.472   3.430  13.997  0.00  0.00    +0.000 A 
ATOM     23  C   UNL     1       5.932   4.128  15.111  0.00  0.00    +0.000 A 
ATOM     24  O   UNL     1       5.255   3.914  16.283  0.00  0.00    +0.000 OA
ENDBRANCH  14  15
ENDBRANCH  12  14
ENDBRANCH   7   9
BRANCH   5  25
ATOM     25  C   UNL     1      -0.768  12.274  22.216  0.00  0.00    +0.000 C 
BRANCH  25  26
ATOM     26  C   UNL     1      -2.187  12.460  21.760  0.00  0.00    +0.000 A 
ATOM     27  C   UNL     1      -2.638  12.605  20.428  0.00  0.00    +0.000 A 
ATOM     28  N   UNL     1      -3.963  12.731  20.338  0.00  0.00    +0.000 NA
ATOM     29  N   UNL     1      -4.380  12.655  21.614  0.00  0.00    +0.000 N 
ATOM     30  C   UNL     1      -5.796  12.741  21.891  0.00  0.00    +0.000 C 
ATOM     31  C   UNL     1      -3.355  12.487  22.513  0.00  0.00    +0.000 A 
ATOM     32  C   UNL     1      -3.551  12.347  23.978  0.00  0.00    +0.000 C 
ENDBRANCH  25  26
ENDBRANCH   5  25
TORSDOF 5
ENDMDL
MODEL 3
REMARK VINA RESULT:      -8.5      1.123      1.453
REMARK  Name = 
REMARK  8 active torsions:
REMARK  status: ('A' for Active; 'I' for Inactive)
REMARK    1  A    between atoms: C_1  and  C_2
REMARK    2  A    between atoms: N_5  and  C_6
REMARK    3  A    between atoms: C_6  and  C_7
REMARK    4  A    between atoms: N_10  and  C_11
REMARK    5  A    between atoms: C_12  and  C_13
REMARK    6  A    between atoms: C_15  and  C_16
REMARK    7  A    between atoms: N_19  and  C_20
REMARK    8  A    between atoms: C_20  and  C_21
REMARK                            x       y       z     vdW  Elec       q    Type
REMARK                         _______ _______ _______ _____ _____    ______ ____
ROOT
ATOM      1  C   UNL     1       1.284  12.101  21.081  0.00  0.00    +0.000 C 
ATOM      2  C   UNL     1       0.041  11.805  20.318  0.00  0.00    +0.000 A 
ATOM      3  N   UNL     1      -1.052  12.646  20.521  0.00  0.00    +0.000 NA
ATOM      4  C   UNL     1      -2.054  12.309  19.745  0.00  0.00    +0.000 A 
ATOM      5  N   UNL     1      -3.235  12.969  19.670  0.00  0.00    +0.000 N 
ATOM      6  S   UNL     1      -1.758  10.923  18.765  0.00  0.00    +0.000 S 
ATOM      7  C   UNL     1      -0.162  10.799  19.385  0.00  0.00    +0.000 A 
ATOM      8  H   UNL     1      -4.016  12.496  19.235  0.00  0.00    +0.000 HD
ENDROOT
BRANCH   7   9
ATOM      9  C   UNL     1       0.843   9.759  18.962  0.00  0.00    +0.000 A 
ATOM     10  C   UNL     1       1.576   9.732  17.748  0.00  0.00    +0.000 A 
ATOM     11  C   UNL     1       2.347   8.593  17.805  0.00  0.00    +0.000 A 
ATOM     12  N   UNL     1       2.011   7.980  18.977  0.00  0.00    +0.000 N 
ATOM     13  N   UNL     1       1.180   8.718  19.737  0.00  0.00    +0.000 NA
BRANCH  12  14
ATOM     14  C   UNL     1       2.576   6.749  19.502  0.00  0.00    +0.000 C 
BRANCH  14  15
ATOM     15  C   UNL     1       3.044   5.689  18.488  0.00  0.00    +0.000 C 
ATOM     16  C   UNL     1       3.627   4.396  19.056  0.00  0.00    +0.000 C 
ATOM     17  O   UNL     1       4.927   4.557  19.618  0.00  0.00    +0.000 OA
ATOM     18  C   UNL     1       5.714   5.391  18.868  0.00  0.00    +0.000 A 
ATOM     19  C   UNL     1       7.061   5.456  19.218  0.00  0.00    +0.000 A 
ATOM     20  C   UNL     1       7.911   6.345  18.557  0.00  0.00    +0.000 A 
ATOM     21  C   UNL     1       7.415   7.158  17.536  0.00  0.00    +0.000 A 
ATOM     22  C   UNL     1       6.072   7.076  17.169  0.00  0.00    +0.000 A 
ATOM     23  C   UNL     1       5.219   6.206  17.845  0.00  0.00    +0.000 A 
ATOM     24  O   UNL     1       3.899   6.248  17.482  0.00  0.00    +0.000 OA
ENDBRANCH  14  15
ENDBRANCH  12  14
ENDBRANCH   7   9
BRANCH   5  25
ATOM     25  C   UNL     1      -3.598  13.897  20.731  0.00  0.00    +0.000 C 
BRANCH  25  26
ATOM     26  C   UNL     1      -4.507  13.345  21.791  0.00  0.00    +0.000 A 
ATOM     27  C   UNL     1      -4.127  12.832  23.052  0.00  0.00    +0.000 A 
ATOM     28  N   UNL     1      -5.166  12.434  23.787  0.00  0.00    +0.000 NA
ATOM     29  N   UNL     1      -6.231  12.702  23.009  0.00  0.00    +0.000 N 
ATOM     30  C   UNL     1      -7.553  12.404  23.511  0.00  0.00    +0.000 C 
ATOM     31  C   UNL     1      -5.894  13.255  21.797  0.00  0.00    +0.000 A 
ATOM     32  C   UNL     1      -6.884  13.667  20.770  0.00  0.00    +0.000 C 
ENDBRANCH  25  26
ENDBRANCH   5  25
TORSDOF 5
ENDMDL
MODEL 4
REMARK VINA RESULT:      -8.4      1.432      1.988
REMARK  Name = 
REMARK  8 active torsions:
REMARK  status: ('A' for Active; 'I' for Inactive)
REMARK    1  A    between atoms: C_1  and  C_2
REMARK    2  A    between atoms: N_5  and  C_6
REMARK    3  A    between atoms: C_6  and  C_7
REMARK    4  A    between atoms: N_10  and  C_11
REMARK    5  A    between atoms: C_12  and  C_13
REMARK    6  A    between atoms: C_15  and  C_16
REMARK    7  A    between atoms: N_19  and  C_20
REMARK    8  A    between atoms: C_20  and  C_21
REMARK                            x       y       z     vdW  Elec       q    Type
REMARK                         _______ _______ _______ _____ _____    ______ ____
ROOT
ATOM      1  C   UNL     1       1.265  11.964  20.918  0.00  0.00    +0.000 C 
ATOM      2  C   UNL     1       0.062  11.554  20.144  0.00  0.00    +0.000 A 
ATOM      3  N   UNL     1      -1.081  12.342  20.270  0.00  0.00    +0.000 NA
ATOM      4  C   UNL     1      -2.041  11.904  19.491  0.00  0.00    +0.000 A 
ATOM      5  N   UNL     1      -3.255  12.490  19.349  0.00  0.00    +0.000 N 
ATOM      6  S   UNL     1      -1.642  10.483  18.602  0.00  0.00    +0.000 S 
ATOM      7  C   UNL     1      -0.059  10.486  19.267  0.00  0.00    +0.000 A 
ATOM      8  H   UNL     1      -3.996  11.949  18.924  0.00  0.00    +0.000 HD
ENDROOT
BRANCH   7   9
ATOM      9  C   UNL     1       1.014   9.482  18.930  0.00  0.00    +0.000 A 
ATOM     10  C   UNL     1       1.811   9.454  17.757  0.00  0.00    +0.000 A 
ATOM     11  C   UNL     1       2.629   8.354  17.891  0.00  0.00    +0.000 A 
ATOM     12  N   UNL     1       2.259   7.762  19.064  0.00  0.00    +0.000 N 
ATOM     13  N   UNL     1       1.356   8.482  19.755  0.00  0.00    +0.000 NA
BRANCH  12  14
ATOM     14  C   UNL     1       2.851   6.575  19.656  0.00  0.00    +0.000 C 
BRANCH  14  15
ATOM     15  C   UNL     1       2.745   5.256  18.869  0.00  0.00    +0.000 C 
ATOM     16  C   UNL     1       3.395   4.022  19.494  0.00  0.00    +0.000 C 
ATOM     17  O   UNL     1       4.820   4.041  19.440  0.00  0.00    +0.000 OA
ATOM     18  C   UNL     1       5.284   4.529  18.247  0.00  0.00    +0.000 A 
ATOM     19  C   UNL     1       6.652   4.402  18.014  0.00  0.00    +0.000 A 
ATOM     20  C   UNL     1       7.216   4.949  16.861  0.00  0.00    +0.000 A 
ATOM     21  C   UNL     1       6.409   5.611  15.934  0.00  0.00    +0.000 A 
ATOM     22  C   UNL     1       5.036   5.717  16.154  0.00  0.00    +0.000 A 
ATOM     23  C   UNL     1       4.477   5.192  17.317  0.00  0.00    +0.000 A 
ATOM     24  O   UNL     1       3.137   5.414  17.500  0.00  0.00    +0.000 OA
ENDBRANCH  14  15
ENDBRANCH  12  14
ENDBRANCH   7   9
BRANCH   5  25
ATOM     25  C   UNL     1      -3.697  13.455  20.344  0.00  0.00    +0.000 C 
BRANCH  25  26
ATOM     26  C   UNL     1      -4.880  13.037  21.169  0.00  0.00    +0.000 A 
ATOM     27  C   UNL     1      -5.909  12.146  20.787  0.00  0.00    +0.000 A 
ATOM     28  N   UNL     1      -6.814  11.953  21.747  0.00  0.00    +0.000 NA
ATOM     29  N   UNL     1      -6.368  12.711  22.766  0.00  0.00    +0.000 N 
ATOM     30  C   UNL     1      -7.116  12.727  24.002  0.00  0.00    +0.000 C 
ATOM     31  C   UNL     1      -5.205  13.383  22.476  0.00  0.00    +0.000 A 
ATOM     32  C   UNL     1      -4.493  14.262  23.437  0.00  0.00    +0.000 C 
ENDBRANCH  25  26
ENDBRANCH   5  25
TORSDOF 5
ENDMDL
MODEL 5
REMARK VINA RESULT:      -8.4      7.026      9.984
REMARK  Name = 
REMARK  8 active torsions:
REMARK  status: ('A' for Active; 'I' for Inactive)
REMARK    1  A    between atoms: C_1  and  C_2
REMARK    2  A    between atoms: N_5  and  C_6
REMARK    3  A    between atoms: C_6  and  C_7
REMARK    4  A    between atoms: N_10  and  C_11
REMARK    5  A    between atoms: C_12  and  C_13
REMARK    6  A    between atoms: C_15  and  C_16
REMARK    7  A    between atoms: N_19  and  C_20
REMARK    8  A    between atoms: C_20  and  C_21
REMARK                            x       y       z     vdW  Elec       q    Type
REMARK                         _______ _______ _______ _____ _____    ______ ____
ROOT
ATOM      1  C   UNL     1       5.133   7.106  16.048  0.00  0.00    +0.000 C 
ATOM      2  C   UNL     1       6.164   6.870  17.095  0.00  0.00    +0.000 A 
ATOM      3  N   UNL     1       7.024   7.925  17.398  0.00  0.00    +0.000 NA
ATOM      4  C   UNL     1       7.838   7.601  18.374  0.00  0.00    +0.000 A 
ATOM      5  N   UNL     1       8.752   8.432  18.931  0.00  0.00    +0.000 N 
ATOM      6  S   UNL     1       7.653   5.987  18.947  0.00  0.00    +0.000 S 
ATOM      7  C   UNL     1       6.361   5.722  17.849  0.00  0.00    +0.000 A 
ATOM      8  H   UNL     1       9.484   8.021  19.495  0.00  0.00    +0.000 HD
ENDROOT
BRANCH   7   9
ATOM      9  C   UNL     1       5.574   4.441  17.743  0.00  0.00    +0.000 A 
ATOM     10  C   UNL     1       5.321   3.695  16.563  0.00  0.00    +0.000 A 
ATOM     11  C   UNL     1       4.553   2.623  16.959  0.00  0.00    +0.000 A 
ATOM     12  N   UNL     1       4.338   2.799  18.295  0.00  0.00    +0.000 N 
ATOM     13  N   UNL     1       5.029   3.834  18.808  0.00  0.00    +0.000 NA
BRANCH  12  14
ATOM     14  C   UNL     1       3.599   1.911  19.176  0.00  0.00    +0.000 C 
BRANCH  14  15
ATOM     15  C   UNL     1       2.161   2.313  19.551  0.00  0.00    +0.000 C 
ATOM     16  C   UNL     1       1.158   2.445  18.406  0.00  0.00    +0.000 C 
ATOM     17  O   UNL     1       1.364   3.603  17.600  0.00  0.00    +0.000 OA
ATOM     18  C   UNL     1       1.695   4.701  18.350  0.00  0.00    +0.000 A 
ATOM     19  C   UNL     1       1.720   5.925  17.683  0.00  0.00    +0.000 A 
ATOM     20  C   UNL     1       2.130   7.076  18.357  0.00  0.00    +0.000 A 
ATOM     21  C   UNL     1       2.501   7.007  19.701  0.00  0.00    +0.000 A 
ATOM     22  C   UNL     1       2.453   5.787  20.375  0.00  0.00    +0.000 A 
ATOM     23  C   UNL     1       2.067   4.633  19.697  0.00  0.00    +0.000 A 
ATOM     24  O   UNL     1       2.129   3.462  20.406  0.00  0.00    +0.000 OA
ENDBRANCH  14  15
ENDBRANCH  12  14
ENDBRANCH   7   9
BRANCH   5  25
ATOM     25  C   UNL     1       9.135   9.643  18.221  0.00  0.00    +0.000 C 
BRANCH  25  26
ATOM     26  C   UNL     1       9.621  10.771  19.085  0.00  0.00    +0.000 A 
ATOM     27  C   UNL     1       9.455  10.903  20.482  0.00  0.00    +0.000 A 
ATOM     28  N   UNL     1      10.020  12.008  20.972  0.00  0.00    +0.000 NA
ATOM     29  N   UNL     1      10.569  12.593  19.893  0.00  0.00    +0.000 N 
ATOM     30  C   UNL     1      11.292  13.833  20.064  0.00  0.00    +0.000 C 
ATOM     31  C   UNL     1      10.365  11.891  18.729  0.00  0.00    +0.000 A 
ATOM     32  C   UNL     1      10.892  12.308  17.405  0.00  0.00    +0.000 C 
ENDBRANCH  25  26
ENDBRANCH   5  25
TORSDOF 5
ENDMDL
MODEL 6
REMARK VINA RESULT:      -8.3      2.545      3.817
REMARK  Name = 
REMARK  8 active torsions:
REMARK  status: ('A' for Active; 'I' for Inactive)
REMARK    1  A    between atoms: C_1  and  C_2
REMARK    2  A    between atoms: N_5  and  C_6
REMARK    3  A    between atoms: C_6  and  C_7
REMARK    4  A    between atoms: N_10  and  C_11
REMARK    5  A    between atoms: C_12  and  C_13
REMARK    6  A    between atoms: C_15  and  C_16
REMARK    7  A    between atoms: N_19  and  C_20
REMARK    8  A    between atoms: C_20  and  C_21
REMARK                            x       y       z     vdW  Elec       q    Type
REMARK                         _______ _______ _______ _____ _____    ______ ____
ROOT
ATOM      1  C   UNL     1      -0.253   9.603  22.353  0.00  0.00    +0.000 C 
ATOM      2  C   UNL     1      -0.181  11.042  21.980  0.00  0.00    +0.000 A 
ATOM      3  N   UNL     1      -0.709  11.965  22.882  0.00  0.00    +0.000 NA
ATOM      4  C   UNL     1      -0.526  13.193  22.458  0.00  0.00    +0.000 A 
ATOM      5  N   UNL     1      -0.878  14.311  23.139  0.00  0.00    +0.000 N 
ATOM      6  S   UNL     1       0.245  13.306  20.921  0.00  0.00    +0.000 S 
ATOM      7  C   UNL     1       0.388  11.597  20.843  0.00  0.00    +0.000 A 
ATOM      8  H   UNL     1      -0.918  15.183  22.629  0.00  0.00    +0.000 HD
ENDROOT
BRANCH   7   9
ATOM      9  C   UNL     1       1.039  10.842  19.713  0.00  0.00    +0.000 A 
ATOM     10  C   UNL     1       1.697  11.401  18.587  0.00  0.00    +0.000 A 
ATOM     11  C   UNL     1       2.109  10.328  17.829  0.00  0.00    +0.000 A 
ATOM     12  N   UNL     1       1.647   9.220  18.477  0.00  0.00    +0.000 N 
ATOM     13  N   UNL     1       1.086   9.503  19.667  0.00  0.00    +0.000 NA
BRANCH  12  14
ATOM     14  C   UNL     1       1.849   7.838  18.078  0.00  0.00    +0.000 C 
BRANCH  14  15
ATOM     15  C   UNL     1       2.981   7.055  18.768  0.00  0.00    +0.000 C 
ATOM     16  C   UNL     1       3.877   6.200  17.873  0.00  0.00    +0.000 C 
ATOM     17  O   UNL     1       3.239   5.021  17.389  0.00  0.00    +0.000 OA
ATOM     18  C   UNL     1       2.461   4.425  18.347  0.00  0.00    +0.000 A 
ATOM     19  C   UNL     1       1.957   3.162  18.041  0.00  0.00    +0.000 A 
ATOM     20  C   UNL     1       1.087   2.526  18.928  0.00  0.00    +0.000 A 
ATOM     21  C   UNL     1       0.734   3.146  20.128  0.00  0.00    +0.000 A 
ATOM     22  C   UNL     1       1.258   4.399  20.446  0.00  0.00    +0.000 A 
ATOM     23  C   UNL     1       2.107   5.045  19.549  0.00  0.00    +0.000 A 
ATOM     24  O   UNL     1       2.509   6.308  19.897  0.00  0.00    +0.000 OA
ENDBRANCH  14  15
ENDBRANCH  12  14
ENDBRANCH   7   9
BRANCH   5  25
ATOM     25  C   UNL     1      -1.822  14.203  24.240  0.00  0.00    +0.000 C 
BRANCH  25  26
ATOM     26  C   UNL     1      -3.253  14.506  23.897  0.00  0.00    +0.000 A 
ATOM     27  C   UNL     1      -3.742  15.661  23.245  0.00  0.00    +0.000 A 
ATOM     28  N   UNL     1      -5.063  15.633  23.058  0.00  0.00    +0.000 NA
ATOM     29  N   UNL     1      -5.435  14.449  23.577  0.00  0.00    +0.000 N 
ATOM     30  C   UNL     1      -6.831  14.075  23.529  0.00  0.00    +0.000 C 
ATOM     31  C   UNL     1      -4.387  13.726  24.092  0.00  0.00    +0.000 A 
ATOM     32  C   UNL     1      -4.527  12.377  24.697  0.00  0.00    +0.000 C 
ENDBRANCH  25  26
ENDBRANCH   5  25
TORSDOF 5
ENDMDL
MODEL 7
REMARK VINA RESULT:      -8.2      1.025      1.366
REMARK  Name = 
REMARK  8 active torsions:
REMARK  status: ('A' for Active; 'I' for Inactive)
REMARK    1  A    between atoms: C_1  and  C_2
REMARK    2  A    between atoms: N_5  and  C_6
REMARK    3  A    between atoms: C_6  and  C_7
REMARK    4  A    between atoms: N_10  and  C_11
REMARK    5  A    between atoms: C_12  and  C_13
REMARK    6  A    between atoms: C_15  and  C_16
REMARK    7  A    between atoms: N_19  and  C_20
REMARK    8  A    between atoms: C_20  and  C_21
REMARK                            x       y       z     vdW  Elec       q    Type
REMARK                         _______ _______ _______ _____ _____    ______ ____
ROOT
ATOM      1  C   UNL     1       0.988   9.358  22.585  0.00  0.00    +0.000 C 
ATOM      2  C   UNL     1       0.349  10.144  21.495  0.00  0.00    +0.000 A 
ATOM      3  N   UNL     1      -0.459  11.217  21.867  0.00  0.00    +0.000 NA
ATOM      4  C   UNL     1      -0.907  11.856  20.812  0.00  0.00    +0.000 A 
ATOM      5  N   UNL     1      -1.671  12.974  20.847  0.00  0.00    +0.000 N 
ATOM      6  S   UNL     1      -0.425  11.167  19.308  0.00  0.00    +0.000 S 
ATOM      7  C   UNL     1       0.486   9.963  20.126  0.00  0.00    +0.000 A 
ATOM      8  H   UNL     1      -2.160  13.241  20.002  0.00  0.00    +0.000 HD
ENDROOT
BRANCH   7   9
ATOM      9  C   UNL     1       1.303   8.896  19.445  0.00  0.00    +0.000 A 
ATOM     10  C   UNL     1       1.676   8.856  18.077  0.00  0.00    +0.000 A 
ATOM     11  C   UNL     1       2.395   7.693  17.922  0.00  0.00    +0.000 A 
ATOM     12  N   UNL     1       2.372   7.081  19.142  0.00  0.00    +0.000 N 
ATOM     13  N   UNL     1       1.804   7.838  20.099  0.00  0.00    +0.000 NA
BRANCH  12  14
ATOM     14  C   UNL     1       3.017   5.828  19.493  0.00  0.00    +0.000 C 
BRANCH  14  15
ATOM     15  C   UNL     1       3.712   5.043  18.365  0.00  0.00    +0.000 C 
ATOM     16  C   UNL     1       4.600   3.872  18.782  0.00  0.00    +0.000 C 
ATOM     17  O   UNL     1       5.831   4.274  19.379  0.00  0.00    +0.000 OA
ATOM     18  C   UNL     1       6.381   5.357  18.744  0.00  0.00    +0.000 A 
ATOM     19  C   UNL     1       7.677   5.705  19.119  0.00  0.00    +0.000 A 
ATOM     20  C   UNL     1       8.276   6.846  18.582  0.00  0.00    +0.000 A 
ATOM     21  C   UNL     1       7.583   7.630  17.659  0.00  0.00    +0.000 A 
ATOM     22  C   UNL     1       6.294   7.270  17.265  0.00  0.00    +0.000 A 
ATOM     23  C   UNL     1       5.687   6.145  17.820  0.00  0.00    +0.000 A 
ATOM     24  O   UNL     1       4.391   5.908  17.446  0.00  0.00    +0.000 OA
ENDBRANCH  14  15
ENDBRANCH  12  14
ENDBRANCH   7   9
BRANCH   5  25
ATOM     25  C   UNL     1      -2.349  13.331  22.084  0.00  0.00    +0.000 C 
BRANCH  25  26
ATOM     26  C   UNL     1      -3.803  12.959  22.155  0.00  0.00    +0.000 A 
ATOM     27  C   UNL     1      -4.602  12.879  23.317  0.00  0.00    +0.000 A 
ATOM     28  N   UNL     1      -5.867  12.543  23.058  0.00  0.00    +0.000 NA
ATOM     29  N   UNL     1      -5.897  12.417  21.718  0.00  0.00    +0.000 N 
ATOM     30  C   UNL     1      -7.145  12.068  21.079  0.00  0.00    +0.000 C 
ATOM     31  C   UNL     1      -4.683  12.660  21.121  0.00  0.00    +0.000 A 
ATOM     32  C   UNL     1      -4.456  12.614  19.655  0.00  0.00    +0.000 C 
ENDBRANCH  25  26
ENDBRANCH   5  25
TORSDOF 5
ENDMDL
MODEL 8
REMARK VINA RESULT:      -8.2      1.065      1.276
REMARK  Name = 
REMARK  8 active torsions:
REMARK  status: ('A' for Active; 'I' for Inactive)
REMARK    1  A    between atoms: C_1  and  C_2
REMARK    2  A    between atoms: N_5  and  C_6
REMARK    3  A    between atoms: C_6  and  C_7
REMARK    4  A    between atoms: N_10  and  C_11
REMARK    5  A    between atoms: C_12  and  C_13
REMARK    6  A    between atoms: C_15  and  C_16
REMARK    7  A    between atoms: N_19  and  C_20
REMARK    8  A    between atoms: C_20  and  C_21
REMARK                            x       y       z     vdW  Elec       q    Type
REMARK                         _______ _______ _______ _____ _____    ______ ____
ROOT
ATOM      1  C   UNL     1      -2.086  10.302  18.179  0.00  0.00    +0.000 C 
ATOM      2  C   UNL     1      -1.351  11.020  19.254  0.00  0.00    +0.000 A 
ATOM      3  N   UNL     1      -2.030  12.035  19.928  0.00  0.00    +0.000 NA
ATOM      4  C   UNL     1      -1.290  12.540  20.886  0.00  0.00    +0.000 A 
ATOM      5  N   UNL     1      -1.690  13.502  21.752  0.00  0.00    +0.000 N 
ATOM      6  S   UNL     1       0.290  11.860  20.996  0.00  0.00    +0.000 S 
ATOM      7  C   UNL     1      -0.062  10.782  19.707  0.00  0.00    +0.000 A 
ATOM      8  H   UNL     1      -0.979  13.988  22.282  0.00  0.00    +0.000 HD
ENDROOT
BRANCH   7   9
ATOM      9  C   UNL     1       0.892   9.744  19.174  0.00  0.00    +0.000 A 
ATOM     10  C   UNL     1       1.510   9.735  17.898  0.00  0.00    +0.000 A 
ATOM     11  C   UNL     1       2.274   8.590  17.862  0.00  0.00    +0.000 A 
ATOM     12  N   UNL     1       2.042   7.957  19.049  0.00  0.00    +0.000 N 
ATOM     13  N   UNL     1       1.290   8.686  19.896  0.00  0.00    +0.000 NA
BRANCH  12  14
ATOM     14  C   UNL     1       2.642   6.712  19.497  0.00  0.00    +0.000 C 
BRANCH  14  15
ATOM     15  C   UNL     1       3.109   5.717  18.418  0.00  0.00    +0.000 C 
ATOM     16  C   UNL     1       3.660   4.377  18.905  0.00  0.00    +0.000 C 
ATOM     17  O   UNL     1       4.952   4.474  19.499  0.00  0.00    +0.000 OA
ATOM     18  C   UNL     1       5.767   5.343  18.821  0.00  0.00    +0.000 A 
ATOM     19  C   UNL     1       7.108   5.359  19.198  0.00  0.00    +0.000 A 
ATOM     20  C   UNL     1       7.985   6.275  18.615  0.00  0.00    +0.000 A 
ATOM     21  C   UNL     1       7.522   7.166  17.645  0.00  0.00    +0.000 A 
ATOM     22  C   UNL     1       6.185   7.135  17.251  0.00  0.00    +0.000 A 
ATOM     23  C   UNL     1       5.305   6.237  17.850  0.00  0.00    +0.000 A 
ATOM     24  O   UNL     1       3.992   6.328  17.469  0.00  0.00    +0.000 OA
ENDBRANCH  14  15
ENDBRANCH  12  14
ENDBRANCH   7   9
BRANCH   5  25
ATOM     25  C   UNL     1      -2.866  14.299  21.433  0.00  0.00    +0.000 C 
BRANCH  25  26
ATOM     26  C   UNL     1      -4.104  13.963  22.214  0.00  0.00    +0.000 A 
ATOM     27  C   UNL     1      -4.475  12.694  22.712  0.00  0.00    +0.000 A 
ATOM     28  N   UNL     1      -5.624  12.715  23.389  0.00  0.00    +0.000 NA
ATOM     29  N   UNL     1      -5.999  14.006  23.344  0.00  0.00    +0.000 N 
ATOM     30  C   UNL     1      -7.222  14.401  24.006  0.00  0.00    +0.000 C 
ATOM     31  C   UNL     1      -5.119  14.805  22.654  0.00  0.00    +0.000 A 
ATOM     32  C   UNL     1      -5.287  16.270  22.483  0.00  0.00    +0.000 C 
ENDBRANCH  25  26
ENDBRANCH   5  25
TORSDOF 5
ENDMDL
MODEL 9
REMARK VINA RESULT:      -8.2      2.307      4.470
REMARK  Name = 
REMARK  8 active torsions:
REMARK  status: ('A' for Active; 'I' for Inactive)
REMARK    1  A    between atoms: C_1  and  C_2
REMARK    2  A    between atoms: N_5  and  C_6
REMARK    3  A    between atoms: C_6  and  C_7
REMARK    4  A    between atoms: N_10  and  C_11
REMARK    5  A    between atoms: C_12  and  C_13
REMARK    6  A    between atoms: C_15  and  C_16
REMARK    7  A    between atoms: N_19  and  C_20
REMARK    8  A    between atoms: C_20  and  C_21
REMARK                            x       y       z     vdW  Elec       q    Type
REMARK                         _______ _______ _______ _____ _____    ______ ____
ROOT
ATOM      1  C   UNL     1       1.534   7.166  20.790  0.00  0.00    +0.000 C 
ATOM      2  C   UNL     1       1.487   8.233  19.754  0.00  0.00    +0.000 A 
ATOM      3  N   UNL     1       0.551   9.252  19.925  0.00  0.00    +0.000 NA
ATOM      4  C   UNL     1       0.659  10.152  18.977  0.00  0.00    +0.000 A 
ATOM      5  N   UNL     1      -0.073  11.290  18.898  0.00  0.00    +0.000 N 
ATOM      6  S   UNL     1       1.858   9.795  17.791  0.00  0.00    +0.000 S 
ATOM      7  C   UNL     1       2.296   8.365  18.634  0.00  0.00    +0.000 A 
ATOM      8  H   UNL     1      -0.088  11.784  18.016  0.00  0.00    +0.000 HD
ENDROOT
BRANCH   7   9
ATOM      9  C   UNL     1       3.393   7.422  18.211  0.00  0.00    +0.000 A 
ATOM     10  C   UNL     1       3.999   7.346  16.931  0.00  0.00    +0.000 A 
ATOM     11  C   UNL     1       4.927   6.333  17.020  0.00  0.00    +0.000 A 
ATOM     12  N   UNL     1       4.799   5.827  18.280  0.00  0.00    +0.000 N 
ATOM     13  N   UNL     1       3.950   6.535  19.048  0.00  0.00    +0.000 NA
BRANCH  12  14
ATOM     14  C   UNL     1       5.583   4.751  18.864  0.00  0.00    +0.000 C 
BRANCH  14  15
ATOM     15  C   UNL     1       5.133   3.306  18.581  0.00  0.00    +0.000 C 
ATOM     16  C   UNL     1       4.146   3.100  17.433  0.00  0.00    +0.000 C 
ATOM     17  O   UNL     1       2.825   3.545  17.731  0.00  0.00    +0.000 OA
ATOM     18  C   UNL     1       2.455   3.238  19.014  0.00  0.00    +0.000 A 
ATOM     19  C   UNL     1       1.116   3.448  19.341  0.00  0.00    +0.000 A 
ATOM     20  C   UNL     1       0.679   3.241  20.650  0.00  0.00    +0.000 A 
ATOM     21  C   UNL     1       1.577   2.809  21.628  0.00  0.00    +0.000 A 
ATOM     22  C   UNL     1       2.911   2.576  21.295  0.00  0.00    +0.000 A 
ATOM     23  C   UNL     1       3.353   2.807  19.994  0.00  0.00    +0.000 A 
ATOM     24  O   UNL     1       4.694   2.636  19.770  0.00  0.00    +0.000 OA
ENDBRANCH  14  15
ENDBRANCH  12  14
ENDBRANCH   7   9
BRANCH   5  25
ATOM     25  C   UNL     1      -1.293  11.403  19.683  0.00  0.00    +0.000 C 
BRANCH  25  26
ATOM     26  C   UNL     1      -2.560  11.547  18.890  0.00  0.00    +0.000 A 
ATOM     27  C   UNL     1      -2.806  11.059  17.586  0.00  0.00    +0.000 A 
ATOM     28  N   UNL     1      -4.040  11.323  17.154  0.00  0.00    +0.000 NA
ATOM     29  N   UNL     1      -4.608  11.975  18.186  0.00  0.00    +0.000 N 
ATOM     30  C   UNL     1      -5.982  12.406  18.065  0.00  0.00    +0.000 C 
ATOM     31  C   UNL     1      -3.765  12.134  19.259  0.00  0.00    +0.000 A 
ATOM     32  C   UNL     1      -4.157  12.793  20.531  0.00  0.00    +0.000 C 
ENDBRANCH  25  26
ENDBRANCH   5  25
TORSDOF 5
ENDMDL
