MODEL 1
REMARK VINA RESULT:      -6.5      0.000      0.000
REMARK  Name = 
REMARK  3 active torsions:
REMARK  status: ('A' for Active; 'I' for Inactive)
REMARK    1  A    between atoms: C_4  and  C_5
REMARK    2  A    between atoms: C_5  and  O_6
REMARK    3  A    between atoms: N_8  and  C_9
REMARK                            x       y       z     vdW  Elec       q    Type
REMARK                         _______ _______ _______ _____ _____    ______ ____
ROOT
ATOM      1  O   UNL     1       6.752   5.171  19.776  0.00  0.00    +0.000 OA
ATOM      2  C   UNL     1       6.256   4.814  18.713  0.00  0.00    +0.000 A 
ATOM      3  C   UNL     1       7.035   4.922  17.461  0.00  0.00    +0.000 A 
ATOM      4  C   UNL     1       6.340   4.512  16.393  0.00  0.00    +0.000 A 
ATOM      5  S   UNL     1       4.769   3.895  16.797  0.00  0.00    +0.000 S 
ATOM      6  N   UNL     1       4.999   4.274  18.453  0.00  0.00    +0.000 N 
ENDROOT
BRANCH   6   7
ATOM      7  C   UNL     1       3.961   4.117  19.413  0.00  0.00    +0.000 A 
ATOM      8  C   UNL     1       3.134   5.194  19.763  0.00  0.00    +0.000 A 
ATOM      9  C   UNL     1       2.107   5.045  20.700  0.00  0.00    +0.000 A 
ATOM     10  C   UNL     1       1.903   3.818  21.323  0.00  0.00    +0.000 A 
ATOM     11  C   UNL     1       2.716   2.737  20.998  0.00  0.00    +0.000 A 
ATOM     12  C   UNL     1       3.726   2.881  20.040  0.00  0.00    +0.000 A 
ENDBRANCH   6   7
BRANCH   4  13
ATOM     13  C   UNL     1       6.786   4.538  14.965  0.00  0.00    +0.000 C 
BRANCH  13  14
ATOM     14  O   UNL     1       7.790   5.524  14.750  0.00  0.00    +0.000 OA
ATOM     15  H   UNL     1       7.404   6.206  14.174  0.00  0.00    +0.000 HD
ENDBRANCH  13  14
ENDBRANCH   4  13
TORSDOF 3
ENDMDL
MODEL 2
REMARK VINA RESULT:      -6.5      0.094      1.288
REMARK  Name = 
REMARK  3 active torsions:
REMARK  status: ('A' for Active; 'I' for Inactive)
REMARK    1  A    between atoms: C_4  and  C_5
REMARK    2  A    between atoms: C_5  and  O_6
REMARK    3  A    between atoms: N_8  and  C_9
REMARK                            x       y       z     vdW  Elec       q    Type
REMARK                         _______ _______ _______ _____ _____    ______ ____
ROOT
ATOM      1  O   UNL     1       6.694   5.190  19.866  0.00  0.00    +0.000 OA
ATOM      2  C   UNL     1       6.220   4.827  18.796  0.00  0.00    +0.000 A 
ATOM      3  C   UNL     1       7.025   4.924  17.560  0.00  0.00    +0.000 A 
ATOM      4  C   UNL     1       6.352   4.509  16.480  0.00  0.00    +0.000 A 
ATOM      5  S   UNL     1       4.771   3.899  16.855  0.00  0.00    +0.000 S 
ATOM      6  N   UNL     1       4.967   4.289  18.513  0.00  0.00    +0.000 N 
ENDROOT
BRANCH   6   7
ATOM      7  C   UNL     1       3.908   4.142  19.452  0.00  0.00    +0.000 A 
ATOM      8  C   UNL     1       3.625   2.896  20.029  0.00  0.00    +0.000 A 
ATOM      9  C   UNL     1       2.591   2.746  20.959  0.00  0.00    +0.000 A 
ATOM     10  C   UNL     1       1.805   3.838  21.311  0.00  0.00    +0.000 A 
ATOM     11  C   UNL     1       2.062   5.083  20.746  0.00  0.00    +0.000 A 
ATOM     12  C   UNL     1       3.114   5.237  19.836  0.00  0.00    +0.000 A 
ENDBRANCH   6   7
BRANCH   4  13
ATOM     13  C   UNL     1       6.828   4.524  15.062  0.00  0.00    +0.000 C 
BRANCH  13  14
ATOM     14  O   UNL     1       7.783   5.557  14.842  0.00  0.00    +0.000 OA
ATOM     15  H   UNL     1       8.447   5.489  15.549  0.00  0.00    +0.000 HD
ENDBRANCH  13  14
ENDBRANCH   4  13
TORSDOF 3
ENDMDL
MODEL 3
REMARK VINA RESULT:      -6.2      1.915      2.037
REMARK  Name = 
REMARK  3 active torsions:
REMARK  status: ('A' for Active; 'I' for Inactive)
REMARK    1  A    between atoms: C_4  and  C_5
REMARK    2  A    between atoms: C_5  and  O_6
REMARK    3  A    between atoms: N_8  and  C_9
REMARK                            x       y       z     vdW  Elec       q    Type
REMARK                         _______ _______ _______ _____ _____    ______ ____
ROOT
ATOM      1  O   UNL     1       3.707   7.424  17.529  0.00  0.00    +0.000 OA
ATOM      2  C   UNL     1       4.186   6.367  17.134  0.00  0.00    +0.000 A 
ATOM      3  C   UNL     1       5.174   6.369  16.034  0.00  0.00    +0.000 A 
ATOM      4  C   UNL     1       5.578   5.135  15.711  0.00  0.00    +0.000 A 
ATOM      5  S   UNL     1       4.896   3.906  16.730  0.00  0.00    +0.000 S 
ATOM      6  N   UNL     1       3.958   5.066  17.575  0.00  0.00    +0.000 N 
ENDROOT
BRANCH   6   7
ATOM      7  C   UNL     1       3.000   4.690  18.557  0.00  0.00    +0.000 A 
ATOM      8  C   UNL     1       3.114   5.134  19.882  0.00  0.00    +0.000 A 
ATOM      9  C   UNL     1       2.171   4.775  20.850  0.00  0.00    +0.000 A 
ATOM     10  C   UNL     1       1.107   3.944  20.515  0.00  0.00    +0.000 A 
ATOM     11  C   UNL     1       0.978   3.484  19.208  0.00  0.00    +0.000 A 
ATOM     12  C   UNL     1       1.907   3.867  18.234  0.00  0.00    +0.000 A 
ENDBRANCH   6   7
BRANCH   4  13
ATOM     13  C   UNL     1       6.518   4.754  14.612  0.00  0.00    +0.000 C 
BRANCH  13  14
ATOM     14  O   UNL     1       7.736   5.487  14.690  0.00  0.00    +0.000 OA
ATOM     15  H   UNL     1       7.832   5.975  13.854  0.00  0.00    +0.000 HD
ENDBRANCH  13  14
ENDBRANCH   4  13
TORSDOF 3
ENDMDL
MODEL 4
REMARK VINA RESULT:      -6.2      3.135      5.840
REMARK  Name = 
REMARK  3 active torsions:
REMARK  status: ('A' for Active; 'I' for Inactive)
REMARK    1  A    between atoms: C_4  and  C_5
REMARK    2  A    between atoms: C_5  and  O_6
REMARK    3  A    between atoms: N_8  and  C_9
REMARK                            x       y       z     vdW  Elec       q    Type
REMARK                         _______ _______ _______ _____ _____    ______ ____
ROOT
ATOM      1  O   UNL     1       0.938   4.309  17.074  0.00  0.00    +0.000 OA
ATOM      2  C   UNL     1       1.615   3.990  18.045  0.00  0.00    +0.000 A 
ATOM      3  C   UNL     1       0.961   3.443  19.254  0.00  0.00    +0.000 A 
ATOM      4  C   UNL     1       1.839   3.169  20.226  0.00  0.00    +0.000 A 
ATOM      5  S   UNL     1       3.487   3.450  19.757  0.00  0.00    +0.000 S 
ATOM      6  N   UNL     1       2.994   4.044  18.226  0.00  0.00    +0.000 N 
ENDROOT
BRANCH   6   7
ATOM      7  C   UNL     1       3.920   4.602  17.301  0.00  0.00    +0.000 A 
ATOM      8  C   UNL     1       4.134   5.987  17.241  0.00  0.00    +0.000 A 
ATOM      9  C   UNL     1       5.048   6.541  16.340  0.00  0.00    +0.000 A 
ATOM     10  C   UNL     1       5.750   5.720  15.464  0.00  0.00    +0.000 A 
ATOM     11  C   UNL     1       5.550   4.343  15.500  0.00  0.00    +0.000 A 
ATOM     12  C   UNL     1       4.654   3.788  16.421  0.00  0.00    +0.000 A 
ENDBRANCH   6   7
BRANCH   4  13
ATOM     13  C   UNL     1       1.532   2.664  21.601  0.00  0.00    +0.000 C 
BRANCH  13  14
ATOM     14  O   UNL     1       2.720   2.346  22.318  0.00  0.00    +0.000 OA
ATOM     15  H   UNL     1       2.470   2.225  23.249  0.00  0.00    +0.000 HD
ENDBRANCH  13  14
ENDBRANCH   4  13
TORSDOF 3
ENDMDL
MODEL 5
REMARK VINA RESULT:      -6.1      2.030      2.229
REMARK  Name = 
REMARK  3 active torsions:
REMARK  status: ('A' for Active; 'I' for Inactive)
REMARK    1  A    between atoms: C_4  and  C_5
REMARK    2  A    between atoms: C_5  and  O_6
REMARK    3  A    between atoms: N_8  and  C_9
REMARK                            x       y       z     vdW  Elec       q    Type
REMARK                         _______ _______ _______ _____ _____    ______ ____
ROOT
ATOM      1  O   UNL     1       3.430   7.171  17.883  0.00  0.00    +0.000 OA
ATOM      2  C   UNL     1       3.962   6.174  17.409  0.00  0.00    +0.000 A 
ATOM      3  C   UNL     1       4.949   6.312  16.316  0.00  0.00    +0.000 A 
ATOM      4  C   UNL     1       5.415   5.128  15.900  0.00  0.00    +0.000 A 
ATOM      5  S   UNL     1       4.798   3.790  16.817  0.00  0.00    +0.000 S 
ATOM      6  N   UNL     1       3.802   4.832  17.747  0.00  0.00    +0.000 N 
ENDROOT
BRANCH   6   7
ATOM      7  C   UNL     1       2.865   4.332  18.693  0.00  0.00    +0.000 A 
ATOM      8  C   UNL     1       1.811   3.499  18.293  0.00  0.00    +0.000 A 
ATOM      9  C   UNL     1       0.891   2.998  19.220  0.00  0.00    +0.000 A 
ATOM     10  C   UNL     1       0.996   3.341  20.563  0.00  0.00    +0.000 A 
ATOM     11  C   UNL     1       2.029   4.174  20.983  0.00  0.00    +0.000 A 
ATOM     12  C   UNL     1       2.964   4.652  20.058  0.00  0.00    +0.000 A 
ENDBRANCH   6   7
BRANCH   4  13
ATOM     13  C   UNL     1       6.373   4.882  14.777  0.00  0.00    +0.000 C 
BRANCH  13  14
ATOM     14  O   UNL     1       6.365   3.516  14.374  0.00  0.00    +0.000 OA
ATOM     15  H   UNL     1       7.268   3.176  14.494  0.00  0.00    +0.000 HD
ENDBRANCH  13  14
ENDBRANCH   4  13
TORSDOF 3
ENDMDL
MODEL 6
REMARK VINA RESULT:      -5.9      1.894      2.431
REMARK  Name = 
REMARK  3 active torsions:
REMARK  status: ('A' for Active; 'I' for Inactive)
REMARK    1  A    between atoms: C_4  and  C_5
REMARK    2  A    between atoms: C_5  and  O_6
REMARK    3  A    between atoms: N_8  and  C_9
REMARK                            x       y       z     vdW  Elec       q    Type
REMARK                         _______ _______ _______ _____ _____    ______ ____
ROOT
ATOM      1  O   UNL     1       3.119   3.328  16.631  0.00  0.00    +0.000 OA
ATOM      2  C   UNL     1       3.955   3.979  17.248  0.00  0.00    +0.000 A 
ATOM      3  C   UNL     1       5.106   4.570  16.532  0.00  0.00    +0.000 A 
ATOM      4  C   UNL     1       5.932   5.227  17.355  0.00  0.00    +0.000 A 
ATOM      5  S   UNL     1       5.370   5.269  18.997  0.00  0.00    +0.000 S 
ATOM      6  N   UNL     1       4.015   4.295  18.602  0.00  0.00    +0.000 N 
ENDROOT
BRANCH   6   7
ATOM      7  C   UNL     1       3.119   3.813  19.597  0.00  0.00    +0.000 A 
ATOM      8  C   UNL     1       3.531   2.856  20.536  0.00  0.00    +0.000 A 
ATOM      9  C   UNL     1       2.657   2.384  21.520  0.00  0.00    +0.000 A 
ATOM     10  C   UNL     1       1.346   2.844  21.569  0.00  0.00    +0.000 A 
ATOM     11  C   UNL     1       0.912   3.788  20.643  0.00  0.00    +0.000 A 
ATOM     12  C   UNL     1       1.795   4.279  19.675  0.00  0.00    +0.000 A 
ENDBRANCH   6   7
BRANCH   4  13
ATOM     13  C   UNL     1       7.222   5.893  16.992  0.00  0.00    +0.000 C 
BRANCH  13  14
ATOM     14  O   UNL     1       7.493   5.780  15.599  0.00  0.00    +0.000 OA
ATOM     15  H   UNL     1       7.152   4.917  15.308  0.00  0.00    +0.000 HD
ENDBRANCH  13  14
ENDBRANCH   4  13
TORSDOF 3
ENDMDL
MODEL 7
REMARK VINA RESULT:      -5.9      2.403      5.683
REMARK  Name = 
REMARK  3 active torsions:
REMARK  status: ('A' for Active; 'I' for Inactive)
REMARK    1  A    between atoms: C_4  and  C_5
REMARK    2  A    between atoms: C_5  and  O_6
REMARK    3  A    between atoms: N_8  and  C_9
REMARK                            x       y       z     vdW  Elec       q    Type
REMARK                         _______ _______ _______ _____ _____    ______ ____
ROOT
ATOM      1  O   UNL     1       2.774   6.328  18.015  0.00  0.00    +0.000 OA
ATOM      2  C   UNL     1       2.897   5.227  18.538  0.00  0.00    +0.000 A 
ATOM      3  C   UNL     1       1.942   4.793  19.580  0.00  0.00    +0.000 A 
ATOM      4  C   UNL     1       2.232   3.578  20.061  0.00  0.00    +0.000 A 
ATOM      5  S   UNL     1       3.583   2.833  19.266  0.00  0.00    +0.000 S 
ATOM      6  N   UNL     1       3.840   4.229  18.304  0.00  0.00    +0.000 N 
ENDROOT
BRANCH   6   7
ATOM      7  C   UNL     1       4.958   4.348  17.432  0.00  0.00    +0.000 A 
ATOM      8  C   UNL     1       6.239   4.616  17.935  0.00  0.00    +0.000 A 
ATOM      9  C   UNL     1       7.344   4.727  17.084  0.00  0.00    +0.000 A 
ATOM     10  C   UNL     1       7.182   4.593  15.710  0.00  0.00    +0.000 A 
ATOM     11  C   UNL     1       5.919   4.333  15.186  0.00  0.00    +0.000 A 
ATOM     12  C   UNL     1       4.820   4.197  16.041  0.00  0.00    +0.000 A 
ENDBRANCH   6   7
BRANCH   4  13
ATOM     13  C   UNL     1       1.522   2.852  21.161  0.00  0.00    +0.000 C 
BRANCH  13  14
ATOM     14  O   UNL     1       2.277   2.869  22.368  0.00  0.00    +0.000 OA
ATOM     15  H   UNL     1       2.295   3.788  22.683  0.00  0.00    +0.000 HD
ENDBRANCH  13  14
ENDBRANCH   4  13
TORSDOF 3
ENDMDL
MODEL 8
REMARK VINA RESULT:      -5.9      1.899      2.142
REMARK  Name = 
REMARK  3 active torsions:
REMARK  status: ('A' for Active; 'I' for Inactive)
REMARK    1  A    between atoms: C_4  and  C_5
REMARK    2  A    between atoms: C_5  and  O_6
REMARK    3  A    between atoms: N_8  and  C_9
REMARK                            x       y       z     vdW  Elec       q    Type
REMARK                         _______ _______ _______ _____ _____    ______ ____
ROOT
ATOM      1  O   UNL     1       3.068   3.443  16.584  0.00  0.00    +0.000 OA
ATOM      2  C   UNL     1       3.924   4.068  17.200  0.00  0.00    +0.000 A 
ATOM      3  C   UNL     1       5.068   4.663  16.476  0.00  0.00    +0.000 A 
ATOM      4  C   UNL     1       5.919   5.290  17.298  0.00  0.00    +0.000 A 
ATOM      5  S   UNL     1       5.389   5.299  18.951  0.00  0.00    +0.000 S 
ATOM      6  N   UNL     1       4.015   4.351  18.560  0.00  0.00    +0.000 N 
ENDROOT
BRANCH   6   7
ATOM      7  C   UNL     1       3.132   3.856  19.560  0.00  0.00    +0.000 A 
ATOM      8  C   UNL     1       1.812   4.319  19.650  0.00  0.00    +0.000 A 
ATOM      9  C   UNL     1       0.937   3.831  20.625  0.00  0.00    +0.000 A 
ATOM     10  C   UNL     1       1.375   2.885  21.545  0.00  0.00    +0.000 A 
ATOM     11  C   UNL     1       2.683   2.415  21.481  0.00  0.00    +0.000 A 
ATOM     12  C   UNL     1       3.549   2.885  20.488  0.00  0.00    +0.000 A 
ENDBRANCH   6   7
BRANCH   4  13
ATOM     13  C   UNL     1       7.210   5.949  16.926  0.00  0.00    +0.000 C 
BRANCH  13  14
ATOM     14  O   UNL     1       7.548   5.701  15.565  0.00  0.00    +0.000 OA
ATOM     15  H   UNL     1       7.260   4.796  15.357  0.00  0.00    +0.000 HD
ENDBRANCH  13  14
ENDBRANCH   4  13
TORSDOF 3
ENDMDL
MODEL 9
REMARK VINA RESULT:      -5.9      2.484      5.710
REMARK  Name = 
REMARK  3 active torsions:
REMARK  status: ('A' for Active; 'I' for Inactive)
REMARK    1  A    between atoms: C_4  and  C_5
REMARK    2  A    between atoms: C_5  and  O_6
REMARK    3  A    between atoms: N_8  and  C_9
REMARK                            x       y       z     vdW  Elec       q    Type
REMARK                         _______ _______ _______ _____ _____    ______ ____
ROOT
ATOM      1  O   UNL     1       2.504   5.960  17.806  0.00  0.00    +0.000 OA
ATOM      2  C   UNL     1       2.731   4.922  18.418  0.00  0.00    +0.000 A 
ATOM      3  C   UNL     1       1.775   4.442  19.438  0.00  0.00    +0.000 A 
ATOM      4  C   UNL     1       2.184   3.310  20.025  0.00  0.00    +0.000 A 
ATOM      5  S   UNL     1       3.664   2.693  19.361  0.00  0.00    +0.000 S 
ATOM      6  N   UNL     1       3.803   4.041  18.309  0.00  0.00    +0.000 N 
ENDROOT
BRANCH   6   7
ATOM      7  C   UNL     1       4.949   4.242  17.491  0.00  0.00    +0.000 A 
ATOM      8  C   UNL     1       4.874   4.102  16.098  0.00  0.00    +0.000 A 
ATOM      9  C   UNL     1       5.994   4.306  15.286  0.00  0.00    +0.000 A 
ATOM     10  C   UNL     1       7.220   4.633  15.858  0.00  0.00    +0.000 A 
ATOM     11  C   UNL     1       7.321   4.770  17.239  0.00  0.00    +0.000 A 
ATOM     12  C   UNL     1       6.192   4.591  18.047  0.00  0.00    +0.000 A 
ENDBRANCH   6   7
BRANCH   4  13
ATOM     13  C   UNL     1       1.504   2.577  21.138  0.00  0.00    +0.000 C 
BRANCH  13  14
ATOM     14  O   UNL     1       2.015   2.968  22.409  0.00  0.00    +0.000 OA
ATOM     15  H   UNL     1       2.958   3.173  22.289  0.00  0.00    +0.000 HD
ENDBRANCH  13  14
ENDBRANCH   4  13
TORSDOF 3
ENDMDL
