MODEL 1
REMARK VINA RESULT:      -6.9      0.000      0.000
REMARK  Name = 
REMARK  8 active torsions:
REMARK  status: ('A' for Active; 'I' for Inactive)
REMARK    1  A    between atoms: C_1  and  C_2
REMARK    2  A    between atoms: C_3  and  C_4
REMARK    3  A    between atoms: N_5  and  C_6
REMARK    4  A    between atoms: C_6  and  C_7
REMARK    5  A    between atoms: C_14  and  O_15
REMARK    6  A    between atoms: O_15  and  C_16
REMARK    7  A    between atoms: C_16  and  C_17
REMARK    8  A    between atoms: C_25  and  C_26
REMARK                            x       y       z     vdW  Elec       q    Type
REMARK                         _______ _______ _______ _____ _____    ______ ____
ROOT
ATOM      1  C   UNL     1      -2.536   9.678  16.044  0.00  0.00    +0.000 C 
ATOM      2  C   UNL     1      -2.338  10.484  17.283  0.00  0.00    +0.000 A 
ATOM      3  C   UNL     1      -1.185  10.619  18.037  0.00  0.00    +0.000 A 
ATOM      4  C   UNL     1       0.139   9.959  17.842  0.00  0.00    +0.000 C 
ATOM      5  N   UNL     1      -1.454  11.511  19.064  0.00  0.00    +0.000 N 
ATOM      6  C   UNL     1      -2.796  11.878  19.040  0.00  0.00    +0.000 A 
ATOM      7  C   UNL     1      -3.575  12.685  19.885  0.00  0.00    +0.000 A 
ATOM      8  N   UNL     1      -4.895  12.859  19.616  0.00  0.00    +0.000 NA
ATOM      9  C   UNL     1      -5.420  12.238  18.522  0.00  0.00    +0.000 A 
ATOM     10  C   UNL     1      -4.712  11.434  17.650  0.00  0.00    +0.000 A 
ATOM     11  C   UNL     1      -3.355  11.245  17.929  0.00  0.00    +0.000 A 
ENDROOT
BRANCH   9  12
ATOM     12  C   UNL     1      -6.881  12.439  18.241  0.00  0.00    +0.000 C 
ATOM     13  N   UNL     1      -7.215  12.661  16.934  0.00  0.00    +0.000 N 
ATOM     14  O   UNL     1      -7.737  12.407  19.116  0.00  0.00    +0.000 OA
ATOM     15  H   UNL     1      -6.500  12.657  16.216  0.00  0.00    +0.000 HD
ATOM     16  H   UNL     1      -8.191  12.783  16.694  0.00  0.00    +0.000 HD
ENDBRANCH   9  12
BRANCH   5  17
ATOM     17  C   UNL     1      -0.461  12.001  20.027  0.00  0.00    +0.000 C 
BRANCH  17  18
ATOM     18  C   UNL     1      -0.162  11.056  21.171  0.00  0.00    +0.000 A 
ATOM     19  C   UNL     1       0.936  10.184  21.191  0.00  0.00    +0.000 A 
ATOM     20  C   UNL     1       1.104   9.267  22.233  0.00  0.00    +0.000 A 
ATOM     21  C   UNL     1       0.197   9.233  23.288  0.00  0.00    +0.000 A 
ATOM     22  C   UNL     1      -0.862  10.135  23.319  0.00  0.00    +0.000 A 
ATOM     23  C   UNL     1      -1.041  11.041  22.269  0.00  0.00    +0.000 A 
ENDBRANCH  17  18
ENDBRANCH   5  17
BRANCH   7  24
ATOM     24  O   UNL     1      -3.005  13.357  20.945  0.00  0.00    +0.000 OA
BRANCH  24  25
ATOM     25  C   UNL     1      -3.781  13.287  22.139  0.00  0.00    +0.000 C 
BRANCH  25  26
ATOM     26  C   UNL     1      -3.045  14.047  23.224  0.00  0.00    +0.000 A 
ATOM     27  C   UNL     1      -1.662  14.277  23.122  0.00  0.00    +0.000 A 
ATOM     28  C   UNL     1      -0.977  14.939  24.145  0.00  0.00    +0.000 A 
ATOM     29  C   UNL     1      -1.669  15.362  25.273  0.00  0.00    +0.000 A 
ATOM     30  F   UNL     1      -1.008  15.980  26.262  0.00  0.00    +0.000 F 
ATOM     31  C   UNL     1      -3.035  15.147  25.391  0.00  0.00    +0.000 A 
ATOM     32  C   UNL     1      -3.722  14.493  24.367  0.00  0.00    +0.000 A 
ENDBRANCH  25  26
ENDBRANCH  24  25
ENDBRANCH   7  24
TORSDOF 6
ENDMDL
MODEL 2
REMARK VINA RESULT:      -6.9      4.153      8.022
REMARK  Name = 
REMARK  8 active torsions:
REMARK  status: ('A' for Active; 'I' for Inactive)
REMARK    1  A    between atoms: C_1  and  C_2
REMARK    2  A    between atoms: C_3  and  C_4
REMARK    3  A    between atoms: N_5  and  C_6
REMARK    4  A    between atoms: C_6  and  C_7
REMARK    5  A    between atoms: C_14  and  O_15
REMARK    6  A    between atoms: O_15  and  C_16
REMARK    7  A    between atoms: C_16  and  C_17
REMARK    8  A    between atoms: C_25  and  C_26
REMARK                            x       y       z     vdW  Elec       q    Type
REMARK                         _______ _______ _______ _____ _____    ______ ____
ROOT
ATOM      1  C   UNL     1      -1.136  16.224  20.184  0.00  0.00    +0.000 C 
ATOM      2  C   UNL     1      -0.906  14.784  19.871  0.00  0.00    +0.000 A 
ATOM      3  C   UNL     1      -1.754  13.715  20.106  0.00  0.00    +0.000 A 
ATOM      4  C   UNL     1      -3.088  13.712  20.775  0.00  0.00    +0.000 C 
ATOM      5  N   UNL     1      -1.147  12.576  19.599  0.00  0.00    +0.000 N 
ATOM      6  C   UNL     1       0.125  12.881  19.127  0.00  0.00    +0.000 A 
ATOM      7  C   UNL     1       1.155  12.090  18.591  0.00  0.00    +0.000 A 
ATOM      8  N   UNL     1       2.324  12.673  18.219  0.00  0.00    +0.000 NA
ATOM      9  C   UNL     1       2.456  14.020  18.378  0.00  0.00    +0.000 A 
ATOM     10  C   UNL     1       1.485  14.856  18.896  0.00  0.00    +0.000 A 
ATOM     11  C   UNL     1       0.284  14.258  19.290  0.00  0.00    +0.000 A 
ENDROOT
BRANCH   9  12
ATOM     12  C   UNL     1       3.755  14.647  17.964  0.00  0.00    +0.000 C 
ATOM     13  N   UNL     1       3.667  15.889  17.398  0.00  0.00    +0.000 N 
ATOM     14  O   UNL     1       4.838  14.097  18.118  0.00  0.00    +0.000 OA
ATOM     15  H   UNL     1       2.768  16.344  17.303  0.00  0.00    +0.000 HD
ATOM     16  H   UNL     1       4.519  16.359  17.121  0.00  0.00    +0.000 HD
ENDBRANCH   9  12
BRANCH   5  17
ATOM     17  C   UNL     1      -1.767  11.246  19.558  0.00  0.00    +0.000 C 
BRANCH  17  18
ATOM     18  C   UNL     1      -2.466  10.907  18.260  0.00  0.00    +0.000 A 
ATOM     19  C   UNL     1      -1.945  10.020  17.306  0.00  0.00    +0.000 A 
ATOM     20  C   UNL     1      -2.592   9.822  16.083  0.00  0.00    +0.000 A 
ATOM     21  C   UNL     1      -3.787  10.481  15.809  0.00  0.00    +0.000 A 
ATOM     22  C   UNL     1      -4.353  11.315  16.769  0.00  0.00    +0.000 A 
ATOM     23  C   UNL     1      -3.699  11.526  17.986  0.00  0.00    +0.000 A 
ENDBRANCH  17  18
ENDBRANCH   5  17
BRANCH   7  24
ATOM     24  O   UNL     1       0.971  10.740  18.377  0.00  0.00    +0.000 OA
BRANCH  24  25
ATOM     25  C   UNL     1       2.118  10.097  17.825  0.00  0.00    +0.000 C 
BRANCH  25  26
ATOM     26  C   UNL     1       2.241   8.727  18.463  0.00  0.00    +0.000 A 
ATOM     27  C   UNL     1       1.680   8.475  19.726  0.00  0.00    +0.000 A 
ATOM     28  C   UNL     1       1.834   7.225  20.332  0.00  0.00    +0.000 A 
ATOM     29  C   UNL     1       2.555   6.230  19.683  0.00  0.00    +0.000 A 
ATOM     30  F   UNL     1       2.717   5.038  20.273  0.00  0.00    +0.000 F 
ATOM     31  C   UNL     1       3.114   6.460  18.433  0.00  0.00    +0.000 A 
ATOM     32  C   UNL     1       2.955   7.705  17.824  0.00  0.00    +0.000 A 
ENDBRANCH  25  26
ENDBRANCH  24  25
ENDBRANCH   7  24
TORSDOF 6
ENDMDL
MODEL 3
REMARK VINA RESULT:      -6.9      0.313      1.262
REMARK  Name = 
REMARK  8 active torsions:
REMARK  status: ('A' for Active; 'I' for Inactive)
REMARK    1  A    between atoms: C_1  and  C_2
REMARK    2  A    between atoms: C_3  and  C_4
REMARK    3  A    between atoms: N_5  and  C_6
REMARK    4  A    between atoms: C_6  and  C_7
REMARK    5  A    between atoms: C_14  and  O_15
REMARK    6  A    between atoms: O_15  and  C_16
REMARK    7  A    between atoms: C_16  and  C_17
REMARK    8  A    between atoms: C_25  and  C_26
REMARK                            x       y       z     vdW  Elec       q    Type
REMARK                         _______ _______ _______ _____ _____    ______ ____
ROOT
ATOM      1  C   UNL     1      -2.520   9.761  16.009  0.00  0.00    +0.000 C 
ATOM      2  C   UNL     1      -2.340  10.520  17.280  0.00  0.00    +0.000 A 
ATOM      3  C   UNL     1      -1.198  10.623  18.055  0.00  0.00    +0.000 A 
ATOM      4  C   UNL     1       0.128   9.966  17.856  0.00  0.00    +0.000 C 
ATOM      5  N   UNL     1      -1.480  11.478  19.111  0.00  0.00    +0.000 N 
ATOM      6  C   UNL     1      -2.819  11.850  19.080  0.00  0.00    +0.000 A 
ATOM      7  C   UNL     1      -3.609  12.628  19.943  0.00  0.00    +0.000 A 
ATOM      8  N   UNL     1      -4.924  12.816  19.660  0.00  0.00    +0.000 NA
ATOM      9  C   UNL     1      -5.435  12.238  18.537  0.00  0.00    +0.000 A 
ATOM     10  C   UNL     1      -4.716  11.464  17.646  0.00  0.00    +0.000 A 
ATOM     11  C   UNL     1      -3.364  11.260  17.938  0.00  0.00    +0.000 A 
ENDROOT
BRANCH   9  12
ATOM     12  C   UNL     1      -6.891  12.455  18.242  0.00  0.00    +0.000 C 
ATOM     13  N   UNL     1      -7.204  12.732  16.940  0.00  0.00    +0.000 N 
ATOM     14  O   UNL     1      -7.761  12.388  19.101  0.00  0.00    +0.000 OA
ATOM     15  H   UNL     1      -6.477  12.756  16.234  0.00  0.00    +0.000 HD
ATOM     16  H   UNL     1      -8.175  12.866  16.689  0.00  0.00    +0.000 HD
ENDBRANCH   9  12
BRANCH   5  17
ATOM     17  C   UNL     1      -0.499  11.928  20.107  0.00  0.00    +0.000 C 
BRANCH  17  18
ATOM     18  C   UNL     1      -0.235  10.949  21.230  0.00  0.00    +0.000 A 
ATOM     19  C   UNL     1      -1.045  10.838  22.370  0.00  0.00    +0.000 A 
ATOM     20  C   UNL     1      -0.693   9.982  23.417  0.00  0.00    +0.000 A 
ATOM     21  C   UNL     1       0.453   9.198  23.326  0.00  0.00    +0.000 A 
ATOM     22  C   UNL     1       1.234   9.246  22.175  0.00  0.00    +0.000 A 
ATOM     23  C   UNL     1       0.893  10.114  21.133  0.00  0.00    +0.000 A 
ENDBRANCH  17  18
ENDBRANCH   5  17
BRANCH   7  24
ATOM     24  O   UNL     1      -3.053  13.258  21.036  0.00  0.00    +0.000 OA
BRANCH  24  25
ATOM     25  C   UNL     1      -3.806  13.077  22.233  0.00  0.00    +0.000 C 
BRANCH  25  26
ATOM     26  C   UNL     1      -3.223  13.987  23.296  0.00  0.00    +0.000 A 
ATOM     27  C   UNL     1      -4.060  14.817  24.063  0.00  0.00    +0.000 A 
ATOM     28  C   UNL     1      -3.515  15.688  25.011  0.00  0.00    +0.000 A 
ATOM     29  C   UNL     1      -2.138  15.738  25.187  0.00  0.00    +0.000 A 
ATOM     30  F   UNL     1      -1.617  16.587  26.084  0.00  0.00    +0.000 F 
ATOM     31  C   UNL     1      -1.296  14.926  24.441  0.00  0.00    +0.000 A 
ATOM     32  C   UNL     1      -1.838  14.050  23.499  0.00  0.00    +0.000 A 
ENDBRANCH  25  26
ENDBRANCH  24  25
ENDBRANCH   7  24
TORSDOF 6
ENDMDL
MODEL 4
REMARK VINA RESULT:      -6.8      8.148     11.341
REMARK  Name = 
REMARK  8 active torsions:
REMARK  status: ('A' for Active; 'I' for Inactive)
REMARK    1  A    between atoms: C_1  and  C_2
REMARK    2  A    between atoms: C_3  and  C_4
REMARK    3  A    between atoms: N_5  and  C_6
REMARK    4  A    between atoms: C_6  and  C_7
REMARK    5  A    between atoms: C_14  and  O_15
REMARK    6  A    between atoms: O_15  and  C_16
REMARK    7  A    between atoms: C_16  and  C_17
REMARK    8  A    between atoms: C_25  and  C_26
REMARK                            x       y       z     vdW  Elec       q    Type
REMARK                         _______ _______ _______ _____ _____    ______ ____
ROOT
ATOM      1  C   UNL     1       2.846   2.337  16.705  0.00  0.00    +0.000 C 
ATOM      2  C   UNL     1       3.444   3.640  17.116  0.00  0.00    +0.000 A 
ATOM      3  C   UNL     1       3.072   4.453  18.172  0.00  0.00    +0.000 A 
ATOM      4  C   UNL     1       1.951   4.270  19.140  0.00  0.00    +0.000 C 
ATOM      5  N   UNL     1       3.945   5.530  18.204  0.00  0.00    +0.000 N 
ATOM      6  C   UNL     1       4.817   5.472  17.122  0.00  0.00    +0.000 A 
ATOM      7  C   UNL     1       5.824   6.338  16.666  0.00  0.00    +0.000 A 
ATOM      8  N   UNL     1       6.522   6.023  15.543  0.00  0.00    +0.000 NA
ATOM      9  C   UNL     1       6.216   4.864  14.895  0.00  0.00    +0.000 A 
ATOM     10  C   UNL     1       5.241   3.968  15.289  0.00  0.00    +0.000 A 
ATOM     11  C   UNL     1       4.514   4.293  16.438  0.00  0.00    +0.000 A 
ENDROOT
BRANCH   9  12
ATOM     12  C   UNL     1       6.995   4.533  13.655  0.00  0.00    +0.000 C 
ATOM     13  N   UNL     1       8.070   5.336  13.390  0.00  0.00    +0.000 N 
ATOM     14  O   UNL     1       6.704   3.602  12.915  0.00  0.00    +0.000 OA
ATOM     15  H   UNL     1       8.317   6.085  14.026  0.00  0.00    +0.000 HD
ATOM     16  H   UNL     1       8.637   5.139  12.576  0.00  0.00    +0.000 HD
ENDBRANCH   9  12
BRANCH   5  17
ATOM     17  C   UNL     1       3.951   6.571  19.239  0.00  0.00    +0.000 C 
BRANCH  17  18
ATOM     18  C   UNL     1       2.839   7.591  19.125  0.00  0.00    +0.000 A 
ATOM     19  C   UNL     1       2.583   8.333  17.962  0.00  0.00    +0.000 A 
ATOM     20  C   UNL     1       1.603   9.329  17.950  0.00  0.00    +0.000 A 
ATOM     21  C   UNL     1       0.840   9.575  19.087  0.00  0.00    +0.000 A 
ATOM     22  C   UNL     1       1.034   8.803  20.230  0.00  0.00    +0.000 A 
ATOM     23  C   UNL     1       2.025   7.818  20.249  0.00  0.00    +0.000 A 
ENDBRANCH  17  18
ENDBRANCH   5  17
BRANCH   7  24
ATOM     24  O   UNL     1       6.160   7.470  17.378  0.00  0.00    +0.000 OA
BRANCH  24  25
ATOM     25  C   UNL     1       7.460   7.404  17.959  0.00  0.00    +0.000 C 
BRANCH  25  26
ATOM     26  C   UNL     1       7.974   8.821  18.123  0.00  0.00    +0.000 A 
ATOM     27  C   UNL     1       7.467   9.861  17.324  0.00  0.00    +0.000 A 
ATOM     28  C   UNL     1       7.975  11.157  17.446  0.00  0.00    +0.000 A 
ATOM     29  C   UNL     1       8.994  11.414  18.355  0.00  0.00    +0.000 A 
ATOM     30  F   UNL     1       9.492  12.654  18.457  0.00  0.00    +0.000 F 
ATOM     31  C   UNL     1       9.505  10.401  19.154  0.00  0.00    +0.000 A 
ATOM     32  C   UNL     1       8.994   9.107  19.039  0.00  0.00    +0.000 A 
ENDBRANCH  25  26
ENDBRANCH  24  25
ENDBRANCH   7  24
TORSDOF 6
ENDMDL
MODEL 5
REMARK VINA RESULT:      -6.7      2.637      4.226
REMARK  Name = 
REMARK  8 active torsions:
REMARK  status: ('A' for Active; 'I' for Inactive)
REMARK    1  A    between atoms: C_1  and  C_2
REMARK    2  A    between atoms: C_3  and  C_4
REMARK    3  A    between atoms: N_5  and  C_6
REMARK    4  A    between atoms: C_6  and  C_7
REMARK    5  A    between atoms: C_14  and  O_15
REMARK    6  A    between atoms: O_15  and  C_16
REMARK    7  A    between atoms: C_16  and  C_17
REMARK    8  A    between atoms: C_25  and  C_26
REMARK                            x       y       z     vdW  Elec       q    Type
REMARK                         _______ _______ _______ _____ _____    ______ ____
ROOT
ATOM      1  C   UNL     1       1.322   9.281  18.721  0.00  0.00    +0.000 C 
ATOM      2  C   UNL     1       0.224  10.032  19.393  0.00  0.00    +0.000 A 
ATOM      3  C   UNL     1       0.126  10.385  20.727  0.00  0.00    +0.000 A 
ATOM      4  C   UNL     1       1.059  10.066  21.848  0.00  0.00    +0.000 C 
ATOM      5  N   UNL     1      -1.038  11.125  20.885  0.00  0.00    +0.000 N 
ATOM      6  C   UNL     1      -1.741  11.170  19.686  0.00  0.00    +0.000 A 
ATOM      7  C   UNL     1      -2.985  11.719  19.335  0.00  0.00    +0.000 A 
ATOM      8  N   UNL     1      -3.436  11.597  18.059  0.00  0.00    +0.000 NA
ATOM      9  C   UNL     1      -2.655  10.940  17.157  0.00  0.00    +0.000 A 
ATOM     10  C   UNL     1      -1.424  10.378  17.433  0.00  0.00    +0.000 A 
ATOM     11  C   UNL     1      -0.960  10.493  18.747  0.00  0.00    +0.000 A 
ENDROOT
BRANCH   9  12
ATOM     12  C   UNL     1      -3.171  10.811  15.752  0.00  0.00    +0.000 C 
ATOM     13  N   UNL     1      -4.505  11.057  15.579  0.00  0.00    +0.000 N 
ATOM     14  O   UNL     1      -2.455  10.509  14.806  0.00  0.00    +0.000 OA
ATOM     15  H   UNL     1      -5.080  11.334  16.366  0.00  0.00    +0.000 HD
ATOM     16  H   UNL     1      -4.893  11.002  14.646  0.00  0.00    +0.000 HD
ENDBRANCH   9  12
BRANCH   5  17
ATOM     17  C   UNL     1      -1.454  11.772  22.135  0.00  0.00    +0.000 C 
BRANCH  17  18
ATOM     18  C   UNL     1      -0.934  13.180  22.328  0.00  0.00    +0.000 A 
ATOM     19  C   UNL     1       0.033  13.771  21.501  0.00  0.00    +0.000 A 
ATOM     20  C   UNL     1       0.544  15.039  21.789  0.00  0.00    +0.000 A 
ATOM     21  C   UNL     1       0.071  15.751  22.887  0.00  0.00    +0.000 A 
ATOM     22  C   UNL     1      -0.935  15.209  23.682  0.00  0.00    +0.000 A 
ATOM     23  C   UNL     1      -1.435  13.933  23.405  0.00  0.00    +0.000 A 
ENDBRANCH  17  18
ENDBRANCH   5  17
BRANCH   7  24
ATOM     24  O   UNL     1      -3.725  12.438  20.250  0.00  0.00    +0.000 OA
BRANCH  24  25
ATOM     25  C   UNL     1      -5.131  12.341  20.037  0.00  0.00    +0.000 C 
BRANCH  25  26
ATOM     26  C   UNL     1      -5.828  12.709  21.332  0.00  0.00    +0.000 A 
ATOM     27  C   UNL     1      -5.083  12.977  22.494  0.00  0.00    +0.000 A 
ATOM     28  C   UNL     1      -5.730  13.272  23.697  0.00  0.00    +0.000 A 
ATOM     29  C   UNL     1      -7.119  13.290  23.744  0.00  0.00    +0.000 A 
ATOM     30  F   UNL     1      -7.738  13.555  24.903  0.00  0.00    +0.000 F 
ATOM     31  C   UNL     1      -7.872  13.031  22.608  0.00  0.00    +0.000 A 
ATOM     32  C   UNL     1      -7.227  12.744  21.403  0.00  0.00    +0.000 A 
ENDBRANCH  25  26
ENDBRANCH  24  25
ENDBRANCH   7  24
TORSDOF 6
ENDMDL
MODEL 6
REMARK VINA RESULT:      -6.7      3.133      5.456
REMARK  Name = 
REMARK  8 active torsions:
REMARK  status: ('A' for Active; 'I' for Inactive)
REMARK    1  A    between atoms: C_1  and  C_2
REMARK    2  A    between atoms: C_3  and  C_4
REMARK    3  A    between atoms: N_5  and  C_6
REMARK    4  A    between atoms: C_6  and  C_7
REMARK    5  A    between atoms: C_14  and  O_15
REMARK    6  A    between atoms: O_15  and  C_16
REMARK    7  A    between atoms: C_16  and  C_17
REMARK    8  A    between atoms: C_25  and  C_26
REMARK                            x       y       z     vdW  Elec       q    Type
REMARK                         _______ _______ _______ _____ _____    ______ ____
ROOT
ATOM      1  C   UNL     1       1.661   9.813  18.099  0.00  0.00    +0.000 C 
ATOM      2  C   UNL     1       0.840  10.999  18.477  0.00  0.00    +0.000 A 
ATOM      3  C   UNL     1      -0.526  11.055  18.694  0.00  0.00    +0.000 A 
ATOM      4  C   UNL     1      -1.538   9.967  18.556  0.00  0.00    +0.000 C 
ATOM      5  N   UNL     1      -0.839  12.350  19.082  0.00  0.00    +0.000 N 
ATOM      6  C   UNL     1       0.294  13.154  19.024  0.00  0.00    +0.000 A 
ATOM      7  C   UNL     1       0.497  14.526  19.243  0.00  0.00    +0.000 A 
ATOM      8  N   UNL     1       1.741  15.052  19.097  0.00  0.00    +0.000 NA
ATOM      9  C   UNL     1       2.758  14.218  18.740  0.00  0.00    +0.000 A 
ATOM     10  C   UNL     1       2.629  12.862  18.511  0.00  0.00    +0.000 A 
ATOM     11  C   UNL     1       1.348  12.318  18.651  0.00  0.00    +0.000 A 
ENDROOT
BRANCH   9  12
ATOM     12  C   UNL     1       4.126  14.816  18.581  0.00  0.00    +0.000 C 
ATOM     13  N   UNL     1       4.868  14.929  19.724  0.00  0.00    +0.000 N 
ATOM     14  O   UNL     1       4.569  15.184  17.500  0.00  0.00    +0.000 OA
ATOM     15  H   UNL     1       4.500  14.594  20.606  0.00  0.00    +0.000 HD
ATOM     16  H   UNL     1       5.804  15.308  19.662  0.00  0.00    +0.000 HD
ENDBRANCH   9  12
BRANCH   5  17
ATOM     17  C   UNL     1      -2.173  12.797  19.502  0.00  0.00    +0.000 C 
BRANCH  17  18
ATOM     18  C   UNL     1      -2.477  12.603  20.971  0.00  0.00    +0.000 A 
ATOM     19  C   UNL     1      -1.565  12.060  21.888  0.00  0.00    +0.000 A 
ATOM     20  C   UNL     1      -1.939  11.816  23.212  0.00  0.00    +0.000 A 
ATOM     21  C   UNL     1      -3.219  12.144  23.649  0.00  0.00    +0.000 A 
ATOM     22  C   UNL     1      -4.117  12.744  22.771  0.00  0.00    +0.000 A 
ATOM     23  C   UNL     1      -3.750  12.973  21.442  0.00  0.00    +0.000 A 
ENDBRANCH  17  18
ENDBRANCH   5  17
BRANCH   7  24
ATOM     24  O   UNL     1      -0.535  15.335  19.670  0.00  0.00    +0.000 OA
BRANCH  24  25
ATOM     25  C   UNL     1      -0.139  16.273  20.668  0.00  0.00    +0.000 C 
BRANCH  25  26
ATOM     26  C   UNL     1      -0.983  16.028  21.904  0.00  0.00    +0.000 A 
ATOM     27  C   UNL     1      -2.322  16.451  21.949  0.00  0.00    +0.000 A 
ATOM     28  C   UNL     1      -3.084  16.265  23.107  0.00  0.00    +0.000 A 
ATOM     29  C   UNL     1      -2.508  15.666  24.220  0.00  0.00    +0.000 A 
ATOM     30  F   UNL     1      -3.234  15.504  25.335  0.00  0.00    +0.000 F 
ATOM     31  C   UNL     1      -1.187  15.239  24.193  0.00  0.00    +0.000 A 
ATOM     32  C   UNL     1      -0.427  15.418  23.036  0.00  0.00    +0.000 A 
ENDBRANCH  25  26
ENDBRANCH  24  25
ENDBRANCH   7  24
TORSDOF 6
ENDMDL
MODEL 7
REMARK VINA RESULT:      -6.7      2.512      4.611
REMARK  Name = 
REMARK  8 active torsions:
REMARK  status: ('A' for Active; 'I' for Inactive)
REMARK    1  A    between atoms: C_1  and  C_2
REMARK    2  A    between atoms: C_3  and  C_4
REMARK    3  A    between atoms: N_5  and  C_6
REMARK    4  A    between atoms: C_6  and  C_7
REMARK    5  A    between atoms: C_14  and  O_15
REMARK    6  A    between atoms: O_15  and  C_16
REMARK    7  A    between atoms: C_16  and  C_17
REMARK    8  A    between atoms: C_25  and  C_26
REMARK                            x       y       z     vdW  Elec       q    Type
REMARK                         _______ _______ _______ _____ _____    ______ ____
ROOT
ATOM      1  C   UNL     1      -5.808  13.514  23.399  0.00  0.00    +0.000 C 
ATOM      2  C   UNL     1      -4.580  13.240  22.599  0.00  0.00    +0.000 A 
ATOM      3  C   UNL     1      -3.262  13.452  22.964  0.00  0.00    +0.000 A 
ATOM      4  C   UNL     1      -2.726  14.054  24.220  0.00  0.00    +0.000 C 
ATOM      5  N   UNL     1      -2.459  12.997  21.928  0.00  0.00    +0.000 N 
ATOM      6  C   UNL     1      -3.246  12.584  20.858  0.00  0.00    +0.000 A 
ATOM      7  C   UNL     1      -2.932  12.115  19.572  0.00  0.00    +0.000 A 
ATOM      8  N   UNL     1      -3.933  11.790  18.714  0.00  0.00    +0.000 NA
ATOM      9  C   UNL     1      -5.220  11.931  19.137  0.00  0.00    +0.000 A 
ATOM     10  C   UNL     1      -5.600  12.384  20.386  0.00  0.00    +0.000 A 
ATOM     11  C   UNL     1      -4.572  12.729  21.270  0.00  0.00    +0.000 A 
ENDROOT
BRANCH   9  12
ATOM     12  C   UNL     1      -6.314  11.570  18.174  0.00  0.00    +0.000 C 
ATOM     13  N   UNL     1      -7.158  10.571  18.573  0.00  0.00    +0.000 N 
ATOM     14  O   UNL     1      -6.459  12.127  17.093  0.00  0.00    +0.000 OA
ATOM     15  H   UNL     1      -7.044  10.139  19.482  0.00  0.00    +0.000 HD
ATOM     16  H   UNL     1      -7.923  10.307  17.965  0.00  0.00    +0.000 HD
ENDBRANCH   9  12
BRANCH   5  17
ATOM     17  C   UNL     1      -0.992  12.951  21.965  0.00  0.00    +0.000 C 
BRANCH  17  18
ATOM     18  C   UNL     1      -0.401  11.566  22.107  0.00  0.00    +0.000 A 
ATOM     19  C   UNL     1       0.636  11.078  21.299  0.00  0.00    +0.000 A 
ATOM     20  C   UNL     1       1.073   9.755  21.415  0.00  0.00    +0.000 A 
ATOM     21  C   UNL     1       0.505   8.911  22.364  0.00  0.00    +0.000 A 
ATOM     22  C   UNL     1      -0.480   9.396  23.220  0.00  0.00    +0.000 A 
ATOM     23  C   UNL     1      -0.929  10.714  23.094  0.00  0.00    +0.000 A 
ENDBRANCH  17  18
ENDBRANCH   5  17
BRANCH   7  24
ATOM     24  O   UNL     1      -1.621  11.917  19.193  0.00  0.00    +0.000 OA
BRANCH  24  25
ATOM     25  C   UNL     1      -1.244  12.684  18.052  0.00  0.00    +0.000 C 
BRANCH  25  26
ATOM     26  C   UNL     1      -0.037  13.522  18.427  0.00  0.00    +0.000 A 
ATOM     27  C   UNL     1       1.257  12.977  18.367  0.00  0.00    +0.000 A 
ATOM     28  C   UNL     1       2.363  13.737  18.757  0.00  0.00    +0.000 A 
ATOM     29  C   UNL     1       2.178  15.035  19.216  0.00  0.00    +0.000 A 
ATOM     30  F   UNL     1       3.238  15.756  19.607  0.00  0.00    +0.000 F 
ATOM     31  C   UNL     1       0.908  15.592  19.281  0.00  0.00    +0.000 A 
ATOM     32  C   UNL     1      -0.197  14.837  18.885  0.00  0.00    +0.000 A 
ENDBRANCH  25  26
ENDBRANCH  24  25
ENDBRANCH   7  24
TORSDOF 6
ENDMDL
MODEL 8
REMARK VINA RESULT:      -6.6      5.495      8.718
REMARK  Name = 
REMARK  8 active torsions:
REMARK  status: ('A' for Active; 'I' for Inactive)
REMARK    1  A    between atoms: C_1  and  C_2
REMARK    2  A    between atoms: C_3  and  C_4
REMARK    3  A    between atoms: N_5  and  C_6
REMARK    4  A    between atoms: C_6  and  C_7
REMARK    5  A    between atoms: C_14  and  O_15
REMARK    6  A    between atoms: O_15  and  C_16
REMARK    7  A    between atoms: C_16  and  C_17
REMARK    8  A    between atoms: C_25  and  C_26
REMARK                            x       y       z     vdW  Elec       q    Type
REMARK                         _______ _______ _______ _____ _____    ______ ____
ROOT
ATOM      1  C   UNL     1       4.506   2.848  20.421  0.00  0.00    +0.000 C 
ATOM      2  C   UNL     1       3.604   3.962  20.008  0.00  0.00    +0.000 A 
ATOM      3  C   UNL     1       2.313   4.216  20.436  0.00  0.00    +0.000 A 
ATOM      4  C   UNL     1       1.469   3.422  21.377  0.00  0.00    +0.000 C 
ATOM      5  N   UNL     1       1.890   5.389  19.828  0.00  0.00    +0.000 N 
ATOM      6  C   UNL     1       2.856   5.842  18.936  0.00  0.00    +0.000 A 
ATOM      7  C   UNL     1       2.889   6.921  18.039  0.00  0.00    +0.000 A 
ATOM      8  N   UNL     1       3.989   7.116  17.265  0.00  0.00    +0.000 NA
ATOM      9  C   UNL     1       5.032   6.248  17.391  0.00  0.00    +0.000 A 
ATOM     10  C   UNL     1       5.066   5.169  18.253  0.00  0.00    +0.000 A 
ATOM     11  C   UNL     1       3.932   4.959  19.044  0.00  0.00    +0.000 A 
ENDROOT
BRANCH   9  12
ATOM     12  C   UNL     1       6.237   6.477  16.526  0.00  0.00    +0.000 C 
ATOM     13  N   UNL     1       6.233   5.846  15.313  0.00  0.00    +0.000 N 
ATOM     14  O   UNL     1       7.176   7.185  16.868  0.00  0.00    +0.000 OA
ATOM     15  H   UNL     1       5.437   5.287  15.031  0.00  0.00    +0.000 HD
ATOM     16  H   UNL     1       7.016   5.987  14.687  0.00  0.00    +0.000 HD
ENDBRANCH   9  12
BRANCH   5  17
ATOM     17  C   UNL     1       0.610   6.056  20.098  0.00  0.00    +0.000 C 
BRANCH  17  18
ATOM     18  C   UNL     1       0.708   7.300  20.954  0.00  0.00    +0.000 A 
ATOM     19  C   UNL     1       1.921   7.833  21.413  0.00  0.00    +0.000 A 
ATOM     20  C   UNL     1       1.940   8.929  22.280  0.00  0.00    +0.000 A 
ATOM     21  C   UNL     1       0.748   9.531  22.673  0.00  0.00    +0.000 A 
ATOM     22  C   UNL     1      -0.463   9.057  22.176  0.00  0.00    +0.000 A 
ATOM     23  C   UNL     1      -0.484   7.951  21.322  0.00  0.00    +0.000 A 
ENDBRANCH  17  18
ENDBRANCH   5  17
BRANCH   7  24
ATOM     24  O   UNL     1       1.849   7.824  17.980  0.00  0.00    +0.000 OA
BRANCH  24  25
ATOM     25  C   UNL     1       2.281   9.183  18.012  0.00  0.00    +0.000 C 
BRANCH  25  26
ATOM     26  C   UNL     1       1.111  10.037  18.458  0.00  0.00    +0.000 A 
ATOM     27  C   UNL     1       1.312  11.133  19.314  0.00  0.00    +0.000 A 
ATOM     28  C   UNL     1       0.226  11.892  19.760  0.00  0.00    +0.000 A 
ATOM     29  C   UNL     1      -1.060  11.551  19.360  0.00  0.00    +0.000 A 
ATOM     30  F   UNL     1      -2.103  12.268  19.803  0.00  0.00    +0.000 F 
ATOM     31  C   UNL     1      -1.279  10.474  18.513  0.00  0.00    +0.000 A 
ATOM     32  C   UNL     1      -0.195   9.720  18.061  0.00  0.00    +0.000 A 
ENDBRANCH  25  26
ENDBRANCH  24  25
ENDBRANCH   7  24
TORSDOF 6
ENDMDL
MODEL 9
REMARK VINA RESULT:      -6.6      3.355      7.884
REMARK  Name = 
REMARK  8 active torsions:
REMARK  status: ('A' for Active; 'I' for Inactive)
REMARK    1  A    between atoms: C_1  and  C_2
REMARK    2  A    between atoms: C_3  and  C_4
REMARK    3  A    between atoms: N_5  and  C_6
REMARK    4  A    between atoms: C_6  and  C_7
REMARK    5  A    between atoms: C_14  and  O_15
REMARK    6  A    between atoms: O_15  and  C_16
REMARK    7  A    between atoms: C_16  and  C_17
REMARK    8  A    between atoms: C_25  and  C_26
REMARK                            x       y       z     vdW  Elec       q    Type
REMARK                         _______ _______ _______ _____ _____    ______ ____
ROOT
ATOM      1  C   UNL     1      -3.767  13.098  25.351  0.00  0.00    +0.000 C 
ATOM      2  C   UNL     1      -3.720  13.129  23.862  0.00  0.00    +0.000 A 
ATOM      3  C   UNL     1      -4.575  13.789  22.996  0.00  0.00    +0.000 A 
ATOM      4  C   UNL     1      -5.791  14.593  23.317  0.00  0.00    +0.000 C 
ATOM      5  N   UNL     1      -4.111  13.581  21.705  0.00  0.00    +0.000 N 
ATOM      6  C   UNL     1      -3.023  12.716  21.721  0.00  0.00    +0.000 A 
ATOM      7  C   UNL     1      -2.249  12.143  20.698  0.00  0.00    +0.000 A 
ATOM      8  N   UNL     1      -1.232  11.302  21.017  0.00  0.00    +0.000 NA
ATOM      9  C   UNL     1      -0.995  11.043  22.334  0.00  0.00    +0.000 A 
ATOM     10  C   UNL     1      -1.715  11.572  23.388  0.00  0.00    +0.000 A 
ATOM     11  C   UNL     1      -2.769  12.431  23.064  0.00  0.00    +0.000 A 
ENDROOT
BRANCH   9  12
ATOM     12  C   UNL     1       0.131  10.109  22.669  0.00  0.00    +0.000 C 
ATOM     13  N   UNL     1      -0.081   9.269  23.728  0.00  0.00    +0.000 N 
ATOM     14  O   UNL     1       1.183  10.083  22.042  0.00  0.00    +0.000 OA
ATOM     15  H   UNL     1      -0.966   9.282  24.220  0.00  0.00    +0.000 HD
ATOM     16  H   UNL     1       0.643   8.608  23.978  0.00  0.00    +0.000 HD
ENDBRANCH   9  12
BRANCH   5  17
ATOM     17  C   UNL     1      -4.683  14.198  20.502  0.00  0.00    +0.000 C 
BRANCH  17  18
ATOM     18  C   UNL     1      -5.658  13.327  19.740  0.00  0.00    +0.000 A 
ATOM     19  C   UNL     1      -5.948  11.999  20.088  0.00  0.00    +0.000 A 
ATOM     20  C   UNL     1      -6.784  11.215  19.288  0.00  0.00    +0.000 A 
ATOM     21  C   UNL     1      -7.371  11.756  18.148  0.00  0.00    +0.000 A 
ATOM     22  C   UNL     1      -7.147  13.091  17.823  0.00  0.00    +0.000 A 
ATOM     23  C   UNL     1      -6.298  13.872  18.613  0.00  0.00    +0.000 A 
ENDBRANCH  17  18
ENDBRANCH   5  17
BRANCH   7  24
ATOM     24  O   UNL     1      -2.466  12.475  19.377  0.00  0.00    +0.000 OA
BRANCH  24  25
ATOM     25  C   UNL     1      -1.557  11.839  18.481  0.00  0.00    +0.000 C 
BRANCH  25  26
ATOM     26  C   UNL     1      -2.357  11.274  17.324  0.00  0.00    +0.000 A 
ATOM     27  C   UNL     1      -3.672  11.709  17.085  0.00  0.00    +0.000 A 
ATOM     28  C   UNL     1      -4.423  11.153  16.045  0.00  0.00    +0.000 A 
ATOM     29  C   UNL     1      -3.867  10.158  15.251  0.00  0.00    +0.000 A 
ATOM     30  F   UNL     1      -4.595   9.613  14.267  0.00  0.00    +0.000 F 
ATOM     31  C   UNL     1      -2.569   9.717  15.470  0.00  0.00    +0.000 A 
ATOM     32  C   UNL     1      -1.815  10.276  16.503  0.00  0.00    +0.000 A 
ENDBRANCH  25  26
ENDBRANCH  24  25
ENDBRANCH   7  24
TORSDOF 6
ENDMDL
