MODEL 1
REMARK VINA RESULT:      -6.4      0.000      0.000
REMARK  Name = 
REMARK  10 active torsions:
REMARK  status: ('A' for Active; 'I' for Inactive)
REMARK    1  A    between atoms: C_1  and  C_2
REMARK    2  A    between atoms: C_2  and  O_3
REMARK    3  A    between atoms: O_3  and  C_4
REMARK    4  A    between atoms: C_4  and  C_6
REMARK    5  A    between atoms: C_6  and  N_7
REMARK    6  A    between atoms: N_7  and  C_8
REMARK    7  A    between atoms: C_11  and  C_12
REMARK    8  A    between atoms: C_12  and  O_14
REMARK    9  A    between atoms: O_14  and  C_15
REMARK   10  A    between atoms: C_15  and  C_16
REMARK                            x       y       z     vdW  Elec       q    Type
REMARK                         _______ _______ _______ _____ _____    ______ ____
ROOT
ATOM      1  C   UNL     1       4.308   4.777  17.035  0.00  0.00    +0.000 A 
ATOM      2  C   UNL     1       3.346   5.539  17.709  0.00  0.00    +0.000 A 
ATOM      3  C   UNL     1       2.239   4.941  18.312  0.00  0.00    +0.000 A 
ATOM      4  C   UNL     1       2.057   3.560  18.224  0.00  0.00    +0.000 A 
ATOM      5  C   UNL     1       2.987   2.788  17.520  0.00  0.00    +0.000 A 
ATOM      6  C   UNL     1       4.099   3.399  16.925  0.00  0.00    +0.000 A 
ENDROOT
BRANCH   1   7
ATOM      7  N   UNL     1       5.355   5.442  16.410  0.00  0.00    +0.000 N 
ATOM      8  H   UNL     1       5.485   6.402  16.739  0.00  0.00    +0.000 HD
BRANCH   7   9
ATOM      9  C   UNL     1       6.647   4.773  16.218  0.00  0.00    +0.000 C 
BRANCH   9  10
ATOM     10  C   UNL     1       7.474   4.902  17.495  0.00  0.00    +0.000 C 
ATOM     11  O   UNL     1       8.376   4.135  17.816  0.00  0.00    +0.000 OA
BRANCH  10  12
ATOM     12  O   UNL     1       7.040   5.962  18.233  0.00  0.00    +0.000 OA
BRANCH  12  14
ATOM     13  C   UNL     1       7.795   8.149  17.649  0.00  0.00    +0.000 C 
ATOM     14  C   UNL     1       8.045   6.940  18.532  0.00  0.00    +0.000 C 
ENDBRANCH  12  14
ENDBRANCH  10  12
ENDBRANCH   9  10
ENDBRANCH   7   9
ENDBRANCH   1   7
BRANCH   4  15
ATOM     15  C   UNL     1       0.894   2.968  18.931  0.00  0.00    +0.000 C 
ATOM     16  O   UNL     1       0.181   2.100  18.444  0.00  0.00    +0.000 OA
BRANCH  15  17
ATOM     17  O   UNL     1       0.693   3.592  20.117  0.00  0.00    +0.000 OA
BRANCH  17  18
ATOM     18  C   UNL     1       1.171   2.879  21.266  0.00  0.00    +0.000 C 
ATOM     19  C   UNL     1       2.390   3.612  21.795  0.00  0.00    +0.000 C 
ENDBRANCH  17  18
ENDBRANCH  15  17
ENDBRANCH   4  15
TORSDOF 8
ENDMDL
MODEL 2
REMARK VINA RESULT:      -6.4      2.202      6.410
REMARK  Name = 
REMARK  10 active torsions:
REMARK  status: ('A' for Active; 'I' for Inactive)
REMARK    1  A    between atoms: C_1  and  C_2
REMARK    2  A    between atoms: C_2  and  O_3
REMARK    3  A    between atoms: O_3  and  C_4
REMARK    4  A    between atoms: C_4  and  C_6
REMARK    5  A    between atoms: C_6  and  N_7
REMARK    6  A    between atoms: N_7  and  C_8
REMARK    7  A    between atoms: C_11  and  C_12
REMARK    8  A    between atoms: C_12  and  O_14
REMARK    9  A    between atoms: O_14  and  C_15
REMARK   10  A    between atoms: C_15  and  C_16
REMARK                            x       y       z     vdW  Elec       q    Type
REMARK                         _______ _______ _______ _____ _____    ______ ____
ROOT
ATOM      1  C   UNL     1       3.638   5.353  19.242  0.00  0.00    +0.000 A 
ATOM      2  C   UNL     1       4.823   4.678  19.561  0.00  0.00    +0.000 A 
ATOM      3  C   UNL     1       5.777   4.388  18.587  0.00  0.00    +0.000 A 
ATOM      4  C   UNL     1       5.548   4.742  17.256  0.00  0.00    +0.000 A 
ATOM      5  C   UNL     1       4.352   5.381  16.912  0.00  0.00    +0.000 A 
ATOM      6  C   UNL     1       3.404   5.675  17.901  0.00  0.00    +0.000 A 
ENDROOT
BRANCH   1   7
ATOM      7  N   UNL     1       2.706   5.561  20.250  0.00  0.00    +0.000 N 
ATOM      8  H   UNL     1       2.446   6.543  20.370  0.00  0.00    +0.000 HD
BRANCH   7   9
ATOM      9  C   UNL     1       1.531   4.688  20.362  0.00  0.00    +0.000 C 
BRANCH   9  10
ATOM     10  C   UNL     1       1.931   3.398  21.075  0.00  0.00    +0.000 C 
ATOM     11  O   UNL     1       2.153   3.313  22.279  0.00  0.00    +0.000 OA
BRANCH  10  12
ATOM     12  O   UNL     1       2.040   2.378  20.180  0.00  0.00    +0.000 OA
BRANCH  12  14
ATOM     13  C   UNL     1       2.285   2.198  17.813  0.00  0.00    +0.000 C 
ATOM     14  C   UNL     1       1.347   2.585  18.942  0.00  0.00    +0.000 C 
ENDBRANCH  12  14
ENDBRANCH  10  12
ENDBRANCH   9  10
ENDBRANCH   7   9
ENDBRANCH   1   7
BRANCH   4  15
ATOM     15  C   UNL     1       6.620   4.461  16.269  0.00  0.00    +0.000 C 
ATOM     16  O   UNL     1       7.777   4.837  16.407  0.00  0.00    +0.000 OA
BRANCH  15  17
ATOM     17  O   UNL     1       6.112   3.832  15.182  0.00  0.00    +0.000 OA
BRANCH  17  18
ATOM     18  C   UNL     1       6.525   4.372  13.920  0.00  0.00    +0.000 C 
ATOM     19  C   UNL     1       5.905   3.524  12.825  0.00  0.00    +0.000 C 
ENDBRANCH  17  18
ENDBRANCH  15  17
ENDBRANCH   4  15
TORSDOF 8
ENDMDL
MODEL 3
REMARK VINA RESULT:      -6.4      2.081      3.185
REMARK  Name = 
REMARK  10 active torsions:
REMARK  status: ('A' for Active; 'I' for Inactive)
REMARK    1  A    between atoms: C_1  and  C_2
REMARK    2  A    between atoms: C_2  and  O_3
REMARK    3  A    between atoms: O_3  and  C_4
REMARK    4  A    between atoms: C_4  and  C_6
REMARK    5  A    between atoms: C_6  and  N_7
REMARK    6  A    between atoms: N_7  and  C_8
REMARK    7  A    between atoms: C_11  and  C_12
REMARK    8  A    between atoms: C_12  and  O_14
REMARK    9  A    between atoms: O_14  and  C_15
REMARK   10  A    between atoms: C_15  and  C_16
REMARK                            x       y       z     vdW  Elec       q    Type
REMARK                         _______ _______ _______ _____ _____    ______ ____
ROOT
ATOM      1  C   UNL     1       4.177   5.106  17.005  0.00  0.00    +0.000 A 
ATOM      2  C   UNL     1       3.964   3.730  16.863  0.00  0.00    +0.000 A 
ATOM      3  C   UNL     1       2.953   3.076  17.567  0.00  0.00    +0.000 A 
ATOM      4  C   UNL     1       2.149   3.789  18.459  0.00  0.00    +0.000 A 
ATOM      5  C   UNL     1       2.375   5.157  18.644  0.00  0.00    +0.000 A 
ATOM      6  C   UNL     1       3.388   5.804  17.924  0.00  0.00    +0.000 A 
ENDROOT
BRANCH   1   7
ATOM      7  N   UNL     1       5.236   5.683  16.316  0.00  0.00    +0.000 N 
ATOM      8  H   UNL     1       5.422   6.651  16.589  0.00  0.00    +0.000 HD
BRANCH   7   9
ATOM      9  C   UNL     1       6.489   4.940  16.128  0.00  0.00    +0.000 C 
BRANCH   9  10
ATOM     10  C   UNL     1       6.853   4.939  14.646  0.00  0.00    +0.000 C 
ATOM     11  O   UNL     1       7.876   5.433  14.184  0.00  0.00    +0.000 OA
BRANCH  10  12
ATOM     12  O   UNL     1       5.865   4.347  13.917  0.00  0.00    +0.000 OA
BRANCH  12  14
ATOM     13  C   UNL     1       5.093   3.260  11.938  0.00  0.00    +0.000 C 
ATOM     14  C   UNL     1       6.316   3.637  12.756  0.00  0.00    +0.000 C 
ENDBRANCH  12  14
ENDBRANCH  10  12
ENDBRANCH   9  10
ENDBRANCH   7   9
ENDBRANCH   1   7
BRANCH   4  15
ATOM     15  C   UNL     1       1.053   3.056  19.140  0.00  0.00    +0.000 C 
ATOM     16  O   UNL     1       0.376   2.197  18.591  0.00  0.00    +0.000 OA
BRANCH  15  17
ATOM     17  O   UNL     1       0.860   3.545  20.389  0.00  0.00    +0.000 OA
BRANCH  17  18
ATOM     18  C   UNL     1       1.255   2.667  21.451  0.00  0.00    +0.000 C 
ATOM     19  C   UNL     1       2.772   2.672  21.521  0.00  0.00    +0.000 C 
ENDBRANCH  17  18
ENDBRANCH  15  17
ENDBRANCH   4  15
TORSDOF 8
ENDMDL
MODEL 4
REMARK VINA RESULT:      -6.4      2.076      6.398
REMARK  Name = 
REMARK  10 active torsions:
REMARK  status: ('A' for Active; 'I' for Inactive)
REMARK    1  A    between atoms: C_1  and  C_2
REMARK    2  A    between atoms: C_2  and  O_3
REMARK    3  A    between atoms: O_3  and  C_4
REMARK    4  A    between atoms: C_4  and  C_6
REMARK    5  A    between atoms: C_6  and  N_7
REMARK    6  A    between atoms: N_7  and  C_8
REMARK    7  A    between atoms: C_11  and  C_12
REMARK    8  A    between atoms: C_12  and  O_14
REMARK    9  A    between atoms: O_14  and  C_15
REMARK   10  A    between atoms: C_15  and  C_16
REMARK                            x       y       z     vdW  Elec       q    Type
REMARK                         _______ _______ _______ _____ _____    ______ ____
ROOT
ATOM      1  C   UNL     1       3.688   5.453  19.428  0.00  0.00    +0.000 A 
ATOM      2  C   UNL     1       3.652   6.097  18.185  0.00  0.00    +0.000 A 
ATOM      3  C   UNL     1       4.690   5.954  17.264  0.00  0.00    +0.000 A 
ATOM      4  C   UNL     1       5.810   5.184  17.587  0.00  0.00    +0.000 A 
ATOM      5  C   UNL     1       5.880   4.567  18.840  0.00  0.00    +0.000 A 
ATOM      6  C   UNL     1       4.827   4.711  19.753  0.00  0.00    +0.000 A 
ENDROOT
BRANCH   1   7
ATOM      7  N   UNL     1       2.648   5.683  20.319  0.00  0.00    +0.000 N 
ATOM      8  H   UNL     1       2.418   6.673  20.432  0.00  0.00    +0.000 HD
BRANCH   7   9
ATOM      9  C   UNL     1       1.431   4.863  20.263  0.00  0.00    +0.000 C 
BRANCH   9  10
ATOM     10  C   UNL     1       1.689   3.535  20.968  0.00  0.00    +0.000 C 
ATOM     11  O   UNL     1       2.241   3.425  22.058  0.00  0.00    +0.000 OA
BRANCH  10  12
ATOM     12  O   UNL     1       1.253   2.499  20.198  0.00  0.00    +0.000 OA
BRANCH  12  14
ATOM     13  C   UNL     1       2.532   2.088  18.227  0.00  0.00    +0.000 C 
ATOM     14  C   UNL     1       1.282   2.743  18.786  0.00  0.00    +0.000 C 
ENDBRANCH  12  14
ENDBRANCH  10  12
ENDBRANCH   9  10
ENDBRANCH   7   9
ENDBRANCH   1   7
BRANCH   4  15
ATOM     15  C   UNL     1       6.859   5.019  16.550  0.00  0.00    +0.000 C 
ATOM     16  O   UNL     1       7.933   4.473  16.761  0.00  0.00    +0.000 OA
BRANCH  15  17
ATOM     17  O   UNL     1       6.493   5.638  15.402  0.00  0.00    +0.000 OA
BRANCH  17  18
ATOM     18  C   UNL     1       6.834   4.938  14.199  0.00  0.00    +0.000 C 
ATOM     19  C   UNL     1       5.744   3.917  13.928  0.00  0.00    +0.000 C 
ENDBRANCH  17  18
ENDBRANCH  15  17
ENDBRANCH   4  15
TORSDOF 8
ENDMDL
MODEL 5
REMARK VINA RESULT:      -6.4      2.191      6.371
REMARK  Name = 
REMARK  10 active torsions:
REMARK  status: ('A' for Active; 'I' for Inactive)
REMARK    1  A    between atoms: C_1  and  C_2
REMARK    2  A    between atoms: C_2  and  O_3
REMARK    3  A    between atoms: O_3  and  C_4
REMARK    4  A    between atoms: C_4  and  C_6
REMARK    5  A    between atoms: C_6  and  N_7
REMARK    6  A    between atoms: N_7  and  C_8
REMARK    7  A    between atoms: C_11  and  C_12
REMARK    8  A    between atoms: C_12  and  O_14
REMARK    9  A    between atoms: O_14  and  C_15
REMARK   10  A    between atoms: C_15  and  C_16
REMARK                            x       y       z     vdW  Elec       q    Type
REMARK                         _______ _______ _______ _____ _____    ______ ____
ROOT
ATOM      1  C   UNL     1       3.410   5.654  19.654  0.00  0.00    +0.000 A 
ATOM      2  C   UNL     1       4.678   5.060  19.674  0.00  0.00    +0.000 A 
ATOM      3  C   UNL     1       5.584   5.248  18.630  0.00  0.00    +0.000 A 
ATOM      4  C   UNL     1       5.223   6.015  17.521  0.00  0.00    +0.000 A 
ATOM      5  C   UNL     1       3.945   6.583  17.465  0.00  0.00    +0.000 A 
ATOM      6  C   UNL     1       3.047   6.394  18.524  0.00  0.00    +0.000 A 
ENDROOT
BRANCH   1   7
ATOM      7  N   UNL     1       2.537   5.380  20.698  0.00  0.00    +0.000 N 
ATOM      8  H   UNL     1       2.324   6.196  21.277  0.00  0.00    +0.000 HD
BRANCH   7   9
ATOM      9  C   UNL     1       1.335   4.571  20.465  0.00  0.00    +0.000 C 
BRANCH   9  10
ATOM     10  C   UNL     1       1.618   3.125  20.863  0.00  0.00    +0.000 C 
ATOM     11  O   UNL     1       1.952   2.770  21.989  0.00  0.00    +0.000 OA
BRANCH  10  12
ATOM     12  O   UNL     1       1.483   2.303  19.785  0.00  0.00    +0.000 OA
BRANCH  12  14
ATOM     13  C   UNL     1       2.520   2.552  17.651  0.00  0.00    +0.000 C 
ATOM     14  C   UNL     1       2.699   2.043  19.070  0.00  0.00    +0.000 C 
ENDBRANCH  12  14
ENDBRANCH  10  12
ENDBRANCH   9  10
ENDBRANCH   7   9
ENDBRANCH   1   7
BRANCH   4  15
ATOM     15  C   UNL     1       6.244   6.230  16.466  0.00  0.00    +0.000 C 
ATOM     16  O   UNL     1       7.255   6.900  16.634  0.00  0.00    +0.000 OA
BRANCH  15  17
ATOM     17  O   UNL     1       5.844   5.672  15.298  0.00  0.00    +0.000 OA
BRANCH  17  18
ATOM     18  C   UNL     1       6.161   4.281  15.150  0.00  0.00    +0.000 C 
ATOM     19  C   UNL     1       6.076   3.938  13.674  0.00  0.00    +0.000 C 
ENDBRANCH  17  18
ENDBRANCH  15  17
ENDBRANCH   4  15
TORSDOF 8
ENDMDL
MODEL 6
REMARK VINA RESULT:      -6.2      1.673      2.453
REMARK  Name = 
REMARK  10 active torsions:
REMARK  status: ('A' for Active; 'I' for Inactive)
REMARK    1  A    between atoms: C_1  and  C_2
REMARK    2  A    between atoms: C_2  and  O_3
REMARK    3  A    between atoms: O_3  and  C_4
REMARK    4  A    between atoms: C_4  and  C_6
REMARK    5  A    between atoms: C_6  and  N_7
REMARK    6  A    between atoms: N_7  and  C_8
REMARK    7  A    between atoms: C_11  and  C_12
REMARK    8  A    between atoms: C_12  and  O_14
REMARK    9  A    between atoms: O_14  and  C_15
REMARK   10  A    between atoms: C_15  and  C_16
REMARK                            x       y       z     vdW  Elec       q    Type
REMARK                         _______ _______ _______ _____ _____    ______ ____
ROOT
ATOM      1  C   UNL     1       5.418   5.005  19.152  0.00  0.00    +0.000 A 
ATOM      2  C   UNL     1       4.387   5.899  18.840  0.00  0.00    +0.000 A 
ATOM      3  C   UNL     1       3.108   5.447  18.512  0.00  0.00    +0.000 A 
ATOM      4  C   UNL     1       2.844   4.077  18.460  0.00  0.00    +0.000 A 
ATOM      5  C   UNL     1       3.873   3.168  18.729  0.00  0.00    +0.000 A 
ATOM      6  C   UNL     1       5.151   3.635  19.065  0.00  0.00    +0.000 A 
ENDROOT
BRANCH   1   7
ATOM      7  N   UNL     1       6.680   5.520  19.414  0.00  0.00    +0.000 N 
ATOM      8  H   UNL     1       6.957   5.444  20.396  0.00  0.00    +0.000 HD
BRANCH   7   9
ATOM      9  C   UNL     1       7.806   5.211  18.524  0.00  0.00    +0.000 C 
BRANCH   9  10
ATOM     10  C   UNL     1       7.504   5.749  17.128  0.00  0.00    +0.000 C 
ATOM     11  O   UNL     1       7.191   6.911  16.887  0.00  0.00    +0.000 OA
BRANCH  10  12
ATOM     12  O   UNL     1       7.597   4.751  16.206  0.00  0.00    +0.000 OA
BRANCH  12  14
ATOM     13  C   UNL     1       5.400   4.289  15.399  0.00  0.00    +0.000 C 
ATOM     14  C   UNL     1       6.746   4.905  15.063  0.00  0.00    +0.000 C 
ENDBRANCH  12  14
ENDBRANCH  10  12
ENDBRANCH   9  10
ENDBRANCH   7   9
ENDBRANCH   1   7
BRANCH   4  15
ATOM     15  C   UNL     1       1.454   3.651  18.162  0.00  0.00    +0.000 C 
ATOM     16  O   UNL     1       0.812   4.070  17.207  0.00  0.00    +0.000 OA
BRANCH  15  17
ATOM     17  O   UNL     1       0.990   2.832  19.136  0.00  0.00    +0.000 OA
BRANCH  17  18
ATOM     18  C   UNL     1       0.713   3.474  20.388  0.00  0.00    +0.000 C 
ATOM     19  C   UNL     1       1.425   2.695  21.479  0.00  0.00    +0.000 C 
ENDBRANCH  17  18
ENDBRANCH  15  17
ENDBRANCH   4  15
TORSDOF 8
ENDMDL
MODEL 7
REMARK VINA RESULT:      -6.2      2.094      3.032
REMARK  Name = 
REMARK  10 active torsions:
REMARK  status: ('A' for Active; 'I' for Inactive)
REMARK    1  A    between atoms: C_1  and  C_2
REMARK    2  A    between atoms: C_2  and  O_3
REMARK    3  A    between atoms: O_3  and  C_4
REMARK    4  A    between atoms: C_4  and  C_6
REMARK    5  A    between atoms: C_6  and  N_7
REMARK    6  A    between atoms: N_7  and  C_8
REMARK    7  A    between atoms: C_11  and  C_12
REMARK    8  A    between atoms: C_12  and  O_14
REMARK    9  A    between atoms: O_14  and  C_15
REMARK   10  A    between atoms: C_15  and  C_16
REMARK                            x       y       z     vdW  Elec       q    Type
REMARK                         _______ _______ _______ _____ _____    ______ ____
ROOT
ATOM      1  C   UNL     1       4.294   4.954  17.247  0.00  0.00    +0.000 A 
ATOM      2  C   UNL     1       3.206   5.643  17.797  0.00  0.00    +0.000 A 
ATOM      3  C   UNL     1       2.107   4.963  18.321  0.00  0.00    +0.000 A 
ATOM      4  C   UNL     1       2.060   3.568  18.274  0.00  0.00    +0.000 A 
ATOM      5  C   UNL     1       3.120   2.865  17.691  0.00  0.00    +0.000 A 
ATOM      6  C   UNL     1       4.223   3.559  17.176  0.00  0.00    +0.000 A 
ENDROOT
BRANCH   1   7
ATOM      7  N   UNL     1       5.330   5.693  16.692  0.00  0.00    +0.000 N 
ATOM      8  H   UNL     1       6.250   5.457  17.071  0.00  0.00    +0.000 HD
BRANCH   7   9
ATOM      9  C   UNL     1       5.397   5.901  15.240  0.00  0.00    +0.000 C 
BRANCH   9  10
ATOM     10  C   UNL     1       6.361   4.885  14.633  0.00  0.00    +0.000 C 
ATOM     11  O   UNL     1       7.562   4.837  14.881  0.00  0.00    +0.000 OA
BRANCH  10  12
ATOM     12  O   UNL     1       5.704   4.074  13.758  0.00  0.00    +0.000 OA
BRANCH  12  14
ATOM     13  C   UNL     1       5.740   2.563  11.912  0.00  0.00    +0.000 C 
ATOM     14  C   UNL     1       6.449   3.725  12.583  0.00  0.00    +0.000 C 
ENDBRANCH  12  14
ENDBRANCH  10  12
ENDBRANCH   9  10
ENDBRANCH   7   9
ENDBRANCH   1   7
BRANCH   4  15
ATOM     15  C   UNL     1       0.894   2.893  18.897  0.00  0.00    +0.000 C 
ATOM     16  O   UNL     1       0.207   2.065  18.314  0.00  0.00    +0.000 OA
BRANCH  15  17
ATOM     17  O   UNL     1       0.658   3.396  20.132  0.00  0.00    +0.000 OA
BRANCH  17  18
ATOM     18  C   UNL     1       1.297   2.693  21.206  0.00  0.00    +0.000 C 
ATOM     19  C   UNL     1       2.400   3.580  21.754  0.00  0.00    +0.000 C 
ENDBRANCH  17  18
ENDBRANCH  15  17
ENDBRANCH   4  15
TORSDOF 8
ENDMDL
MODEL 8
REMARK VINA RESULT:      -6.2      2.020      6.321
REMARK  Name = 
REMARK  10 active torsions:
REMARK  status: ('A' for Active; 'I' for Inactive)
REMARK    1  A    between atoms: C_1  and  C_2
REMARK    2  A    between atoms: C_2  and  O_3
REMARK    3  A    between atoms: O_3  and  C_4
REMARK    4  A    between atoms: C_4  and  C_6
REMARK    5  A    between atoms: C_6  and  N_7
REMARK    6  A    between atoms: N_7  and  C_8
REMARK    7  A    between atoms: C_11  and  C_12
REMARK    8  A    between atoms: C_12  and  O_14
REMARK    9  A    between atoms: O_14  and  C_15
REMARK   10  A    between atoms: C_15  and  C_16
REMARK                            x       y       z     vdW  Elec       q    Type
REMARK                         _______ _______ _______ _____ _____    ______ ____
ROOT
ATOM      1  C   UNL     1       3.421   5.795  18.958  0.00  0.00    +0.000 A 
ATOM      2  C   UNL     1       3.583   6.644  17.857  0.00  0.00    +0.000 A 
ATOM      3  C   UNL     1       4.809   6.754  17.199  0.00  0.00    +0.000 A 
ATOM      4  C   UNL     1       5.914   6.033  17.656  0.00  0.00    +0.000 A 
ATOM      5  C   UNL     1       5.780   5.210  18.780  0.00  0.00    +0.000 A 
ATOM      6  C   UNL     1       4.542   5.102  19.427  0.00  0.00    +0.000 A 
ENDROOT
BRANCH   1   7
ATOM      7  N   UNL     1       2.190   5.776  19.600  0.00  0.00    +0.000 N 
ATOM      8  H   UNL     1       1.549   6.506  19.277  0.00  0.00    +0.000 HD
BRANCH   7   9
ATOM      9  C   UNL     1       1.481   4.507  19.805  0.00  0.00    +0.000 C 
BRANCH   9  10
ATOM     10  C   UNL     1       1.394   3.761  18.476  0.00  0.00    +0.000 C 
ATOM     11  O   UNL     1       0.993   4.259  17.428  0.00  0.00    +0.000 OA
BRANCH  10  12
ATOM     12  O   UNL     1       1.788   2.467  18.633  0.00  0.00    +0.000 OA
BRANCH  12  14
ATOM     13  C   UNL     1       3.845   1.260  18.598  0.00  0.00    +0.000 C 
ATOM     14  C   UNL     1       2.852   2.051  17.767  0.00  0.00    +0.000 C 
ENDBRANCH  12  14
ENDBRANCH  10  12
ENDBRANCH   9  10
ENDBRANCH   7   9
ENDBRANCH   1   7
BRANCH   4  15
ATOM     15  C   UNL     1       7.178   6.142  16.887  0.00  0.00    +0.000 C 
ATOM     16  O   UNL     1       7.810   7.184  16.776  0.00  0.00    +0.000 OA
BRANCH  15  17
ATOM     17  O   UNL     1       7.457   4.971  16.264  0.00  0.00    +0.000 OA
BRANCH  17  18
ATOM     18  C   UNL     1       7.109   4.925  14.874  0.00  0.00    +0.000 C 
ATOM     19  C   UNL     1       5.942   3.968  14.717  0.00  0.00    +0.000 C 
ENDBRANCH  17  18
ENDBRANCH  15  17
ENDBRANCH   4  15
TORSDOF 8
ENDMDL
MODEL 9
REMARK VINA RESULT:      -6.1      2.466      6.508
REMARK  Name = 
REMARK  10 active torsions:
REMARK  status: ('A' for Active; 'I' for Inactive)
REMARK    1  A    between atoms: C_1  and  C_2
REMARK    2  A    between atoms: C_2  and  O_3
REMARK    3  A    between atoms: O_3  and  C_4
REMARK    4  A    between atoms: C_4  and  C_6
REMARK    5  A    between atoms: C_6  and  N_7
REMARK    6  A    between atoms: N_7  and  C_8
REMARK    7  A    between atoms: C_11  and  C_12
REMARK    8  A    between atoms: C_12  and  O_14
REMARK    9  A    between atoms: O_14  and  C_15
REMARK   10  A    between atoms: C_15  and  C_16
REMARK                            x       y       z     vdW  Elec       q    Type
REMARK                         _______ _______ _______ _____ _____    ______ ____
ROOT
ATOM      1  C   UNL     1       3.441   5.729  17.704  0.00  0.00    +0.000 A 
ATOM      2  C   UNL     1       3.683   4.411  17.299  0.00  0.00    +0.000 A 
ATOM      3  C   UNL     1       4.699   4.105  16.393  0.00  0.00    +0.000 A 
ATOM      4  C   UNL     1       5.477   5.127  15.845  0.00  0.00    +0.000 A 
ATOM      5  C   UNL     1       5.221   6.454  16.207  0.00  0.00    +0.000 A 
ATOM      6  C   UNL     1       4.204   6.747  17.125  0.00  0.00    +0.000 A 
ENDROOT
BRANCH   1   7
ATOM      7  N   UNL     1       2.378   5.968  18.565  0.00  0.00    +0.000 N 
ATOM      8  H   UNL     1       1.516   5.488  18.295  0.00  0.00    +0.000 HD
BRANCH   7   9
ATOM      9  C   UNL     1       2.577   5.914  20.019  0.00  0.00    +0.000 C 
BRANCH   9  10
ATOM     10  C   UNL     1       1.818   4.716  20.584  0.00  0.00    +0.000 C 
ATOM     11  O   UNL     1       0.664   4.424  20.286  0.00  0.00    +0.000 OA
BRANCH  10  12
ATOM     12  O   UNL     1       2.592   4.049  21.486  0.00  0.00    +0.000 OA
BRANCH  12  14
ATOM     13  C   UNL     1       3.869   2.416  20.305  0.00  0.00    +0.000 C 
ATOM     14  C   UNL     1       2.706   2.638  21.255  0.00  0.00    +0.000 C 
ENDBRANCH  12  14
ENDBRANCH  10  12
ENDBRANCH   9  10
ENDBRANCH   7   9
ENDBRANCH   1   7
BRANCH   4  15
ATOM     15  C   UNL     1       6.580   4.742  14.930  0.00  0.00    +0.000 C 
ATOM     16  O   UNL     1       7.607   5.395  14.803  0.00  0.00    +0.000 OA
BRANCH  15  17
ATOM     17  O   UNL     1       6.237   3.649  14.208  0.00  0.00    +0.000 OA
BRANCH  17  18
ATOM     18  C   UNL     1       6.486   3.749  12.799  0.00  0.00    +0.000 C 
ATOM     19  C   UNL     1       5.237   3.286  12.071  0.00  0.00    +0.000 C 
ENDBRANCH  17  18
ENDBRANCH  15  17
ENDBRANCH   4  15
TORSDOF 8
ENDMDL
