MODEL 1
REMARK VINA RESULT:      -9.0      0.000      0.000
REMARK  Name = 
REMARK  6 active torsions:
REMARK  status: ('A' for Active; 'I' for Inactive)
REMARK    1  A    between atoms: C_1  and  C_2
REMARK    2  A    between atoms: C_3  and  C_4
REMARK    3  A    between atoms: C_4  and  C_6
REMARK    4  A    between atoms: C_16  and  S_17
REMARK    5  A    between atoms: S_17  and  N_20
REMARK    6  A    between atoms: N_20  and  C_21
REMARK                            x       y       z     vdW  Elec       q    Type
REMARK                         _______ _______ _______ _____ _____    ______ ____
ROOT
ATOM      1  C   UNL     1       2.347   9.008  17.799  0.00  0.00    +0.000 C 
ATOM      2  C   UNL     1       2.005   8.249  19.029  0.00  0.00    +0.000 A 
ATOM      3  C   UNL     1       1.343   8.696  20.168  0.00  0.00    +0.000 A 
ATOM      4  O   UNL     1       1.259   7.671  21.078  0.00  0.00    +0.000 OA
ATOM      5  C   UNL     1       1.819   6.570  20.520  0.00  0.00    +0.000 A 
ATOM      6  C   UNL     1       1.923   5.320  21.130  0.00  0.00    +0.000 A 
ATOM      7  C   UNL     1       2.525   4.302  20.377  0.00  0.00    +0.000 A 
ATOM      8  C   UNL     1       2.984   4.557  19.080  0.00  0.00    +0.000 A 
ATOM      9  C   UNL     1       2.853   5.825  18.487  0.00  0.00    +0.000 A 
ATOM     10  C   UNL     1       2.273   6.860  19.243  0.00  0.00    +0.000 A 
ENDROOT
BRANCH   8  11
ATOM     11  S   UNL     1       3.715   3.244  18.120  0.00  0.00    +0.000 S 
ATOM     12  O   UNL     1       3.254   1.989  18.673  0.00  0.00    +0.000 OA
ATOM     13  O   UNL     1       3.534   3.552  16.717  0.00  0.00    +0.000 OA
BRANCH  11  14
ATOM     14  N   UNL     1       5.342   3.357  18.508  0.00  0.00    +0.000 N 
ATOM     15  H   UNL     1       5.810   2.485  18.745  0.00  0.00    +0.000 HD
BRANCH  14  16
ATOM     16  C   UNL     1       6.086   4.495  18.122  0.00  0.00    +0.000 A 
ATOM     17  C   UNL     1       6.705   5.248  19.120  0.00  0.00    +0.000 A 
ATOM     18  C   UNL     1       7.400   6.409  18.785  0.00  0.00    +0.000 A 
ATOM     19  C   UNL     1       7.488   6.789  17.451  0.00  0.00    +0.000 A 
ATOM     20  F   UNL     1       8.146   7.910  17.131  0.00  0.00    +0.000 F 
ATOM     21  C   UNL     1       6.902   6.026  16.447  0.00  0.00    +0.000 A 
ATOM     22  C   UNL     1       6.195   4.867  16.781  0.00  0.00    +0.000 A 
ENDBRANCH  14  16
ENDBRANCH  11  14
ENDBRANCH   8  11
BRANCH   3  23
ATOM     23  C   UNL     1       0.783   9.986  20.536  0.00  0.00    +0.000 C 
ATOM     24  O   UNL     1       1.037  10.566  21.587  0.00  0.00    +0.000 OA
BRANCH  23  25
ATOM     25  C   UNL     1      -0.143  10.654  19.568  0.00  0.00    +0.000 A 
ATOM     26  C   UNL     1       0.023  12.007  19.233  0.00  0.00    +0.000 A 
ATOM     27  C   UNL     1      -0.825  12.614  18.306  0.00  0.00    +0.000 A 
ATOM     28  C   UNL     1      -1.853  11.880  17.720  0.00  0.00    +0.000 A 
ATOM     29  C   UNL     1      -2.049  10.544  18.073  0.00  0.00    +0.000 A 
ATOM     30  C   UNL     1      -1.203   9.932  19.004  0.00  0.00    +0.000 A 
ENDBRANCH  23  25
ENDBRANCH   3  23
TORSDOF 5
ENDMDL
MODEL 2
REMARK VINA RESULT:      -8.9      0.591      1.398
REMARK  Name = 
REMARK  6 active torsions:
REMARK  status: ('A' for Active; 'I' for Inactive)
REMARK    1  A    between atoms: C_1  and  C_2
REMARK    2  A    between atoms: C_3  and  C_4
REMARK    3  A    between atoms: C_4  and  C_6
REMARK    4  A    between atoms: C_16  and  S_17
REMARK    5  A    between atoms: S_17  and  N_20
REMARK    6  A    between atoms: N_20  and  C_21
REMARK                            x       y       z     vdW  Elec       q    Type
REMARK                         _______ _______ _______ _____ _____    ______ ____
ROOT
ATOM      1  C   UNL     1       2.194   8.881  17.814  0.00  0.00    +0.000 C 
ATOM      2  C   UNL     1       1.925   8.097  19.047  0.00  0.00    +0.000 A 
ATOM      3  C   UNL     1       1.436   8.544  20.270  0.00  0.00    +0.000 A 
ATOM      4  O   UNL     1       1.362   7.489  21.145  0.00  0.00    +0.000 OA
ATOM      5  C   UNL     1       1.757   6.372  20.487  0.00  0.00    +0.000 A 
ATOM      6  C   UNL     1       1.816   5.090  21.034  0.00  0.00    +0.000 A 
ATOM      7  C   UNL     1       2.237   4.062  20.180  0.00  0.00    +0.000 A 
ATOM      8  C   UNL     1       2.570   4.337  18.849  0.00  0.00    +0.000 A 
ATOM      9  C   UNL     1       2.487   5.638  18.322  0.00  0.00    +0.000 A 
ATOM     10  C   UNL     1       2.090   6.682  19.178  0.00  0.00    +0.000 A 
ENDROOT
BRANCH   8  11
ATOM     11  S   UNL     1       3.068   3.014  17.763  0.00  0.00    +0.000 S 
ATOM     12  O   UNL     1       2.553   1.778  18.314  0.00  0.00    +0.000 OA
ATOM     13  O   UNL     1       2.770   3.405  16.402  0.00  0.00    +0.000 OA
BRANCH  11  14
ATOM     14  N   UNL     1       4.731   2.963  17.974  0.00  0.00    +0.000 N 
ATOM     15  H   UNL     1       5.161   2.041  17.941  0.00  0.00    +0.000 HD
BRANCH  14  16
ATOM     16  C   UNL     1       5.506   4.130  17.787  0.00  0.00    +0.000 A 
ATOM     17  C   UNL     1       5.727   4.572  16.482  0.00  0.00    +0.000 A 
ATOM     18  C   UNL     1       6.533   5.686  16.254  0.00  0.00    +0.000 A 
ATOM     19  C   UNL     1       7.087   6.360  17.335  0.00  0.00    +0.000 A 
ATOM     20  F   UNL     1       7.870   7.423  17.115  0.00  0.00    +0.000 F 
ATOM     21  C   UNL     1       6.844   5.945  18.640  0.00  0.00    +0.000 A 
ATOM     22  C   UNL     1       6.045   4.822  18.873  0.00  0.00    +0.000 A 
ENDBRANCH  14  16
ENDBRANCH  11  14
ENDBRANCH   8  11
BRANCH   3  23
ATOM     23  C   UNL     1       1.037   9.859  20.748  0.00  0.00    +0.000 C 
ATOM     24  O   UNL     1       1.317  10.295  21.860  0.00  0.00    +0.000 OA
BRANCH  23  25
ATOM     25  C   UNL     1       0.258  10.738  19.821  0.00  0.00    +0.000 A 
ATOM     26  C   UNL     1      -0.977  10.318  19.302  0.00  0.00    +0.000 A 
ATOM     27  C   UNL     1      -1.712  11.155  18.464  0.00  0.00    +0.000 A 
ATOM     28  C   UNL     1      -1.213  12.410  18.124  0.00  0.00    +0.000 A 
ATOM     29  C   UNL     1       0.030  12.823  18.605  0.00  0.00    +0.000 A 
ATOM     30  C   UNL     1       0.772  11.986  19.444  0.00  0.00    +0.000 A 
ENDBRANCH  23  25
ENDBRANCH   3  23
TORSDOF 5
ENDMDL
MODEL 3
REMARK VINA RESULT:      -8.8      0.802      1.105
REMARK  Name = 
REMARK  6 active torsions:
REMARK  status: ('A' for Active; 'I' for Inactive)
REMARK    1  A    between atoms: C_1  and  C_2
REMARK    2  A    between atoms: C_3  and  C_4
REMARK    3  A    between atoms: C_4  and  C_6
REMARK    4  A    between atoms: C_16  and  S_17
REMARK    5  A    between atoms: S_17  and  N_20
REMARK    6  A    between atoms: N_20  and  C_21
REMARK                            x       y       z     vdW  Elec       q    Type
REMARK                         _______ _______ _______ _____ _____    ______ ____
ROOT
ATOM      1  C   UNL     1       2.158   9.262  17.748  0.00  0.00    +0.000 C 
ATOM      2  C   UNL     1       1.925   8.421  18.949  0.00  0.00    +0.000 A 
ATOM      3  C   UNL     1       1.376   8.790  20.173  0.00  0.00    +0.000 A 
ATOM      4  O   UNL     1       1.367   7.705  21.014  0.00  0.00    +0.000 OA
ATOM      5  C   UNL     1       1.863   6.643  20.333  0.00  0.00    +0.000 A 
ATOM      6  C   UNL     1       2.011   5.353  20.843  0.00  0.00    +0.000 A 
ATOM      7  C   UNL     1       2.530   4.389  19.969  0.00  0.00    +0.000 A 
ATOM      8  C   UNL     1       2.869   4.731  18.655  0.00  0.00    +0.000 A 
ATOM      9  C   UNL     1       2.695   6.037  18.166  0.00  0.00    +0.000 A 
ATOM     10  C   UNL     1       2.198   7.020  19.042  0.00  0.00    +0.000 A 
ENDROOT
BRANCH   8  11
ATOM     11  S   UNL     1       3.493   3.486  17.543  0.00  0.00    +0.000 S 
ATOM     12  O   UNL     1       4.293   2.564  18.322  0.00  0.00    +0.000 OA
ATOM     13  O   UNL     1       2.396   3.013  16.725  0.00  0.00    +0.000 OA
BRANCH  11  14
ATOM     14  N   UNL     1       4.569   4.344  16.585  0.00  0.00    +0.000 N 
ATOM     15  H   UNL     1       4.278   4.518  15.625  0.00  0.00    +0.000 HD
BRANCH  14  16
ATOM     16  C   UNL     1       5.588   5.119  17.183  0.00  0.00    +0.000 A 
ATOM     17  C   UNL     1       5.731   6.447  16.777  0.00  0.00    +0.000 A 
ATOM     18  C   UNL     1       6.760   7.226  17.303  0.00  0.00    +0.000 A 
ATOM     19  C   UNL     1       7.619   6.676  18.246  0.00  0.00    +0.000 A 
ATOM     20  F   UNL     1       8.615   7.422  18.742  0.00  0.00    +0.000 F 
ATOM     21  C   UNL     1       7.463   5.364  18.680  0.00  0.00    +0.000 A 
ATOM     22  C   UNL     1       6.438   4.576  18.148  0.00  0.00    +0.000 A 
ENDBRANCH  14  16
ENDBRANCH  11  14
ENDBRANCH   8  11
BRANCH   3  23
ATOM     23  C   UNL     1       0.865  10.053  20.680  0.00  0.00    +0.000 C 
ATOM     24  O   UNL     1       1.141  10.507  21.787  0.00  0.00    +0.000 OA
BRANCH  23  25
ATOM     25  C   UNL     1      -0.034  10.856  19.793  0.00  0.00    +0.000 A 
ATOM     26  C   UNL     1       0.219  12.216  19.556  0.00  0.00    +0.000 A 
ATOM     27  C   UNL     1      -0.605  12.949  18.703  0.00  0.00    +0.000 A 
ATOM     28  C   UNL     1      -1.697  12.335  18.094  0.00  0.00    +0.000 A 
ATOM     29  C   UNL     1      -1.979  10.993  18.352  0.00  0.00    +0.000 A 
ATOM     30  C   UNL     1      -1.156  10.254  19.208  0.00  0.00    +0.000 A 
ENDBRANCH  23  25
ENDBRANCH   3  23
TORSDOF 5
ENDMDL
MODEL 4
REMARK VINA RESULT:      -8.8      3.834      8.878
REMARK  Name = 
REMARK  6 active torsions:
REMARK  status: ('A' for Active; 'I' for Inactive)
REMARK    1  A    between atoms: C_1  and  C_2
REMARK    2  A    between atoms: C_3  and  C_4
REMARK    3  A    between atoms: C_4  and  C_6
REMARK    4  A    between atoms: C_16  and  S_17
REMARK    5  A    between atoms: S_17  and  N_20
REMARK    6  A    between atoms: N_20  and  C_21
REMARK                            x       y       z     vdW  Elec       q    Type
REMARK                         _______ _______ _______ _____ _____    ______ ____
ROOT
ATOM      1  C   UNL     1       2.261   5.125  21.024  0.00  0.00    +0.000 C 
ATOM      2  C   UNL     1       2.483   5.907  19.781  0.00  0.00    +0.000 A 
ATOM      3  C   UNL     1       3.089   5.500  18.597  0.00  0.00    +0.000 A 
ATOM      4  O   UNL     1       3.108   6.549  17.711  0.00  0.00    +0.000 OA
ATOM      5  C   UNL     1       2.489   7.603  18.297  0.00  0.00    +0.000 A 
ATOM      6  C   UNL     1       2.301   8.856  17.714  0.00  0.00    +0.000 A 
ATOM      7  C   UNL     1       1.620   9.810  18.482  0.00  0.00    +0.000 A 
ATOM      8  C   UNL     1       1.160   9.490  19.764  0.00  0.00    +0.000 A 
ATOM      9  C   UNL     1       1.353   8.213  20.320  0.00  0.00    +0.000 A 
ATOM     10  C   UNL     1       2.057   7.256  19.567  0.00  0.00    +0.000 A 
ENDROOT
BRANCH   8  11
ATOM     11  S   UNL     1       0.263  10.702  20.716  0.00  0.00    +0.000 S 
ATOM     12  O   UNL     1      -0.849  10.025  21.350  0.00  0.00    +0.000 OA
ATOM     13  O   UNL     1       1.215  11.463  21.497  0.00  0.00    +0.000 OA
BRANCH  11  14
ATOM     14  N   UNL     1      -0.401  11.689  19.535  0.00  0.00    +0.000 N 
ATOM     15  H   UNL     1       0.256  12.236  18.983  0.00  0.00    +0.000 HD
BRANCH  14  16
ATOM     16  C   UNL     1      -1.716  11.455  19.072  0.00  0.00    +0.000 A 
ATOM     17  C   UNL     1      -1.913  10.441  18.133  0.00  0.00    +0.000 A 
ATOM     18  C   UNL     1      -3.185  10.217  17.611  0.00  0.00    +0.000 A 
ATOM     19  C   UNL     1      -4.250  10.993  18.051  0.00  0.00    +0.000 A 
ATOM     20  F   UNL     1      -5.470  10.786  17.540  0.00  0.00    +0.000 F 
ATOM     21  C   UNL     1      -4.067  11.984  19.011  0.00  0.00    +0.000 A 
ATOM     22  C   UNL     1      -2.791  12.218  19.530  0.00  0.00    +0.000 A 
ENDBRANCH  14  16
ENDBRANCH  11  14
ENDBRANCH   8  11
BRANCH   3  23
ATOM     23  C   UNL     1       3.682   4.240  18.178  0.00  0.00    +0.000 C 
ATOM     24  O   UNL     1       3.206   3.140  18.443  0.00  0.00    +0.000 OA
BRANCH  23  25
ATOM     25  C   UNL     1       4.935   4.289  17.362  0.00  0.00    +0.000 A 
ATOM     26  C   UNL     1       4.904   4.031  15.983  0.00  0.00    +0.000 A 
ATOM     27  C   UNL     1       6.070   4.109  15.223  0.00  0.00    +0.000 A 
ATOM     28  C   UNL     1       7.279   4.428  15.837  0.00  0.00    +0.000 A 
ATOM     29  C   UNL     1       7.328   4.650  17.213  0.00  0.00    +0.000 A 
ATOM     30  C   UNL     1       6.161   4.570  17.980  0.00  0.00    +0.000 A 
ENDBRANCH  23  25
ENDBRANCH   3  23
TORSDOF 5
ENDMDL
MODEL 5
REMARK VINA RESULT:      -8.8      3.852      8.841
REMARK  Name = 
REMARK  6 active torsions:
REMARK  status: ('A' for Active; 'I' for Inactive)
REMARK    1  A    between atoms: C_1  and  C_2
REMARK    2  A    between atoms: C_3  and  C_4
REMARK    3  A    between atoms: C_4  and  C_6
REMARK    4  A    between atoms: C_16  and  S_17
REMARK    5  A    between atoms: S_17  and  N_20
REMARK    6  A    between atoms: N_20  and  C_21
REMARK                            x       y       z     vdW  Elec       q    Type
REMARK                         _______ _______ _______ _____ _____    ______ ____
ROOT
ATOM      1  C   UNL     1       2.217   5.201  21.056  0.00  0.00    +0.000 C 
ATOM      2  C   UNL     1       2.453   5.973  19.810  0.00  0.00    +0.000 A 
ATOM      3  C   UNL     1       3.071   5.557  18.635  0.00  0.00    +0.000 A 
ATOM      4  O   UNL     1       3.101   6.598  17.741  0.00  0.00    +0.000 OA
ATOM      5  C   UNL     1       2.476   7.658  18.313  0.00  0.00    +0.000 A 
ATOM      6  C   UNL     1       2.296   8.906  17.718  0.00  0.00    +0.000 A 
ATOM      7  C   UNL     1       1.608   9.867  18.472  0.00  0.00    +0.000 A 
ATOM      8  C   UNL     1       1.133   9.558  19.751  0.00  0.00    +0.000 A 
ATOM      9  C   UNL     1       1.319   8.285  20.319  0.00  0.00    +0.000 A 
ATOM     10  C   UNL     1       2.031   7.321  19.581  0.00  0.00    +0.000 A 
ENDROOT
BRANCH   8  11
ATOM     11  S   UNL     1       0.228  10.777  20.684  0.00  0.00    +0.000 S 
ATOM     12  O   UNL     1      -0.887  10.105  21.318  0.00  0.00    +0.000 OA
ATOM     13  O   UNL     1       1.173  11.549  21.463  0.00  0.00    +0.000 OA
BRANCH  11  14
ATOM     14  N   UNL     1      -0.431  11.750  19.489  0.00  0.00    +0.000 N 
ATOM     15  H   UNL     1       0.226  12.319  18.958  0.00  0.00    +0.000 HD
BRANCH  14  16
ATOM     16  C   UNL     1      -1.724  11.479  18.986  0.00  0.00    +0.000 A 
ATOM     17  C   UNL     1      -2.787  12.255  19.449  0.00  0.00    +0.000 A 
ATOM     18  C   UNL     1      -4.085  11.981  19.019  0.00  0.00    +0.000 A 
ATOM     19  C   UNL     1      -4.300  10.951  18.112  0.00  0.00    +0.000 A 
ATOM     20  F   UNL     1      -5.547  10.681  17.709  0.00  0.00    +0.000 F 
ATOM     21  C   UNL     1      -3.240  10.194  17.621  0.00  0.00    +0.000 A 
ATOM     22  C   UNL     1      -1.940  10.459  18.057  0.00  0.00    +0.000 A 
ENDBRANCH  14  16
ENDBRANCH  11  14
ENDBRANCH   8  11
BRANCH   3  23
ATOM     23  C   UNL     1       3.667   4.293  18.233  0.00  0.00    +0.000 C 
ATOM     24  O   UNL     1       3.180   3.196  18.488  0.00  0.00    +0.000 OA
BRANCH  23  25
ATOM     25  C   UNL     1       4.939   4.334  17.445  0.00  0.00    +0.000 A 
ATOM     26  C   UNL     1       6.163   4.616  18.073  0.00  0.00    +0.000 A 
ATOM     27  C   UNL     1       7.348   4.622  17.338  0.00  0.00    +0.000 A 
ATOM     28  C   UNL     1       7.319   4.363  15.970  0.00  0.00    +0.000 A 
ATOM     29  C   UNL     1       6.104   4.117  15.330  0.00  0.00    +0.000 A 
ATOM     30  C   UNL     1       4.912   4.112  16.062  0.00  0.00    +0.000 A 
ENDBRANCH  23  25
ENDBRANCH   3  23
TORSDOF 5
ENDMDL
MODEL 6
REMARK VINA RESULT:      -8.7      1.055      1.160
REMARK  Name = 
REMARK  6 active torsions:
REMARK  status: ('A' for Active; 'I' for Inactive)
REMARK    1  A    between atoms: C_1  and  C_2
REMARK    2  A    between atoms: C_3  and  C_4
REMARK    3  A    between atoms: C_4  and  C_6
REMARK    4  A    between atoms: C_16  and  S_17
REMARK    5  A    between atoms: S_17  and  N_20
REMARK    6  A    between atoms: N_20  and  C_21
REMARK                            x       y       z     vdW  Elec       q    Type
REMARK                         _______ _______ _______ _____ _____    ______ ____
ROOT
ATOM      1  C   UNL     1       2.149   9.521  17.724  0.00  0.00    +0.000 C 
ATOM      2  C   UNL     1       1.854   8.689  18.918  0.00  0.00    +0.000 A 
ATOM      3  C   UNL     1       1.240   9.066  20.108  0.00  0.00    +0.000 A 
ATOM      4  O   UNL     1       1.188   7.988  20.956  0.00  0.00    +0.000 OA
ATOM      5  C   UNL     1       1.721   6.921  20.310  0.00  0.00    +0.000 A 
ATOM      6  C   UNL     1       1.843   5.636  20.837  0.00  0.00    +0.000 A 
ATOM      7  C   UNL     1       2.409   4.666  19.999  0.00  0.00    +0.000 A 
ATOM      8  C   UNL     1       2.817   4.999  18.703  0.00  0.00    +0.000 A 
ATOM      9  C   UNL     1       2.667   6.301  18.195  0.00  0.00    +0.000 A 
ATOM     10  C   UNL     1       2.124   7.289  19.036  0.00  0.00    +0.000 A 
ENDROOT
BRANCH   8  11
ATOM     11  S   UNL     1       3.502   3.746  17.635  0.00  0.00    +0.000 S 
ATOM     12  O   UNL     1       4.376   2.917  18.437  0.00  0.00    +0.000 OA
ATOM     13  O   UNL     1       2.423   3.165  16.865  0.00  0.00    +0.000 OA
BRANCH  11  14
ATOM     14  N   UNL     1       4.499   4.628  16.615  0.00  0.00    +0.000 N 
ATOM     15  H   UNL     1       4.118   4.853  15.698  0.00  0.00    +0.000 HD
BRANCH  14  16
ATOM     16  C   UNL     1       5.591   5.352  17.143  0.00  0.00    +0.000 A 
ATOM     17  C   UNL     1       6.457   4.694  18.018  0.00  0.00    +0.000 A 
ATOM     18  C   UNL     1       7.513   5.390  18.604  0.00  0.00    +0.000 A 
ATOM     19  C   UNL     1       7.706   6.729  18.288  0.00  0.00    +0.000 A 
ATOM     20  F   UNL     1       8.713   7.400  18.859  0.00  0.00    +0.000 F 
ATOM     21  C   UNL     1       6.867   7.382  17.391  0.00  0.00    +0.000 A 
ATOM     22  C   UNL     1       5.801   6.691  16.809  0.00  0.00    +0.000 A 
ENDBRANCH  14  16
ENDBRANCH  11  14
ENDBRANCH   8  11
BRANCH   3  23
ATOM     23  C   UNL     1       0.701  10.333  20.578  0.00  0.00    +0.000 C 
ATOM     24  O   UNL     1       1.234  11.024  21.440  0.00  0.00    +0.000 OA
BRANCH  23  25
ATOM     25  C   UNL     1      -0.568  10.830  19.959  0.00  0.00    +0.000 A 
ATOM     26  C   UNL     1      -1.241  11.938  20.495  0.00  0.00    +0.000 A 
ATOM     27  C   UNL     1      -2.406  12.415  19.895  0.00  0.00    +0.000 A 
ATOM     28  C   UNL     1      -2.916  11.780  18.765  0.00  0.00    +0.000 A 
ATOM     29  C   UNL     1      -2.274  10.655  18.245  0.00  0.00    +0.000 A 
ATOM     30  C   UNL     1      -1.107  10.172  18.846  0.00  0.00    +0.000 A 
ENDBRANCH  23  25
ENDBRANCH   3  23
TORSDOF 5
ENDMDL
MODEL 7
REMARK VINA RESULT:      -8.7      2.676      3.648
REMARK  Name = 
REMARK  6 active torsions:
REMARK  status: ('A' for Active; 'I' for Inactive)
REMARK    1  A    between atoms: C_1  and  C_2
REMARK    2  A    between atoms: C_3  and  C_4
REMARK    3  A    between atoms: C_4  and  C_6
REMARK    4  A    between atoms: C_16  and  S_17
REMARK    5  A    between atoms: S_17  and  N_20
REMARK    6  A    between atoms: N_20  and  C_21
REMARK                            x       y       z     vdW  Elec       q    Type
REMARK                         _______ _______ _______ _____ _____    ______ ____
ROOT
ATOM      1  C   UNL     1       0.071   9.360  22.894  0.00  0.00    +0.000 C 
ATOM      2  C   UNL     1       0.435   9.844  21.538  0.00  0.00    +0.000 A 
ATOM      3  C   UNL     1       0.270  11.115  20.998  0.00  0.00    +0.000 A 
ATOM      4  O   UNL     1       0.721  11.122  19.702  0.00  0.00    +0.000 OA
ATOM      5  C   UNL     1       1.208   9.888  19.422  0.00  0.00    +0.000 A 
ATOM      6  C   UNL     1       1.763   9.496  18.204  0.00  0.00    +0.000 A 
ATOM      7  C   UNL     1       2.224   8.175  18.122  0.00  0.00    +0.000 A 
ATOM      8  C   UNL     1       2.125   7.319  19.224  0.00  0.00    +0.000 A 
ATOM      9  C   UNL     1       1.573   7.748  20.443  0.00  0.00    +0.000 A 
ATOM     10  C   UNL     1       1.083   9.064  20.529  0.00  0.00    +0.000 A 
ENDROOT
BRANCH   8  11
ATOM     11  S   UNL     1       2.750   5.653  19.117  0.00  0.00    +0.000 S 
ATOM     12  O   UNL     1       2.771   5.106  20.457  0.00  0.00    +0.000 OA
ATOM     13  O   UNL     1       2.054   4.973  18.045  0.00  0.00    +0.000 OA
BRANCH  11  14
ATOM     14  N   UNL     1       4.352   5.881  18.680  0.00  0.00    +0.000 N 
ATOM     15  H   UNL     1       5.008   6.042  19.442  0.00  0.00    +0.000 HD
BRANCH  14  16
ATOM     16  C   UNL     1       4.808   5.462  17.409  0.00  0.00    +0.000 A 
ATOM     17  C   UNL     1       5.159   4.122  17.244  0.00  0.00    +0.000 A 
ATOM     18  C   UNL     1       5.666   3.682  16.022  0.00  0.00    +0.000 A 
ATOM     19  C   UNL     1       5.792   4.584  14.972  0.00  0.00    +0.000 A 
ATOM     20  F   UNL     1       6.290   4.164  13.803  0.00  0.00    +0.000 F 
ATOM     21  C   UNL     1       5.413   5.914  15.120  0.00  0.00    +0.000 A 
ATOM     22  C   UNL     1       4.914   6.361  16.347  0.00  0.00    +0.000 A 
ENDBRANCH  14  16
ENDBRANCH  11  14
ENDBRANCH   8  11
BRANCH   3  23
ATOM     23  C   UNL     1      -0.283  12.348  21.537  0.00  0.00    +0.000 C 
ATOM     24  O   UNL     1       0.400  13.281  21.947  0.00  0.00    +0.000 OA
BRANCH  23  25
ATOM     25  C   UNL     1      -1.772  12.494  21.574  0.00  0.00    +0.000 A 
ATOM     26  C   UNL     1      -2.510  12.627  20.388  0.00  0.00    +0.000 A 
ATOM     27  C   UNL     1      -3.900  12.731  20.429  0.00  0.00    +0.000 A 
ATOM     28  C   UNL     1      -4.562  12.720  21.655  0.00  0.00    +0.000 A 
ATOM     29  C   UNL     1      -3.835  12.625  22.842  0.00  0.00    +0.000 A 
ATOM     30  C   UNL     1      -2.440  12.523  22.806  0.00  0.00    +0.000 A 
ENDBRANCH  23  25
ENDBRANCH   3  23
TORSDOF 5
ENDMDL
MODEL 8
REMARK VINA RESULT:      -8.7      0.955      1.426
REMARK  Name = 
REMARK  6 active torsions:
REMARK  status: ('A' for Active; 'I' for Inactive)
REMARK    1  A    between atoms: C_1  and  C_2
REMARK    2  A    between atoms: C_3  and  C_4
REMARK    3  A    between atoms: C_4  and  C_6
REMARK    4  A    between atoms: C_16  and  S_17
REMARK    5  A    between atoms: S_17  and  N_20
REMARK    6  A    between atoms: N_20  and  C_21
REMARK                            x       y       z     vdW  Elec       q    Type
REMARK                         _______ _______ _______ _____ _____    ______ ____
ROOT
ATOM      1  C   UNL     1       1.961   9.363  17.823  0.00  0.00    +0.000 C 
ATOM      2  C   UNL     1       1.818   8.512  19.032  0.00  0.00    +0.000 A 
ATOM      3  C   UNL     1       1.337   8.865  20.289  0.00  0.00    +0.000 A 
ATOM      4  O   UNL     1       1.400   7.776  21.123  0.00  0.00    +0.000 OA
ATOM      5  C   UNL     1       1.874   6.727  20.407  0.00  0.00    +0.000 A 
ATOM      6  C   UNL     1       2.077   5.439  20.899  0.00  0.00    +0.000 A 
ATOM      7  C   UNL     1       2.561   4.488  19.990  0.00  0.00    +0.000 A 
ATOM      8  C   UNL     1       2.813   4.843  18.660  0.00  0.00    +0.000 A 
ATOM      9  C   UNL     1       2.585   6.148  18.190  0.00  0.00    +0.000 A 
ATOM     10  C   UNL     1       2.123   7.116  19.100  0.00  0.00    +0.000 A 
ENDROOT
BRANCH   8  11
ATOM     11  S   UNL     1       3.393   3.615  17.505  0.00  0.00    +0.000 S 
ATOM     12  O   UNL     1       4.249   2.701  18.231  0.00  0.00    +0.000 OA
ATOM     13  O   UNL     1       2.259   3.131  16.747  0.00  0.00    +0.000 OA
BRANCH  11  14
ATOM     14  N   UNL     1       4.400   4.497  16.495  0.00  0.00    +0.000 N 
ATOM     15  H   UNL     1       4.030   4.718  15.573  0.00  0.00    +0.000 HD
BRANCH  14  16
ATOM     16  C   UNL     1       5.483   5.227  17.035  0.00  0.00    +0.000 A 
ATOM     17  C   UNL     1       6.387   4.554  17.858  0.00  0.00    +0.000 A 
ATOM     18  C   UNL     1       7.436   5.251  18.454  0.00  0.00    +0.000 A 
ATOM     19  C   UNL     1       7.583   6.610  18.200  0.00  0.00    +0.000 A 
ATOM     20  F   UNL     1       8.583   7.282  18.783  0.00  0.00    +0.000 F 
ATOM     21  C   UNL     1       6.705   7.281  17.355  0.00  0.00    +0.000 A 
ATOM     22  C   UNL     1       5.646   6.586  16.764  0.00  0.00    +0.000 A 
ENDBRANCH  14  16
ENDBRANCH  11  14
ENDBRANCH   8  11
BRANCH   3  23
ATOM     23  C   UNL     1       0.833  10.116  20.833  0.00  0.00    +0.000 C 
ATOM     24  O   UNL     1       0.839  10.392  22.029  0.00  0.00    +0.000 OA
BRANCH  23  25
ATOM     25  C   UNL     1       0.295  11.133  19.876  0.00  0.00    +0.000 A 
ATOM     26  C   UNL     1      -0.958  10.954  19.269  0.00  0.00    +0.000 A 
ATOM     27  C   UNL     1      -1.467  11.921  18.403  0.00  0.00    +0.000 A 
ATOM     28  C   UNL     1      -0.723  13.065  18.124  0.00  0.00    +0.000 A 
ATOM     29  C   UNL     1       0.539  13.235  18.693  0.00  0.00    +0.000 A 
ATOM     30  C   UNL     1       1.055  12.267  19.561  0.00  0.00    +0.000 A 
ENDBRANCH  23  25
ENDBRANCH   3  23
TORSDOF 5
ENDMDL
MODEL 9
REMARK VINA RESULT:      -8.6      3.739      8.744
REMARK  Name = 
REMARK  6 active torsions:
REMARK  status: ('A' for Active; 'I' for Inactive)
REMARK    1  A    between atoms: C_1  and  C_2
REMARK    2  A    between atoms: C_3  and  C_4
REMARK    3  A    between atoms: C_4  and  C_6
REMARK    4  A    between atoms: C_16  and  S_17
REMARK    5  A    between atoms: S_17  and  N_20
REMARK    6  A    between atoms: N_20  and  C_21
REMARK                            x       y       z     vdW  Elec       q    Type
REMARK                         _______ _______ _______ _____ _____    ______ ____
ROOT
ATOM      1  C   UNL     1       2.548   4.753  20.774  0.00  0.00    +0.000 C 
ATOM      2  C   UNL     1       2.780   5.623  19.593  0.00  0.00    +0.000 A 
ATOM      3  C   UNL     1       3.438   5.317  18.406  0.00  0.00    +0.000 A 
ATOM      4  O   UNL     1       3.445   6.422  17.591  0.00  0.00    +0.000 OA
ATOM      5  C   UNL     1       2.768   7.412  18.222  0.00  0.00    +0.000 A 
ATOM      6  C   UNL     1       2.552   8.693  17.715  0.00  0.00    +0.000 A 
ATOM      7  C   UNL     1       1.811   9.569  18.520  0.00  0.00    +0.000 A 
ATOM      8  C   UNL     1       1.323   9.150  19.763  0.00  0.00    +0.000 A 
ATOM      9  C   UNL     1       1.546   7.847  20.241  0.00  0.00    +0.000 A 
ATOM     10  C   UNL     1       2.310   6.967  19.452  0.00  0.00    +0.000 A 
ENDROOT
BRANCH   8  11
ATOM     11  S   UNL     1       0.351  10.263  20.760  0.00  0.00    +0.000 S 
ATOM     12  O   UNL     1      -0.819   9.539  21.210  0.00  0.00    +0.000 OA
ATOM     13  O   UNL     1       1.233  10.917  21.704  0.00  0.00    +0.000 OA
BRANCH  11  14
ATOM     14  N   UNL     1      -0.196  11.387  19.642  0.00  0.00    +0.000 N 
ATOM     15  H   UNL     1       0.509  12.000  19.238  0.00  0.00    +0.000 HD
BRANCH  14  16
ATOM     16  C   UNL     1      -1.446  11.206  19.008  0.00  0.00    +0.000 A 
ATOM     17  C   UNL     1      -2.501  12.040  19.382  0.00  0.00    +0.000 A 
ATOM     18  C   UNL     1      -3.763  11.856  18.821  0.00  0.00    +0.000 A 
ATOM     19  C   UNL     1      -3.950  10.856  17.874  0.00  0.00    +0.000 A 
ATOM     20  F   UNL     1      -5.165  10.672  17.344  0.00  0.00    +0.000 F 
ATOM     21  C   UNL     1      -2.895  10.043  17.472  0.00  0.00    +0.000 A 
ATOM     22  C   UNL     1      -1.630  10.218  18.040  0.00  0.00    +0.000 A 
ENDBRANCH  14  16
ENDBRANCH  11  14
ENDBRANCH   8  11
BRANCH   3  23
ATOM     23  C   UNL     1       4.091   4.109  17.928  0.00  0.00    +0.000 C 
ATOM     24  O   UNL     1       3.795   2.978  18.302  0.00  0.00    +0.000 OA
BRANCH  23  25
ATOM     25  C   UNL     1       5.175   4.253  16.905  0.00  0.00    +0.000 A 
ATOM     26  C   UNL     1       4.934   3.949  15.557  0.00  0.00    +0.000 A 
ATOM     27  C   UNL     1       5.939   4.115  14.605  0.00  0.00    +0.000 A 
ATOM     28  C   UNL     1       7.197   4.569  14.994  0.00  0.00    +0.000 A 
ATOM     29  C   UNL     1       7.458   4.839  16.338  0.00  0.00    +0.000 A 
ATOM     30  C   UNL     1       6.453   4.672  17.297  0.00  0.00    +0.000 A 
ENDBRANCH  23  25
ENDBRANCH   3  23
TORSDOF 5
ENDMDL
