MODEL 1
REMARK VINA RESULT:      -7.4      0.000      0.000
REMARK  Name = 
REMARK  9 active torsions:
REMARK  status: ('A' for Active; 'I' for Inactive)
REMARK    1  A    between atoms: C_1  and  C_2
REMARK    2  A    between atoms: C_2  and  C_3
REMARK    3  A    between atoms: C_3  and  N_4
REMARK    4  A    between atoms: N_4  and  C_5
REMARK    5  A    between atoms: N_4  and  C_8
REMARK    6  A    between atoms: C_5  and  C_6
REMARK    7  A    between atoms: C_6  and  C_7
REMARK    8  A    between atoms: C_15  and  C_16
REMARK    9  A    between atoms: C_16  and  C_18
REMARK                            x       y       z     vdW  Elec       q    Type
REMARK                         _______ _______ _______ _____ _____    ______ ____
ROOT
ATOM      1  C   UNL     1       1.641   6.614  19.533  0.00  0.00    +0.000 C 
ATOM      2  C   UNL     1       1.359   5.638  20.690  0.00  0.00    +0.000 C 
ATOM      3  C   UNL     1       1.086   4.230  20.169  0.00  0.00    +0.000 C 
ATOM      4  C   UNL     1       2.180   3.703  19.284  0.00  0.00    +0.000 A 
ATOM      5  C   UNL     1       2.349   2.313  19.181  0.00  0.00    +0.000 A 
ATOM      6  C   UNL     1       3.354   1.774  18.395  0.00  0.00    +0.000 A 
ATOM      7  C   UNL     1       4.190   2.618  17.668  0.00  0.00    +0.000 A 
ATOM      8  C   UNL     1       4.005   4.012  17.691  0.00  0.00    +0.000 A 
ATOM      9  C   UNL     1       3.001   4.569  18.533  0.00  0.00    +0.000 A 
ATOM     10  C   UNL     1       2.847   6.070  18.698  0.00  0.00    +0.000 C 
ENDROOT
BRANCH   8  11
ATOM     11  C   UNL     1       4.929   4.856  16.861  0.00  0.00    +0.000 C 
ATOM     12  O   UNL     1       4.770   4.944  15.645  0.00  0.00    +0.000 OA
BRANCH  11  13
ATOM     13  C   UNL     1       6.034   5.660  17.469  0.00  0.00    +0.000 A 
ATOM     14  C   UNL     1       6.677   5.153  18.606  0.00  0.00    +0.000 A 
ATOM     15  C   UNL     1       7.737   5.850  19.190  0.00  0.00    +0.000 A 
ATOM     16  C   UNL     1       8.164   7.058  18.639  0.00  0.00    +0.000 A 
ATOM     17  C   UNL     1       7.513   7.583  17.524  0.00  0.00    +0.000 A 
ATOM     18  C   UNL     1       6.437   6.898  16.948  0.00  0.00    +0.000 A 
ENDBRANCH  11  13
ENDBRANCH   8  11
BRANCH   1  19
ATOM     19  N   UNL     1       1.881   8.026  19.999  0.00  0.00    +0.000 NA
BRANCH  19  20
ATOM     20  C   UNL     1       1.265   9.006  19.077  0.00  0.00    +0.000 C 
BRANCH  20  22
ATOM     21  C   UNL     1       2.253  11.122  18.020  0.00  0.00    +0.000 C 
ATOM     22  C   UNL     1       2.141   9.607  17.962  0.00  0.00    +0.000 C 
ENDBRANCH  20  22
ENDBRANCH  19  20
BRANCH  19  23
ATOM     23  C   UNL     1       1.540   8.270  21.421  0.00  0.00    +0.000 C 
BRANCH  23  24
ATOM     24  C   UNL     1       0.120   8.789  21.701  0.00  0.00    +0.000 C 
ATOM     25  C   UNL     1       0.030   9.590  22.995  0.00  0.00    +0.000 C 
ENDBRANCH  23  24
ENDBRANCH  19  23
ENDBRANCH   1  19
TORSDOF 7
ENDMDL
MODEL 2
REMARK VINA RESULT:      -7.2      2.086      6.392
REMARK  Name = 
REMARK  9 active torsions:
REMARK  status: ('A' for Active; 'I' for Inactive)
REMARK    1  A    between atoms: C_1  and  C_2
REMARK    2  A    between atoms: C_2  and  C_3
REMARK    3  A    between atoms: C_3  and  N_4
REMARK    4  A    between atoms: N_4  and  C_5
REMARK    5  A    between atoms: N_4  and  C_8
REMARK    6  A    between atoms: C_5  and  C_6
REMARK    7  A    between atoms: C_6  and  C_7
REMARK    8  A    between atoms: C_15  and  C_16
REMARK    9  A    between atoms: C_16  and  C_18
REMARK                            x       y       z     vdW  Elec       q    Type
REMARK                         _______ _______ _______ _____ _____    ______ ____
ROOT
ATOM      1  C   UNL     1       5.834   5.166  18.631  0.00  0.00    +0.000 C 
ATOM      2  C   UNL     1       5.444   3.692  18.414  0.00  0.00    +0.000 C 
ATOM      3  C   UNL     1       4.600   3.169  19.572  0.00  0.00    +0.000 C 
ATOM      4  C   UNL     1       3.382   4.005  19.845  0.00  0.00    +0.000 A 
ATOM      5  C   UNL     1       2.275   3.400  20.461  0.00  0.00    +0.000 A 
ATOM      6  C   UNL     1       1.121   4.120  20.717  0.00  0.00    +0.000 A 
ATOM      7  C   UNL     1       1.064   5.473  20.391  0.00  0.00    +0.000 A 
ATOM      8  C   UNL     1       2.178   6.129  19.838  0.00  0.00    +0.000 A 
ATOM      9  C   UNL     1       3.350   5.380  19.533  0.00  0.00    +0.000 A 
ATOM     10  C   UNL     1       4.529   6.010  18.814  0.00  0.00    +0.000 C 
ENDROOT
BRANCH   8  11
ATOM     11  C   UNL     1       2.050   7.596  19.537  0.00  0.00    +0.000 C 
ATOM     12  O   UNL     1       2.528   8.065  18.506  0.00  0.00    +0.000 OA
BRANCH  11  13
ATOM     13  C   UNL     1       1.301   8.529  20.434  0.00  0.00    +0.000 A 
ATOM     14  C   UNL     1       0.459   9.484  19.848  0.00  0.00    +0.000 A 
ATOM     15  C   UNL     1      -0.288  10.355  20.644  0.00  0.00    +0.000 A 
ATOM     16  C   UNL     1      -0.198  10.276  22.034  0.00  0.00    +0.000 A 
ATOM     17  C   UNL     1       0.658   9.350  22.626  0.00  0.00    +0.000 A 
ATOM     18  C   UNL     1       1.423   8.488  21.830  0.00  0.00    +0.000 A 
ENDBRANCH  11  13
ENDBRANCH   8  11
BRANCH   1  19
ATOM     19  N   UNL     1       6.698   5.714  17.527  0.00  0.00    +0.000 NA
BRANCH  19  20
ATOM     20  C   UNL     1       7.659   6.713  18.046  0.00  0.00    +0.000 C 
BRANCH  20  22
ATOM     21  C   UNL     1       8.511   9.125  18.223  0.00  0.00    +0.000 C 
ATOM     22  C   UNL     1       7.525   8.171  17.567  0.00  0.00    +0.000 C 
ENDBRANCH  20  22
ENDBRANCH  19  20
BRANCH  19  23
ATOM     23  C   UNL     1       7.335   4.683  16.674  0.00  0.00    +0.000 C 
BRANCH  23  24
ATOM     24  C   UNL     1       7.024   4.757  15.169  0.00  0.00    +0.000 C 
ATOM     25  C   UNL     1       5.581   5.159  14.885  0.00  0.00    +0.000 C 
ENDBRANCH  23  24
ENDBRANCH  19  23
ENDBRANCH   1  19
TORSDOF 7
ENDMDL
MODEL 3
REMARK VINA RESULT:      -7.0      0.359      1.046
REMARK  Name = 
REMARK  9 active torsions:
REMARK  status: ('A' for Active; 'I' for Inactive)
REMARK    1  A    between atoms: C_1  and  C_2
REMARK    2  A    between atoms: C_2  and  C_3
REMARK    3  A    between atoms: C_3  and  N_4
REMARK    4  A    between atoms: N_4  and  C_5
REMARK    5  A    between atoms: N_4  and  C_8
REMARK    6  A    between atoms: C_5  and  C_6
REMARK    7  A    between atoms: C_6  and  C_7
REMARK    8  A    between atoms: C_15  and  C_16
REMARK    9  A    between atoms: C_16  and  C_18
REMARK                            x       y       z     vdW  Elec       q    Type
REMARK                         _______ _______ _______ _____ _____    ______ ____
ROOT
ATOM      1  C   UNL     1       1.627   6.620  19.588  0.00  0.00    +0.000 C 
ATOM      2  C   UNL     1       1.359   5.683  20.779  0.00  0.00    +0.000 C 
ATOM      3  C   UNL     1       1.080   4.259  20.308  0.00  0.00    +0.000 C 
ATOM      4  C   UNL     1       2.163   3.702  19.428  0.00  0.00    +0.000 A 
ATOM      5  C   UNL     1       2.330   2.309  19.369  0.00  0.00    +0.000 A 
ATOM      6  C   UNL     1       3.325   1.744  18.589  0.00  0.00    +0.000 A 
ATOM      7  C   UNL     1       4.153   2.563  17.825  0.00  0.00    +0.000 A 
ATOM      8  C   UNL     1       3.969   3.957  17.805  0.00  0.00    +0.000 A 
ATOM      9  C   UNL     1       2.975   4.543  18.640  0.00  0.00    +0.000 A 
ATOM     10  C   UNL     1       2.824   6.049  18.757  0.00  0.00    +0.000 C 
ENDROOT
BRANCH   8  11
ATOM     11  C   UNL     1       4.884   4.773  16.936  0.00  0.00    +0.000 C 
ATOM     12  O   UNL     1       4.687   4.852  15.725  0.00  0.00    +0.000 OA
BRANCH  11  13
ATOM     13  C   UNL     1       6.025   5.559  17.500  0.00  0.00    +0.000 A 
ATOM     14  C   UNL     1       6.323   6.803  16.928  0.00  0.00    +0.000 A 
ATOM     15  C   UNL     1       7.356   7.590  17.441  0.00  0.00    +0.000 A 
ATOM     16  C   UNL     1       8.098   7.138  18.533  0.00  0.00    +0.000 A 
ATOM     17  C   UNL     1       7.827   5.890  19.091  0.00  0.00    +0.000 A 
ATOM     18  C   UNL     1       6.805   5.091  18.567  0.00  0.00    +0.000 A 
ENDBRANCH  11  13
ENDBRANCH   8  11
BRANCH   1  19
ATOM     19  N   UNL     1       1.874   8.046  20.005  0.00  0.00    +0.000 NA
BRANCH  19  20
ATOM     20  C   UNL     1       1.382   8.995  18.981  0.00  0.00    +0.000 C 
BRANCH  20  22
ATOM     21  C   UNL     1       2.093  11.352  18.265  0.00  0.00    +0.000 C 
ATOM     22  C   UNL     1       1.397  10.499  19.314  0.00  0.00    +0.000 C 
ENDBRANCH  20  22
ENDBRANCH  19  20
BRANCH  19  23
ATOM     23  C   UNL     1       1.411   8.375  21.374  0.00  0.00    +0.000 C 
BRANCH  23  24
ATOM     24  C   UNL     1      -0.098   8.624  21.541  0.00  0.00    +0.000 C 
ATOM     25  C   UNL     1      -0.426   9.432  22.792  0.00  0.00    +0.000 C 
ENDBRANCH  23  24
ENDBRANCH  19  23
ENDBRANCH   1  19
TORSDOF 7
ENDMDL
MODEL 4
REMARK VINA RESULT:      -7.0      2.169      6.662
REMARK  Name = 
REMARK  9 active torsions:
REMARK  status: ('A' for Active; 'I' for Inactive)
REMARK    1  A    between atoms: C_1  and  C_2
REMARK    2  A    between atoms: C_2  and  C_3
REMARK    3  A    between atoms: C_3  and  N_4
REMARK    4  A    between atoms: N_4  and  C_5
REMARK    5  A    between atoms: N_4  and  C_8
REMARK    6  A    between atoms: C_5  and  C_6
REMARK    7  A    between atoms: C_6  and  C_7
REMARK    8  A    between atoms: C_15  and  C_16
REMARK    9  A    between atoms: C_16  and  C_18
REMARK                            x       y       z     vdW  Elec       q    Type
REMARK                         _______ _______ _______ _____ _____    ______ ____
ROOT
ATOM      1  C   UNL     1       5.024   4.818  17.294  0.00  0.00    +0.000 C 
ATOM      2  C   UNL     1       4.398   3.416  17.176  0.00  0.00    +0.000 C 
ATOM      3  C   UNL     1       3.914   2.914  18.533  0.00  0.00    +0.000 C 
ATOM      4  C   UNL     1       2.968   3.862  19.214  0.00  0.00    +0.000 A 
ATOM      5  C   UNL     1       2.050   3.345  20.142  0.00  0.00    +0.000 A 
ATOM      6  C   UNL     1       1.143   4.172  20.783  0.00  0.00    +0.000 A 
ATOM      7  C   UNL     1       1.159   5.541  20.531  0.00  0.00    +0.000 A 
ATOM      8  C   UNL     1       2.110   6.104  19.660  0.00  0.00    +0.000 A 
ATOM      9  C   UNL     1       3.014   5.250  18.968  0.00  0.00    +0.000 A 
ATOM     10  C   UNL     1       3.969   5.789  17.918  0.00  0.00    +0.000 C 
ENDROOT
BRANCH   8  11
ATOM     11  C   UNL     1       2.082   7.593  19.459  0.00  0.00    +0.000 C 
ATOM     12  O   UNL     1       2.649   8.102  18.494  0.00  0.00    +0.000 OA
BRANCH  11  13
ATOM     13  C   UNL     1       1.330   8.505  20.375  0.00  0.00    +0.000 A 
ATOM     14  C   UNL     1       0.458   9.445  19.809  0.00  0.00    +0.000 A 
ATOM     15  C   UNL     1      -0.292  10.296  20.624  0.00  0.00    +0.000 A 
ATOM     16  C   UNL     1      -0.176  10.212  22.011  0.00  0.00    +0.000 A 
ATOM     17  C   UNL     1       0.709   9.300  22.582  0.00  0.00    +0.000 A 
ATOM     18  C   UNL     1       1.477   8.459  21.768  0.00  0.00    +0.000 A 
ENDBRANCH  11  13
ENDBRANCH   8  11
BRANCH   1  19
ATOM     19  N   UNL     1       5.549   5.339  15.982  0.00  0.00    +0.000 NA
BRANCH  19  20
ATOM     20  C   UNL     1       6.958   5.778  16.106  0.00  0.00    +0.000 C 
BRANCH  20  22
ATOM     21  C   UNL     1       7.678   7.744  17.585  0.00  0.00    +0.000 C 
ATOM     22  C   UNL     1       7.456   6.243  17.487  0.00  0.00    +0.000 C 
ENDBRANCH  20  22
ENDBRANCH  19  20
BRANCH  19  23
ATOM     23  C   UNL     1       5.319   4.440  14.826  0.00  0.00    +0.000 C 
BRANCH  23  24
ATOM     24  C   UNL     1       6.539   4.151  13.935  0.00  0.00    +0.000 C 
ATOM     25  C   UNL     1       6.155   3.554  12.586  0.00  0.00    +0.000 C 
ENDBRANCH  23  24
ENDBRANCH  19  23
ENDBRANCH   1  19
TORSDOF 7
ENDMDL
MODEL 5
REMARK VINA RESULT:      -7.0      2.019      6.231
REMARK  Name = 
REMARK  9 active torsions:
REMARK  status: ('A' for Active; 'I' for Inactive)
REMARK    1  A    between atoms: C_1  and  C_2
REMARK    2  A    between atoms: C_2  and  C_3
REMARK    3  A    between atoms: C_3  and  N_4
REMARK    4  A    between atoms: N_4  and  C_5
REMARK    5  A    between atoms: N_4  and  C_8
REMARK    6  A    between atoms: C_5  and  C_6
REMARK    7  A    between atoms: C_6  and  C_7
REMARK    8  A    between atoms: C_15  and  C_16
REMARK    9  A    between atoms: C_16  and  C_18
REMARK                            x       y       z     vdW  Elec       q    Type
REMARK                         _______ _______ _______ _____ _____    ______ ____
ROOT
ATOM      1  C   UNL     1       5.905   5.057  18.864  0.00  0.00    +0.000 C 
ATOM      2  C   UNL     1       5.497   3.598  18.589  0.00  0.00    +0.000 C 
ATOM      3  C   UNL     1       4.546   3.080  19.663  0.00  0.00    +0.000 C 
ATOM      4  C   UNL     1       3.331   3.945  19.848  0.00  0.00    +0.000 A 
ATOM      5  C   UNL     1       2.161   3.361  20.358  0.00  0.00    +0.000 A 
ATOM      6  C   UNL     1       1.008   4.108  20.530  0.00  0.00    +0.000 A 
ATOM      7  C   UNL     1       1.014   5.466  20.224  0.00  0.00    +0.000 A 
ATOM      8  C   UNL     1       2.187   6.101  19.777  0.00  0.00    +0.000 A 
ATOM      9  C   UNL     1       3.361   5.325  19.559  0.00  0.00    +0.000 A 
ATOM     10  C   UNL     1       4.612   5.933  18.952  0.00  0.00    +0.000 C 
ENDROOT
BRANCH   8  11
ATOM     11  C   UNL     1       2.123   7.575  19.492  0.00  0.00    +0.000 C 
ATOM     12  O   UNL     1       2.643   8.038  18.479  0.00  0.00    +0.000 OA
BRANCH  11  13
ATOM     13  C   UNL     1       1.388   8.525  20.384  0.00  0.00    +0.000 A 
ATOM     14  C   UNL     1       0.673   9.575  19.791  0.00  0.00    +0.000 A 
ATOM     15  C   UNL     1      -0.057  10.468  20.579  0.00  0.00    +0.000 A 
ATOM     16  C   UNL     1      -0.078  10.317  21.965  0.00  0.00    +0.000 A 
ATOM     17  C   UNL     1       0.653   9.293  22.565  0.00  0.00    +0.000 A 
ATOM     18  C   UNL     1       1.401   8.408  21.781  0.00  0.00    +0.000 A 
ENDBRANCH  11  13
ENDBRANCH   8  11
BRANCH   1  19
ATOM     19  N   UNL     1       6.874   5.599  17.845  0.00  0.00    +0.000 NA
BRANCH  19  20
ATOM     20  C   UNL     1       6.198   5.870  16.557  0.00  0.00    +0.000 C 
BRANCH  20  22
ATOM     21  C   UNL     1       5.478   4.383  14.596  0.00  0.00    +0.000 C 
ATOM     22  C   UNL     1       6.631   5.058  15.322  0.00  0.00    +0.000 C 
ENDBRANCH  20  22
ENDBRANCH  19  20
BRANCH  19  23
ATOM     23  C   UNL     1       7.696   6.736  18.322  0.00  0.00    +0.000 C 
BRANCH  23  24
ATOM     24  C   UNL     1       7.613   8.030  17.495  0.00  0.00    +0.000 C 
ATOM     25  C   UNL     1       8.386   9.183  18.127  0.00  0.00    +0.000 C 
ENDBRANCH  23  24
ENDBRANCH  19  23
ENDBRANCH   1  19
TORSDOF 7
ENDMDL
MODEL 6
REMARK VINA RESULT:      -7.0      2.088      6.295
REMARK  Name = 
REMARK  9 active torsions:
REMARK  status: ('A' for Active; 'I' for Inactive)
REMARK    1  A    between atoms: C_1  and  C_2
REMARK    2  A    between atoms: C_2  and  C_3
REMARK    3  A    between atoms: C_3  and  N_4
REMARK    4  A    between atoms: N_4  and  C_5
REMARK    5  A    between atoms: N_4  and  C_8
REMARK    6  A    between atoms: C_5  and  C_6
REMARK    7  A    between atoms: C_6  and  C_7
REMARK    8  A    between atoms: C_15  and  C_16
REMARK    9  A    between atoms: C_16  and  C_18
REMARK                            x       y       z     vdW  Elec       q    Type
REMARK                         _______ _______ _______ _____ _____    ______ ____
ROOT
ATOM      1  C   UNL     1       5.765   5.201  18.324  0.00  0.00    +0.000 C 
ATOM      2  C   UNL     1       5.350   3.730  18.142  0.00  0.00    +0.000 C 
ATOM      3  C   UNL     1       4.594   3.216  19.364  0.00  0.00    +0.000 C 
ATOM      4  C   UNL     1       3.406   4.062  19.726  0.00  0.00    +0.000 A 
ATOM      5  C   UNL     1       2.346   3.467  20.427  0.00  0.00    +0.000 A 
ATOM      6  C   UNL     1       1.219   4.196  20.768  0.00  0.00    +0.000 A 
ATOM      7  C   UNL     1       1.146   5.548  20.442  0.00  0.00    +0.000 A 
ATOM      8  C   UNL     1       2.219   6.194  19.803  0.00  0.00    +0.000 A 
ATOM      9  C   UNL     1       3.359   5.436  19.413  0.00  0.00    +0.000 A 
ATOM     10  C   UNL     1       4.484   6.055  18.603  0.00  0.00    +0.000 C 
ENDROOT
BRANCH   8  11
ATOM     11  C   UNL     1       2.079   7.661  19.507  0.00  0.00    +0.000 C 
ATOM     12  O   UNL     1       2.578   8.143  18.493  0.00  0.00    +0.000 OA
BRANCH  11  13
ATOM     13  C   UNL     1       1.292   8.578  20.389  0.00  0.00    +0.000 A 
ATOM     14  C   UNL     1       1.481   8.492  21.775  0.00  0.00    +0.000 A 
ATOM     15  C   UNL     1       0.796   9.351  22.638  0.00  0.00    +0.000 A 
ATOM     16  C   UNL     1      -0.082  10.303  22.120  0.00  0.00    +0.000 A 
ATOM     17  C   UNL     1      -0.297  10.377  20.745  0.00  0.00    +0.000 A 
ATOM     18  C   UNL     1       0.373   9.506  19.878  0.00  0.00    +0.000 A 
ENDBRANCH  11  13
ENDBRANCH   8  11
BRANCH   1  19
ATOM     19  N   UNL     1       6.547   5.740  17.154  0.00  0.00    +0.000 NA
BRANCH  19  20
ATOM     20  C   UNL     1       5.952   5.307  15.869  0.00  0.00    +0.000 C 
BRANCH  20  22
ATOM     21  C   UNL     1       6.090   3.893  13.735  0.00  0.00    +0.000 C 
ATOM     22  C   UNL     1       6.855   4.575  14.859  0.00  0.00    +0.000 C 
ENDBRANCH  20  22
ENDBRANCH  19  20
BRANCH  19  23
ATOM     23  C   UNL     1       6.813   7.197  17.211  0.00  0.00    +0.000 C 
BRANCH  23  24
ATOM     24  C   UNL     1       7.985   7.640  18.103  0.00  0.00    +0.000 C 
ATOM     25  C   UNL     1       8.253   9.139  18.020  0.00  0.00    +0.000 C 
ENDBRANCH  23  24
ENDBRANCH  19  23
ENDBRANCH   1  19
TORSDOF 7
ENDMDL
MODEL 7
REMARK VINA RESULT:      -7.0      2.237      5.816
REMARK  Name = 
REMARK  9 active torsions:
REMARK  status: ('A' for Active; 'I' for Inactive)
REMARK    1  A    between atoms: C_1  and  C_2
REMARK    2  A    between atoms: C_2  and  C_3
REMARK    3  A    between atoms: C_3  and  N_4
REMARK    4  A    between atoms: N_4  and  C_5
REMARK    5  A    between atoms: N_4  and  C_8
REMARK    6  A    between atoms: C_5  and  C_6
REMARK    7  A    between atoms: C_6  and  C_7
REMARK    8  A    between atoms: C_15  and  C_16
REMARK    9  A    between atoms: C_16  and  C_18
REMARK                            x       y       z     vdW  Elec       q    Type
REMARK                         _______ _______ _______ _____ _____    ______ ____
ROOT
ATOM      1  C   UNL     1       5.271   4.282  17.674  0.00  0.00    +0.000 C 
ATOM      2  C   UNL     1       4.580   3.275  16.737  0.00  0.00    +0.000 C 
ATOM      3  C   UNL     1       3.722   2.289  17.525  0.00  0.00    +0.000 C 
ATOM      4  C   UNL     1       2.716   2.960  18.417  0.00  0.00    +0.000 A 
ATOM      5  C   UNL     1       1.551   2.258  18.762  0.00  0.00    +0.000 A 
ATOM      6  C   UNL     1       0.582   2.836  19.565  0.00  0.00    +0.000 A 
ATOM      7  C   UNL     1       0.778   4.120  20.067  0.00  0.00    +0.000 A 
ATOM      8  C   UNL     1       1.965   4.826  19.801  0.00  0.00    +0.000 A 
ATOM      9  C   UNL     1       2.942   4.250  18.939  0.00  0.00    +0.000 A 
ATOM     10  C   UNL     1       4.176   5.022  18.512  0.00  0.00    +0.000 C 
ENDROOT
BRANCH   8  11
ATOM     11  C   UNL     1       2.116   6.196  20.399  0.00  0.00    +0.000 C 
ATOM     12  O   UNL     1       2.482   6.331  21.565  0.00  0.00    +0.000 OA
BRANCH  11  13
ATOM     13  C   UNL     1       1.885   7.441  19.603  0.00  0.00    +0.000 A 
ATOM     14  C   UNL     1       1.256   8.525  20.231  0.00  0.00    +0.000 A 
ATOM     15  C   UNL     1       1.049   9.721  19.540  0.00  0.00    +0.000 A 
ATOM     16  C   UNL     1       1.472   9.842  18.216  0.00  0.00    +0.000 A 
ATOM     17  C   UNL     1       2.073   8.761  17.575  0.00  0.00    +0.000 A 
ATOM     18  C   UNL     1       2.264   7.554  18.258  0.00  0.00    +0.000 A 
ENDBRANCH  11  13
ENDBRANCH   8  11
BRANCH   1  19
ATOM     19  N   UNL     1       6.158   5.254  16.940  0.00  0.00    +0.000 NA
BRANCH  19  20
ATOM     20  C   UNL     1       5.806   5.321  15.504  0.00  0.00    +0.000 C 
BRANCH  20  22
ATOM     21  C   UNL     1       6.226   3.887  13.421  0.00  0.00    +0.000 C 
ATOM     22  C   UNL     1       6.829   4.798  14.478  0.00  0.00    +0.000 C 
ENDBRANCH  20  22
ENDBRANCH  19  20
BRANCH  19  23
ATOM     23  C   UNL     1       6.266   6.589  17.576  0.00  0.00    +0.000 C 
BRANCH  23  24
ATOM     24  C   UNL     1       7.682   7.043  17.968  0.00  0.00    +0.000 C 
ATOM     25  C   UNL     1       7.910   8.532  17.730  0.00  0.00    +0.000 C 
ENDBRANCH  23  24
ENDBRANCH  19  23
ENDBRANCH   1  19
TORSDOF 7
ENDMDL
MODEL 8
REMARK VINA RESULT:      -6.8      0.602      2.024
REMARK  Name = 
REMARK  9 active torsions:
REMARK  status: ('A' for Active; 'I' for Inactive)
REMARK    1  A    between atoms: C_1  and  C_2
REMARK    2  A    between atoms: C_2  and  C_3
REMARK    3  A    between atoms: C_3  and  N_4
REMARK    4  A    between atoms: N_4  and  C_5
REMARK    5  A    between atoms: N_4  and  C_8
REMARK    6  A    between atoms: C_5  and  C_6
REMARK    7  A    between atoms: C_6  and  C_7
REMARK    8  A    between atoms: C_15  and  C_16
REMARK    9  A    between atoms: C_16  and  C_18
REMARK                            x       y       z     vdW  Elec       q    Type
REMARK                         _______ _______ _______ _____ _____    ______ ____
ROOT
ATOM      1  C   UNL     1       1.439   6.178  19.230  0.00  0.00    +0.000 C 
ATOM      2  C   UNL     1       1.198   5.265  20.447  0.00  0.00    +0.000 C 
ATOM      3  C   UNL     1       1.036   3.809  20.019  0.00  0.00    +0.000 C 
ATOM      4  C   UNL     1       2.184   3.302  19.193  0.00  0.00    +0.000 A 
ATOM      5  C   UNL     1       2.452   1.924  19.190  0.00  0.00    +0.000 A 
ATOM      6  C   UNL     1       3.510   1.406  18.462  0.00  0.00    +0.000 A 
ATOM      7  C   UNL     1       4.303   2.256  17.695  0.00  0.00    +0.000 A 
ATOM      8  C   UNL     1       4.021   3.631  17.618  0.00  0.00    +0.000 A 
ATOM      9  C   UNL     1       2.961   4.172  18.400  0.00  0.00    +0.000 A 
ATOM     10  C   UNL     1       2.700   5.666  18.458  0.00  0.00    +0.000 C 
ENDROOT
BRANCH   8  11
ATOM     11  C   UNL     1       4.904   4.481  16.749  0.00  0.00    +0.000 C 
ATOM     12  O   UNL     1       4.763   4.481  15.528  0.00  0.00    +0.000 OA
BRANCH  11  13
ATOM     13  C   UNL     1       5.942   5.394  17.321  0.00  0.00    +0.000 A 
ATOM     14  C   UNL     1       6.745   4.916  18.366  0.00  0.00    +0.000 A 
ATOM     15  C   UNL     1       7.751   5.718  18.909  0.00  0.00    +0.000 A 
ATOM     16  C   UNL     1       7.963   7.003  18.410  0.00  0.00    +0.000 A 
ATOM     17  C   UNL     1       7.151   7.496  17.390  0.00  0.00    +0.000 A 
ATOM     18  C   UNL     1       6.129   6.703  16.856  0.00  0.00    +0.000 A 
ENDBRANCH  11  13
ENDBRANCH   8  11
BRANCH   1  19
ATOM     19  N   UNL     1       1.569   7.631  19.603  0.00  0.00    +0.000 NA
BRANCH  19  20
ATOM     20  C   UNL     1       1.864   7.789  21.045  0.00  0.00    +0.000 C 
BRANCH  20  22
ATOM     21  C   UNL     1      -0.276   8.853  21.974  0.00  0.00    +0.000 C 
ATOM     22  C   UNL     1       1.229   8.976  21.793  0.00  0.00    +0.000 C 
ENDBRANCH  20  22
ENDBRANCH  19  20
BRANCH  19  23
ATOM     23  C   UNL     1       2.483   8.410  18.734  0.00  0.00    +0.000 C 
BRANCH  23  24
ATOM     24  C   UNL     1       1.822   9.426  17.788  0.00  0.00    +0.000 C 
ATOM     25  C   UNL     1       1.413  10.712  18.498  0.00  0.00    +0.000 C 
ENDBRANCH  23  24
ENDBRANCH  19  23
ENDBRANCH   1  19
TORSDOF 7
ENDMDL
MODEL 9
REMARK VINA RESULT:      -6.8      2.100      6.466
REMARK  Name = 
REMARK  9 active torsions:
REMARK  status: ('A' for Active; 'I' for Inactive)
REMARK    1  A    between atoms: C_1  and  C_2
REMARK    2  A    between atoms: C_2  and  C_3
REMARK    3  A    between atoms: C_3  and  N_4
REMARK    4  A    between atoms: N_4  and  C_5
REMARK    5  A    between atoms: N_4  and  C_8
REMARK    6  A    between atoms: C_5  and  C_6
REMARK    7  A    between atoms: C_6  and  C_7
REMARK    8  A    between atoms: C_15  and  C_16
REMARK    9  A    between atoms: C_16  and  C_18
REMARK                            x       y       z     vdW  Elec       q    Type
REMARK                         _______ _______ _______ _____ _____    ______ ____
ROOT
ATOM      1  C   UNL     1       5.735   5.353  18.174  0.00  0.00    +0.000 C 
ATOM      2  C   UNL     1       5.351   3.869  18.027  0.00  0.00    +0.000 C 
ATOM      3  C   UNL     1       4.662   3.351  19.286  0.00  0.00    +0.000 C 
ATOM      4  C   UNL     1       3.469   4.170  19.690  0.00  0.00    +0.000 A 
ATOM      5  C   UNL     1       2.456   3.556  20.443  0.00  0.00    +0.000 A 
ATOM      6  C   UNL     1       1.326   4.260  20.824  0.00  0.00    +0.000 A 
ATOM      7  C   UNL     1       1.204   5.605  20.487  0.00  0.00    +0.000 A 
ATOM      8  C   UNL     1       2.230   6.272  19.794  0.00  0.00    +0.000 A 
ATOM      9  C   UNL     1       3.372   5.539  19.364  0.00  0.00    +0.000 A 
ATOM     10  C   UNL     1       4.445   6.176  18.499  0.00  0.00    +0.000 C 
ENDROOT
BRANCH   8  11
ATOM     11  C   UNL     1       2.038   7.730  19.489  0.00  0.00    +0.000 C 
ATOM     12  O   UNL     1       2.505   8.219  18.462  0.00  0.00    +0.000 OA
BRANCH  11  13
ATOM     13  C   UNL     1       1.238   8.630  20.376  0.00  0.00    +0.000 A 
ATOM     14  C   UNL     1       1.398   8.510  21.763  0.00  0.00    +0.000 A 
ATOM     15  C   UNL     1       0.699   9.351  22.632  0.00  0.00    +0.000 A 
ATOM     16  C   UNL     1      -0.164  10.320  22.119  0.00  0.00    +0.000 A 
ATOM     17  C   UNL     1      -0.350  10.428  20.742  0.00  0.00    +0.000 A 
ATOM     18  C   UNL     1       0.334   9.574  19.869  0.00  0.00    +0.000 A 
ENDBRANCH  11  13
ENDBRANCH   8  11
BRANCH   1  19
ATOM     19  N   UNL     1       6.450   5.898  16.966  0.00  0.00    +0.000 NA
BRANCH  19  20
ATOM     20  C   UNL     1       7.608   6.730  17.361  0.00  0.00    +0.000 C 
BRANCH  20  22
ATOM     21  C   UNL     1       8.525   8.932  18.301  0.00  0.00    +0.000 C 
ATOM     22  C   UNL     1       7.380   8.237  17.582  0.00  0.00    +0.000 C 
ENDBRANCH  20  22
ENDBRANCH  19  20
BRANCH  19  23
ATOM     23  C   UNL     1       6.787   4.882  15.940  0.00  0.00    +0.000 C 
BRANCH  23  24
ATOM     24  C   UNL     1       5.871   4.832  14.706  0.00  0.00    +0.000 C 
ATOM     25  C   UNL     1       6.439   3.967  13.586  0.00  0.00    +0.000 C 
ENDBRANCH  23  24
ENDBRANCH  19  23
ENDBRANCH   1  19
TORSDOF 7
ENDMDL
