MODEL 1
REMARK VINA RESULT:      -8.6      0.000      0.000
REMARK  Name = 
REMARK  4 active torsions:
REMARK  status: ('A' for Active; 'I' for Inactive)
REMARK    1  A    between atoms: C_6  and  C_7
REMARK    2  A    between atoms: C_11  and  C_12
REMARK    3  A    between atoms: N_14  and  C_15
REMARK    4  A    between atoms: C_15  and  C_16
REMARK                            x       y       z     vdW  Elec       q    Type
REMARK                         _______ _______ _______ _____ _____    ______ ____
ROOT
ATOM      1  C   UNL     1       2.096   7.559  18.926  0.00  0.00    +0.000 A 
ATOM      2  C   UNL     1       1.912   8.711  18.189  0.00  0.00    +0.000 A 
ATOM      3  N   UNL     1       1.339   9.607  19.050  0.00  0.00    +0.000 N 
ATOM      4  C   UNL     1       1.209   8.985  20.260  0.00  0.00    +0.000 A 
ATOM      5  N   UNL     1       1.666   7.753  20.224  0.00  0.00    +0.000 NA
ENDROOT
BRANCH   1  10
ATOM      6  C   UNL     1       4.507   4.920  17.823  0.00  0.00    +0.000 A 
ATOM      7  C   UNL     1       3.598   3.926  17.456  0.00  0.00    +0.000 A 
ATOM      8  C   UNL     1       2.246   4.176  17.612  0.00  0.00    +0.000 A 
ATOM      9  N   UNL     1       1.745   5.335  18.085  0.00  0.00    +0.000 NA
ATOM     10  C   UNL     1       2.637   6.301  18.426  0.00  0.00    +0.000 A 
ATOM     11  C   UNL     1       4.014   6.128  18.318  0.00  0.00    +0.000 A 
BRANCH   6  17
ATOM     12  F   UNL     1       6.145   4.349  15.282  0.00  0.00    +0.000 F 
ATOM     13  C   UNL     1       6.609   4.425  16.498  0.00  0.00    +0.000 A 
ATOM     14  N   UNL     1       7.904   4.282  16.880  0.00  0.00    +0.000 N 
ATOM     15  N   UNL     1       8.041   4.456  18.206  0.00  0.00    +0.000 NA
ATOM     16  N   UNL     1       6.832   4.714  18.697  0.00  0.00    +0.000 NA
ATOM     17  C   UNL     1       5.926   4.685  17.661  0.00  0.00    +0.000 A 
ATOM     18  H   UNL     1       8.721   4.081  16.317  0.00  0.00    +0.000 HD
ENDBRANCH   6  17
ENDBRANCH   1  10
BRANCH   3  19
ATOM     19  C   UNL     1       0.797  10.908  18.698  0.00  0.00    +0.000 C 
BRANCH  19  20
ATOM     20  C   UNL     1      -0.694  10.878  18.452  0.00  0.00    +0.000 A 
ATOM     21  C   UNL     1      -1.196   9.983  17.487  0.00  0.00    +0.000 A 
ATOM     22  C   UNL     1      -2.565   9.886  17.233  0.00  0.00    +0.000 A 
ATOM     23  C   UNL     1      -3.458  10.693  17.931  0.00  0.00    +0.000 A 
ATOM     24  C   UNL     1      -2.987  11.595  18.887  0.00  0.00    +0.000 A 
ATOM     25 CL   UNL     1      -4.167  12.553  19.716  0.00  0.00    +0.000 Cl
ATOM     26  C   UNL     1      -1.609  11.692  19.154  0.00  0.00    +0.000 A 
ATOM     27 CL   UNL     1      -1.042  12.789  20.374  0.00  0.00    +0.000 Cl
ENDBRANCH  19  20
ENDBRANCH   3  19
TORSDOF 4
ENDMDL
MODEL 2
REMARK VINA RESULT:      -8.6      1.215      1.254
REMARK  Name = 
REMARK  4 active torsions:
REMARK  status: ('A' for Active; 'I' for Inactive)
REMARK    1  A    between atoms: C_6  and  C_7
REMARK    2  A    between atoms: C_11  and  C_12
REMARK    3  A    between atoms: N_14  and  C_15
REMARK    4  A    between atoms: C_15  and  C_16
REMARK                            x       y       z     vdW  Elec       q    Type
REMARK                         _______ _______ _______ _____ _____    ______ ____
ROOT
ATOM      1  C   UNL     1       1.711   7.794  20.017  0.00  0.00    +0.000 A 
ATOM      2  C   UNL     1       1.670   8.707  18.983  0.00  0.00    +0.000 A 
ATOM      3  N   UNL     1       0.965   9.775  19.468  0.00  0.00    +0.000 N 
ATOM      4  C   UNL     1       0.622   9.485  20.759  0.00  0.00    +0.000 A 
ATOM      5  N   UNL     1       1.065   8.304  21.126  0.00  0.00    +0.000 NA
ENDROOT
BRANCH   1  10
ATOM      6  C   UNL     1       4.077   5.000  19.247  0.00  0.00    +0.000 A 
ATOM      7  C   UNL     1       3.399   3.953  19.875  0.00  0.00    +0.000 A 
ATOM      8  C   UNL     1       2.214   4.233  20.531  0.00  0.00    +0.000 A 
ATOM      9  N   UNL     1       1.658   5.460  20.590  0.00  0.00    +0.000 NA
ATOM     10  C   UNL     1       2.318   6.469  19.964  0.00  0.00    +0.000 A 
ATOM     11  C   UNL     1       3.524   6.280  19.296  0.00  0.00    +0.000 A 
BRANCH   6  17
ATOM     12  F   UNL     1       4.559   4.135  16.334  0.00  0.00    +0.000 F 
ATOM     13  C   UNL     1       5.474   4.337  17.240  0.00  0.00    +0.000 A 
ATOM     14  N   UNL     1       6.816   4.219  17.073  0.00  0.00    +0.000 N 
ATOM     15  N   UNL     1       7.475   4.535  18.203  0.00  0.00    +0.000 NA
ATOM     16  N   UNL     1       6.562   4.861  19.113  0.00  0.00    +0.000 NA
ATOM     17  C   UNL     1       5.315   4.731  18.546  0.00  0.00    +0.000 A 
ATOM     18  H   UNL     1       7.340   3.948  16.251  0.00  0.00    +0.000 HD
ENDBRANCH   6  17
ENDBRANCH   1  10
BRANCH   3  19
ATOM     19  C   UNL     1       0.506  10.919  18.700  0.00  0.00    +0.000 C 
BRANCH  19  20
ATOM     20  C   UNL     1      -0.971  10.862  18.384  0.00  0.00    +0.000 A 
ATOM     21  C   UNL     1      -1.415   9.934  17.421  0.00  0.00    +0.000 A 
ATOM     22  C   UNL     1      -2.768   9.811  17.104  0.00  0.00    +0.000 A 
ATOM     23  C   UNL     1      -3.704  10.624  17.736  0.00  0.00    +0.000 A 
ATOM     24  C   UNL     1      -3.291  11.558  18.688  0.00  0.00    +0.000 A 
ATOM     25 CL   UNL     1      -4.522  12.521  19.432  0.00  0.00    +0.000 Cl
ATOM     26  C   UNL     1      -1.929  11.681  19.018  0.00  0.00    +0.000 A 
ATOM     27 CL   UNL     1      -1.435  12.819  20.233  0.00  0.00    +0.000 Cl
ENDBRANCH  19  20
ENDBRANCH   3  19
TORSDOF 4
ENDMDL
MODEL 3
REMARK VINA RESULT:      -8.6      1.187      1.366
REMARK  Name = 
REMARK  4 active torsions:
REMARK  status: ('A' for Active; 'I' for Inactive)
REMARK    1  A    between atoms: C_6  and  C_7
REMARK    2  A    between atoms: C_11  and  C_12
REMARK    3  A    between atoms: N_14  and  C_15
REMARK    4  A    between atoms: C_15  and  C_16
REMARK                            x       y       z     vdW  Elec       q    Type
REMARK                         _______ _______ _______ _____ _____    ______ ____
ROOT
ATOM      1  C   UNL     1       2.123   7.753  19.077  0.00  0.00    +0.000 A 
ATOM      2  C   UNL     1       1.943   8.865  18.282  0.00  0.00    +0.000 A 
ATOM      3  N   UNL     1       1.234   9.750  19.047  0.00  0.00    +0.000 N 
ATOM      4  C   UNL     1       1.022   9.160  20.262  0.00  0.00    +0.000 A 
ATOM      5  N   UNL     1       1.554   7.960  20.318  0.00  0.00    +0.000 NA
ENDROOT
BRANCH   1  10
ATOM      6  C   UNL     1       4.479   5.357  17.431  0.00  0.00    +0.000 A 
ATOM      7  C   UNL     1       3.981   4.161  17.951  0.00  0.00    +0.000 A 
ATOM      8  C   UNL     1       2.913   4.215  18.828  0.00  0.00    +0.000 A 
ATOM      9  N   UNL     1       2.305   5.359  19.204  0.00  0.00    +0.000 NA
ATOM     10  C   UNL     1       2.787   6.516  18.681  0.00  0.00    +0.000 A 
ATOM     11  C   UNL     1       3.869   6.555  17.806  0.00  0.00    +0.000 A 
BRANCH   6  17
ATOM     12  F   UNL     1       7.312   4.207  17.770  0.00  0.00    +0.000 F 
ATOM     13  C   UNL     1       6.844   4.805  16.711  0.00  0.00    +0.000 A 
ATOM     14  N   UNL     1       7.508   5.024  15.547  0.00  0.00    +0.000 N 
ATOM     15  N   UNL     1       6.718   5.636  14.647  0.00  0.00    +0.000 NA
ATOM     16  N   UNL     1       5.533   5.818  15.221  0.00  0.00    +0.000 NA
ATOM     17  C   UNL     1       5.591   5.326  16.504  0.00  0.00    +0.000 A 
ATOM     18  H   UNL     1       8.460   4.789  15.296  0.00  0.00    +0.000 HD
ENDBRANCH   6  17
ENDBRANCH   1  10
BRANCH   3  19
ATOM     19  C   UNL     1       0.651  11.001  18.594  0.00  0.00    +0.000 C 
BRANCH  19  20
ATOM     20  C   UNL     1      -0.838  10.905  18.355  0.00  0.00    +0.000 A 
ATOM     21  C   UNL     1      -1.307   9.957  17.423  0.00  0.00    +0.000 A 
ATOM     22  C   UNL     1      -2.672   9.799  17.177  0.00  0.00    +0.000 A 
ATOM     23  C   UNL     1      -3.594  10.594  17.849  0.00  0.00    +0.000 A 
ATOM     24  C   UNL     1      -3.157  11.547  18.771  0.00  0.00    +0.000 A 
ATOM     25 CL   UNL     1      -4.371  12.488  19.569  0.00  0.00    +0.000 Cl
ATOM     26  C   UNL     1      -1.783  11.707  19.030  0.00  0.00    +0.000 A 
ATOM     27 CL   UNL     1      -1.256  12.867  20.209  0.00  0.00    +0.000 Cl
ENDBRANCH  19  20
ENDBRANCH   3  19
TORSDOF 4
ENDMDL
MODEL 4
REMARK VINA RESULT:      -8.5      1.066      1.152
REMARK  Name = 
REMARK  4 active torsions:
REMARK  status: ('A' for Active; 'I' for Inactive)
REMARK    1  A    between atoms: C_6  and  C_7
REMARK    2  A    between atoms: C_11  and  C_12
REMARK    3  A    between atoms: N_14  and  C_15
REMARK    4  A    between atoms: C_15  and  C_16
REMARK                            x       y       z     vdW  Elec       q    Type
REMARK                         _______ _______ _______ _____ _____    ______ ____
ROOT
ATOM      1  C   UNL     1       2.007   7.823  19.283  0.00  0.00    +0.000 A 
ATOM      2  C   UNL     1       1.824   8.902  18.443  0.00  0.00    +0.000 A 
ATOM      3  N   UNL     1       1.122   9.820  19.177  0.00  0.00    +0.000 N 
ATOM      4  C   UNL     1       0.919   9.281  20.417  0.00  0.00    +0.000 A 
ATOM      5  N   UNL     1       1.450   8.083  20.519  0.00  0.00    +0.000 NA
ENDROOT
BRANCH   1  10
ATOM      6  C   UNL     1       4.369   5.361  17.747  0.00  0.00    +0.000 A 
ATOM      7  C   UNL     1       3.849   4.184  18.290  0.00  0.00    +0.000 A 
ATOM      8  C   UNL     1       2.766   4.273  19.146  0.00  0.00    +0.000 A 
ATOM      9  N   UNL     1       2.163   5.432  19.478  0.00  0.00    +0.000 NA
ATOM     10  C   UNL     1       2.666   6.570  18.933  0.00  0.00    +0.000 A 
ATOM     11  C   UNL     1       3.764   6.575  18.078  0.00  0.00    +0.000 A 
BRANCH   6  17
ATOM     12  F   UNL     1       4.856   6.803  15.074  0.00  0.00    +0.000 F 
ATOM     13  C   UNL     1       5.661   5.955  15.651  0.00  0.00    +0.000 A 
ATOM     14  N   UNL     1       6.875   5.554  15.194  0.00  0.00    +0.000 N 
ATOM     15  N   UNL     1       7.457   4.698  16.052  0.00  0.00    +0.000 NA
ATOM     16  N   UNL     1       6.623   4.537  17.075  0.00  0.00    +0.000 NA
ATOM     17  C   UNL     1       5.497   5.293  16.842  0.00  0.00    +0.000 A 
ATOM     18  H   UNL     1       7.360   5.814  14.344  0.00  0.00    +0.000 HD
ENDBRANCH   6  17
ENDBRANCH   1  10
BRANCH   3  19
ATOM     19  C   UNL     1       0.537  11.052  18.677  0.00  0.00    +0.000 C 
BRANCH  19  20
ATOM     20  C   UNL     1      -0.939  10.926  18.380  0.00  0.00    +0.000 A 
ATOM     21  C   UNL     1      -1.352   9.971  17.429  0.00  0.00    +0.000 A 
ATOM     22  C   UNL     1      -2.702   9.785  17.130  0.00  0.00    +0.000 A 
ATOM     23  C   UNL     1      -3.666  10.560  17.766  0.00  0.00    +0.000 A 
ATOM     24  C   UNL     1      -3.284  11.520  18.706  0.00  0.00    +0.000 A 
ATOM     25 CL   UNL     1      -4.548  12.433  19.458  0.00  0.00    +0.000 Cl
ATOM     26  C   UNL     1      -1.925  11.707  19.019  0.00  0.00    +0.000 A 
ATOM     27 CL   UNL     1      -1.469  12.875  20.219  0.00  0.00    +0.000 Cl
ENDBRANCH  19  20
ENDBRANCH   3  19
TORSDOF 4
ENDMDL
MODEL 5
REMARK VINA RESULT:      -8.4      4.582      9.105
REMARK  Name = 
REMARK  4 active torsions:
REMARK  status: ('A' for Active; 'I' for Inactive)
REMARK    1  A    between atoms: C_6  and  C_7
REMARK    2  A    between atoms: C_11  and  C_12
REMARK    3  A    between atoms: N_14  and  C_15
REMARK    4  A    between atoms: C_15  and  C_16
REMARK                            x       y       z     vdW  Elec       q    Type
REMARK                         _______ _______ _______ _____ _____    ______ ____
ROOT
ATOM      1  C   UNL     1       1.209   9.131  18.849  0.00  0.00    +0.000 A 
ATOM      2  C   UNL     1       1.825   8.407  17.849  0.00  0.00    +0.000 A 
ATOM      3  N   UNL     1       2.486   7.393  18.486  0.00  0.00    +0.000 N 
ATOM      4  C   UNL     1       2.244   7.526  19.825  0.00  0.00    +0.000 A 
ATOM      5  N   UNL     1       1.469   8.556  20.078  0.00  0.00    +0.000 NA
ENDROOT
BRANCH   1  10
ATOM      6  C   UNL     1      -1.608  11.436  17.988  0.00  0.00    +0.000 A 
ATOM      7  C   UNL     1      -1.011  12.654  18.319  0.00  0.00    +0.000 A 
ATOM      8  C   UNL     1       0.277  12.642  18.826  0.00  0.00    +0.000 A 
ATOM      9  N   UNL     1       1.004  11.521  19.006  0.00  0.00    +0.000 NA
ATOM     10  C   UNL     1       0.419  10.342  18.667  0.00  0.00    +0.000 A 
ATOM     11  C   UNL     1      -0.877  10.261  18.167  0.00  0.00    +0.000 A 
BRANCH   6  17
ATOM     12  F   UNL     1      -2.610  10.667  15.183  0.00  0.00    +0.000 F 
ATOM     13  C   UNL     1      -3.345  11.078  16.178  0.00  0.00    +0.000 A 
ATOM     14  N   UNL     1      -4.693  11.232  16.178  0.00  0.00    +0.000 N 
ATOM     15  N   UNL     1      -5.135  11.638  17.381  0.00  0.00    +0.000 NA
ATOM     16  N   UNL     1      -4.073  11.750  18.174  0.00  0.00    +0.000 NA
ATOM     17  C   UNL     1      -2.951  11.423  17.448  0.00  0.00    +0.000 A 
ATOM     18  H   UNL     1      -5.358  11.080  15.429  0.00  0.00    +0.000 HD
ENDBRANCH   6  17
ENDBRANCH   1  10
BRANCH   3  19
ATOM     19  C   UNL     1       3.422   6.464  17.878  0.00  0.00    +0.000 C 
BRANCH  19  20
ATOM     20  C   UNL     1       3.140   5.023  18.237  0.00  0.00    +0.000 A 
ATOM     21  C   UNL     1       1.931   4.448  17.800  0.00  0.00    +0.000 A 
ATOM     22  C   UNL     1       1.624   3.114  18.074  0.00  0.00    +0.000 A 
ATOM     23  C   UNL     1       2.514   2.333  18.803  0.00  0.00    +0.000 A 
ATOM     24  C   UNL     1       3.717   2.881  19.257  0.00  0.00    +0.000 A 
ATOM     25 CL   UNL     1       4.771   1.837  20.148  0.00  0.00    +0.000 Cl
ATOM     26  C   UNL     1       4.036   4.222  18.977  0.00  0.00    +0.000 A 
ATOM     27 CL   UNL     1       5.552   4.877  19.512  0.00  0.00    +0.000 Cl
ENDBRANCH  19  20
ENDBRANCH   3  19
TORSDOF 4
ENDMDL
MODEL 6
REMARK VINA RESULT:      -8.3      2.112      3.116
REMARK  Name = 
REMARK  4 active torsions:
REMARK  status: ('A' for Active; 'I' for Inactive)
REMARK    1  A    between atoms: C_6  and  C_7
REMARK    2  A    between atoms: C_11  and  C_12
REMARK    3  A    between atoms: N_14  and  C_15
REMARK    4  A    between atoms: C_15  and  C_16
REMARK                            x       y       z     vdW  Elec       q    Type
REMARK                         _______ _______ _______ _____ _____    ______ ____
ROOT
ATOM      1  C   UNL     1       2.467   7.238  18.666  0.00  0.00    +0.000 A 
ATOM      2  C   UNL     1       2.036   8.330  17.942  0.00  0.00    +0.000 A 
ATOM      3  N   UNL     1       1.432   9.156  18.851  0.00  0.00    +0.000 N 
ATOM      4  C   UNL     1       1.527   8.554  20.075  0.00  0.00    +0.000 A 
ATOM      5  N   UNL     1       2.155   7.402  20.002  0.00  0.00    +0.000 NA
ENDROOT
BRANCH   1  10
ATOM      6  C   UNL     1       4.788   5.061  16.699  0.00  0.00    +0.000 A 
ATOM      7  C   UNL     1       4.328   3.810  17.115  0.00  0.00    +0.000 A 
ATOM      8  C   UNL     1       3.294   3.758  18.034  0.00  0.00    +0.000 A 
ATOM      9  N   UNL     1       2.687   4.848  18.545  0.00  0.00    +0.000 NA
ATOM     10  C   UNL     1       3.131   6.060  18.123  0.00  0.00    +0.000 A 
ATOM     11  C   UNL     1       4.177   6.205  17.216  0.00  0.00    +0.000 A 
BRANCH   6  17
ATOM     12  F   UNL     1       4.887   4.146  13.764  0.00  0.00    +0.000 F 
ATOM     13  C   UNL     1       5.857   4.707  14.430  0.00  0.00    +0.000 A 
ATOM     14  N   UNL     1       7.093   5.011  13.957  0.00  0.00    +0.000 N 
ATOM     15  N   UNL     1       7.837   5.618  14.899  0.00  0.00    +0.000 NA
ATOM     16  N   UNL     1       7.087   5.713  15.993  0.00  0.00    +0.000 NA
ATOM     17  C   UNL     1       5.862   5.142  15.733  0.00  0.00    +0.000 A 
ATOM     18  H   UNL     1       7.486   4.851  13.038  0.00  0.00    +0.000 HD
ENDBRANCH   6  17
ENDBRANCH   1  10
BRANCH   3  19
ATOM     19  C   UNL     1       0.668  10.354  18.547  0.00  0.00    +0.000 C 
BRANCH  19  20
ATOM     20  C   UNL     1       1.393  11.626  18.921  0.00  0.00    +0.000 A 
ATOM     21  C   UNL     1       2.375  12.121  18.040  0.00  0.00    +0.000 A 
ATOM     22  C   UNL     1       3.061  13.305  18.313  0.00  0.00    +0.000 A 
ATOM     23  C   UNL     1       2.788  14.011  19.480  0.00  0.00    +0.000 A 
ATOM     24  C   UNL     1       1.825  13.539  20.375  0.00  0.00    +0.000 A 
ATOM     25 CL   UNL     1       1.540  14.484  21.797  0.00  0.00    +0.000 Cl
ATOM     26  C   UNL     1       1.124  12.349  20.102  0.00  0.00    +0.000 A 
ATOM     27 CL   UNL     1      -0.097  11.796  21.204  0.00  0.00    +0.000 Cl
ENDBRANCH  19  20
ENDBRANCH   3  19
TORSDOF 4
ENDMDL
MODEL 7
REMARK VINA RESULT:      -8.2      0.894      1.043
REMARK  Name = 
REMARK  4 active torsions:
REMARK  status: ('A' for Active; 'I' for Inactive)
REMARK    1  A    between atoms: C_6  and  C_7
REMARK    2  A    between atoms: C_11  and  C_12
REMARK    3  A    between atoms: N_14  and  C_15
REMARK    4  A    between atoms: C_15  and  C_16
REMARK                            x       y       z     vdW  Elec       q    Type
REMARK                         _______ _______ _______ _____ _____    ______ ____
ROOT
ATOM      1  C   UNL     1       2.203   7.264  18.731  0.00  0.00    +0.000 A 
ATOM      2  C   UNL     1       2.130   8.471  18.066  0.00  0.00    +0.000 A 
ATOM      3  N   UNL     1       1.575   9.346  18.961  0.00  0.00    +0.000 N 
ATOM      4  C   UNL     1       1.347   8.656  20.119  0.00  0.00    +0.000 A 
ATOM      5  N   UNL     1       1.724   7.402  20.019  0.00  0.00    +0.000 NA
ENDROOT
BRANCH   1  10
ATOM      6  C   UNL     1       4.342   4.753  16.966  0.00  0.00    +0.000 A 
ATOM      7  C   UNL     1       3.532   3.625  17.115  0.00  0.00    +0.000 A 
ATOM      8  C   UNL     1       2.340   3.754  17.805  0.00  0.00    +0.000 A 
ATOM      9  N   UNL     1       1.898   4.913  18.334  0.00  0.00    +0.000 NA
ATOM     10  C   UNL     1       2.686   6.008  18.170  0.00  0.00    +0.000 A 
ATOM     11  C   UNL     1       3.908   5.964  17.506  0.00  0.00    +0.000 A 
BRANCH   6  17
ATOM     12  F   UNL     1       4.859   4.311  13.965  0.00  0.00    +0.000 F 
ATOM     13  C   UNL     1       5.765   4.438  14.894  0.00  0.00    +0.000 A 
ATOM     14  N   UNL     1       7.111   4.415  14.718  0.00  0.00    +0.000 N 
ATOM     15  N   UNL     1       7.755   4.612  15.882  0.00  0.00    +0.000 NA
ATOM     16  N   UNL     1       6.830   4.764  16.824  0.00  0.00    +0.000 NA
ATOM     17  C   UNL     1       5.590   4.645  16.240  0.00  0.00    +0.000 A 
ATOM     18  H   UNL     1       7.646   4.283  13.869  0.00  0.00    +0.000 HD
ENDBRANCH   6  17
ENDBRANCH   1  10
BRANCH   3  19
ATOM     19  C   UNL     1       1.135  10.701  18.675  0.00  0.00    +0.000 C 
BRANCH  19  20
ATOM     20  C   UNL     1      -0.365  10.815  18.531  0.00  0.00    +0.000 A 
ATOM     21  C   UNL     1      -1.012   9.998  17.583  0.00  0.00    +0.000 A 
ATOM     22  C   UNL     1      -2.398  10.036  17.422  0.00  0.00    +0.000 A 
ATOM     23  C   UNL     1      -3.163  10.901  18.197  0.00  0.00    +0.000 A 
ATOM     24  C   UNL     1      -2.547  11.728  19.139  0.00  0.00    +0.000 A 
ATOM     25 CL   UNL     1      -3.574  12.767  20.067  0.00  0.00    +0.000 Cl
ATOM     26  C   UNL     1      -1.151  11.690  19.312  0.00  0.00    +0.000 A 
ATOM     27 CL   UNL     1      -0.404  12.694  20.514  0.00  0.00    +0.000 Cl
ENDBRANCH  19  20
ENDBRANCH   3  19
TORSDOF 4
ENDMDL
MODEL 8
REMARK VINA RESULT:      -8.2      1.839      2.257
REMARK  Name = 
REMARK  4 active torsions:
REMARK  status: ('A' for Active; 'I' for Inactive)
REMARK    1  A    between atoms: C_6  and  C_7
REMARK    2  A    between atoms: C_11  and  C_12
REMARK    3  A    between atoms: N_14  and  C_15
REMARK    4  A    between atoms: C_15  and  C_16
REMARK                            x       y       z     vdW  Elec       q    Type
REMARK                         _______ _______ _______ _____ _____    ______ ____
ROOT
ATOM      1  C   UNL     1       2.265   8.213  18.706  0.00  0.00    +0.000 A 
ATOM      2  C   UNL     1       1.941   9.426  18.134  0.00  0.00    +0.000 A 
ATOM      3  N   UNL     1       1.077  10.024  19.011  0.00  0.00    +0.000 N 
ATOM      4  C   UNL     1       0.920   9.175  20.072  0.00  0.00    +0.000 A 
ATOM      5  N   UNL     1       1.631   8.080  19.926  0.00  0.00    +0.000 NA
ENDROOT
BRANCH   1  10
ATOM      6  C   UNL     1       3.999   4.956  18.088  0.00  0.00    +0.000 A 
ATOM      7  C   UNL     1       4.783   5.325  16.992  0.00  0.00    +0.000 A 
ATOM      8  C   UNL     1       4.679   6.617  16.510  0.00  0.00    +0.000 A 
ATOM      9  N   UNL     1       3.874   7.558  17.045  0.00  0.00    +0.000 NA
ATOM     10  C   UNL     1       3.127   7.194  18.120  0.00  0.00    +0.000 A 
ATOM     11  C   UNL     1       3.156   5.911  18.658  0.00  0.00    +0.000 A 
BRANCH   6  17
ATOM     12  F   UNL     1       2.606   2.365  17.187  0.00  0.00    +0.000 F 
ATOM     13  C   UNL     1       3.442   2.487  18.180  0.00  0.00    +0.000 A 
ATOM     14  N   UNL     1       3.873   1.494  19.000  0.00  0.00    +0.000 N 
ATOM     15  N   UNL     1       4.761   1.957  19.897  0.00  0.00    +0.000 NA
ATOM     16  N   UNL     1       4.914   3.258  19.665  0.00  0.00    +0.000 NA
ATOM     17  C   UNL     1       4.097   3.612  18.616  0.00  0.00    +0.000 A 
ATOM     18  H   UNL     1       3.623   0.513  19.007  0.00  0.00    +0.000 HD
ENDBRANCH   6  17
ENDBRANCH   1  10
BRANCH   3  19
ATOM     19  C   UNL     1       0.321  11.242  18.775  0.00  0.00    +0.000 C 
BRANCH  19  20
ATOM     20  C   UNL     1      -1.108  10.978  18.361  0.00  0.00    +0.000 A 
ATOM     21  C   UNL     1      -1.356   9.951  17.428  0.00  0.00    +0.000 A 
ATOM     22  C   UNL     1      -2.655   9.638  17.025  0.00  0.00    +0.000 A 
ATOM     23  C   UNL     1      -3.731  10.355  17.537  0.00  0.00    +0.000 A 
ATOM     24  C   UNL     1      -3.513  11.384  18.457  0.00  0.00    +0.000 A 
ATOM     25 CL   UNL     1      -4.908  12.218  19.051  0.00  0.00    +0.000 Cl
ATOM     26  C   UNL     1      -2.206  11.699  18.873  0.00  0.00    +0.000 A 
ATOM     27 CL   UNL     1      -1.955  12.953  20.047  0.00  0.00    +0.000 Cl
ENDBRANCH  19  20
ENDBRANCH   3  19
TORSDOF 4
ENDMDL
MODEL 9
REMARK VINA RESULT:      -8.2      4.631      8.965
REMARK  Name = 
REMARK  4 active torsions:
REMARK  status: ('A' for Active; 'I' for Inactive)
REMARK    1  A    between atoms: C_6  and  C_7
REMARK    2  A    between atoms: C_11  and  C_12
REMARK    3  A    between atoms: N_14  and  C_15
REMARK    4  A    between atoms: C_15  and  C_16
REMARK                            x       y       z     vdW  Elec       q    Type
REMARK                         _______ _______ _______ _____ _____    ______ ____
ROOT
ATOM      1  C   UNL     1       1.369   8.962  18.839  0.00  0.00    +0.000 A 
ATOM      2  C   UNL     1       1.575   8.294  20.029  0.00  0.00    +0.000 A 
ATOM      3  N   UNL     1       2.325   7.196  19.706  0.00  0.00    +0.000 N 
ATOM      4  C   UNL     1       2.555   7.241  18.359  0.00  0.00    +0.000 A 
ATOM      5  N   UNL     1       2.003   8.298  17.808  0.00  0.00    +0.000 NA
ENDROOT
BRANCH   1  10
ATOM      6  C   UNL     1      -1.451  11.276  18.007  0.00  0.00    +0.000 A 
ATOM      7  C   UNL     1      -0.846  12.491  18.333  0.00  0.00    +0.000 A 
ATOM      8  C   UNL     1       0.446  12.476  18.826  0.00  0.00    +0.000 A 
ATOM      9  N   UNL     1       1.172  11.352  18.999  0.00  0.00    +0.000 NA
ATOM     10  C   UNL     1       0.581  10.176  18.665  0.00  0.00    +0.000 A 
ATOM     11  C   UNL     1      -0.721  10.098  18.178  0.00  0.00    +0.000 A 
BRANCH   6  17
ATOM     12  F   UNL     1      -2.464  10.691  15.162  0.00  0.00    +0.000 F 
ATOM     13  C   UNL     1      -3.198  11.007  16.192  0.00  0.00    +0.000 A 
ATOM     14  N   UNL     1      -4.550  11.124  16.216  0.00  0.00    +0.000 N 
ATOM     15  N   UNL     1      -4.988  11.426  17.451  0.00  0.00    +0.000 NA
ATOM     16  N   UNL     1      -3.921  11.508  18.240  0.00  0.00    +0.000 NA
ATOM     17  C   UNL     1      -2.799  11.267  17.480  0.00  0.00    +0.000 A 
ATOM     18  H   UNL     1      -5.218  11.010  15.465  0.00  0.00    +0.000 HD
ENDBRANCH   6  17
ENDBRANCH   1  10
BRANCH   3  19
ATOM     19  C   UNL     1       2.653   6.092  20.591  0.00  0.00    +0.000 C 
BRANCH  19  20
ATOM     20  C   UNL     1       2.260   4.747  20.026  0.00  0.00    +0.000 A 
ATOM     21  C   UNL     1       0.930   4.311  20.197  0.00  0.00    +0.000 A 
ATOM     22  C   UNL     1       0.496   3.092  19.674  0.00  0.00    +0.000 A 
ATOM     23  C   UNL     1       1.386   2.278  18.982  0.00  0.00    +0.000 A 
ATOM     24  C   UNL     1       2.712   2.681  18.806  0.00  0.00    +0.000 A 
ATOM     25 CL   UNL     1       3.750   1.613  17.924  0.00  0.00    +0.000 Cl
ATOM     26  C   UNL     1       3.155   3.913  19.323  0.00  0.00    +0.000 A 
ATOM     27 CL   UNL     1       4.794   4.419  19.061  0.00  0.00    +0.000 Cl
ENDBRANCH  19  20
ENDBRANCH   3  19
TORSDOF 4
ENDMDL
