MODEL 1
REMARK VINA RESULT:      -7.8      0.000      0.000
REMARK  Name = 
REMARK  6 active torsions:
REMARK  status: ('A' for Active; 'I' for Inactive)
REMARK    1  A    between atoms: C_1  and  C_2
REMARK    2  A    between atoms: N_8  and  C_9
REMARK    3  A    between atoms: N_12  and  C_13
REMARK    4  A    between atoms: C_16  and  S_17
REMARK    5  A    between atoms: S_17  and  N_18
REMARK    6  A    between atoms: C_25  and  C_26
REMARK                            x       y       z     vdW  Elec       q    Type
REMARK                         _______ _______ _______ _____ _____    ______ ____
ROOT
ATOM      1  C   UNL     1       0.457  10.026  20.650  0.00  0.00    +0.000 A 
ATOM      2  N   UNL     1       0.917   9.591  19.460  0.00  0.00    +0.000 NA
ATOM      3  C   UNL     1       1.519   8.402  19.384  0.00  0.00    +0.000 A 
ATOM      4  N   UNL     1       1.945   7.991  18.120  0.00  0.00    +0.000 N 
ATOM      5  N   UNL     1       1.696   7.598  20.436  0.00  0.00    +0.000 NA
ATOM      6  C   UNL     1       1.219   8.027  21.613  0.00  0.00    +0.000 A 
ATOM      7  C   UNL     1       0.584   9.238  21.790  0.00  0.00    +0.000 A 
ATOM      8  C   UNL     1       0.062   9.614  23.139  0.00  0.00    +0.000 C 
ATOM      9  H   UNL     1       1.737   8.717  17.447  0.00  0.00    +0.000 HD
ENDROOT
BRANCH   1  17
ATOM     10  C   UNL     1       2.207  17.683  17.498  0.00  0.00    +0.000 C 
ATOM     11  C   UNL     1       1.404  16.586  18.135  0.00  0.00    +0.000 A 
ATOM     12  C   UNL     1       0.053  16.762  18.444  0.00  0.00    +0.000 A 
ATOM     13  C   UNL     1      -0.680  15.746  19.072  0.00  0.00    +0.000 A 
ATOM     14  C   UNL     1      -0.048  14.531  19.406  0.00  0.00    +0.000 A 
ATOM     15  N   UNL     1      -0.633  13.447  20.040  0.00  0.00    +0.000 NA
ATOM     16  C   UNL     1       0.229  12.459  20.175  0.00  0.00    +0.000 A 
ATOM     17  N   UNL     1      -0.161  11.289  20.738  0.00  0.00    +0.000 N 
ATOM     18  S   UNL     1       1.809  12.826  19.592  0.00  0.00    +0.000 S 
ATOM     19  C   UNL     1       1.295  14.373  19.083  0.00  0.00    +0.000 A 
ATOM     20  C   UNL     1       2.040  15.377  18.448  0.00  0.00    +0.000 A 
ATOM     21  H   UNL     1      -1.130  11.278  21.019  0.00  0.00    +0.000 HD
ENDBRANCH   1  17
BRANCH   4  22
ATOM     22  C   UNL     1       3.082   7.223  17.826  0.00  0.00    +0.000 A 
ATOM     23  C   UNL     1       4.254   7.865  17.408  0.00  0.00    +0.000 A 
ATOM     24  C   UNL     1       5.393   7.124  17.074  0.00  0.00    +0.000 A 
ATOM     25  C   UNL     1       5.369   5.733  17.198  0.00  0.00    +0.000 A 
ATOM     26  C   UNL     1       4.214   5.075  17.619  0.00  0.00    +0.000 A 
ATOM     27  C   UNL     1       3.081   5.823  17.934  0.00  0.00    +0.000 A 
BRANCH  25  28
ATOM     28  S   UNL     1       6.804   4.787  16.798  0.00  0.00    +0.000 S 
ATOM     29  O   UNL     1       7.523   5.430  15.722  0.00  0.00    +0.000 OA
ATOM     30  O   UNL     1       7.451   4.359  18.016  0.00  0.00    +0.000 OA
BRANCH  28  31
ATOM     31  N   UNL     1       6.111   3.411  16.132  0.00  0.00    +0.000 NA
ATOM     32  H   UNL     1       6.833   2.730  15.908  0.00  0.00    +0.000 HD
ATOM     33  H   UNL     1       5.377   3.058  16.749  0.00  0.00    +0.000 HD
ENDBRANCH  28  31
ENDBRANCH  25  28
ENDBRANCH   4  22
TORSDOF 4
ENDMDL
MODEL 2
REMARK VINA RESULT:      -7.6      3.720      4.834
REMARK  Name = 
REMARK  6 active torsions:
REMARK  status: ('A' for Active; 'I' for Inactive)
REMARK    1  A    between atoms: C_1  and  C_2
REMARK    2  A    between atoms: N_8  and  C_9
REMARK    3  A    between atoms: N_12  and  C_13
REMARK    4  A    between atoms: C_16  and  S_17
REMARK    5  A    between atoms: S_17  and  N_18
REMARK    6  A    between atoms: C_25  and  C_26
REMARK                            x       y       z     vdW  Elec       q    Type
REMARK                         _______ _______ _______ _____ _____    ______ ____
ROOT
ATOM      1  C   UNL     1      -2.536  11.595  18.760  0.00  0.00    +0.000 A 
ATOM      2  N   UNL     1      -1.270  11.345  19.147  0.00  0.00    +0.000 NA
ATOM      3  C   UNL     1      -0.553  10.428  18.494  0.00  0.00    +0.000 A 
ATOM      4  N   UNL     1       0.763  10.236  18.919  0.00  0.00    +0.000 N 
ATOM      5  N   UNL     1      -1.022   9.729  17.457  0.00  0.00    +0.000 NA
ATOM      6  C   UNL     1      -2.275   9.996  17.064  0.00  0.00    +0.000 A 
ATOM      7  C   UNL     1      -3.092  10.924  17.675  0.00  0.00    +0.000 A 
ATOM      8  C   UNL     1      -4.466  11.169  17.144  0.00  0.00    +0.000 C 
ATOM      9  H   UNL     1       0.948  10.838  19.710  0.00  0.00    +0.000 HD
ENDROOT
BRANCH   1  17
ATOM     10  C   UNL     1      -1.550  15.737  26.074  0.00  0.00    +0.000 C 
ATOM     11  C   UNL     1      -2.105  15.413  24.718  0.00  0.00    +0.000 A 
ATOM     12  C   UNL     1      -3.055  16.237  24.108  0.00  0.00    +0.000 A 
ATOM     13  C   UNL     1      -3.595  15.907  22.857  0.00  0.00    +0.000 A 
ATOM     14  C   UNL     1      -3.184  14.727  22.206  0.00  0.00    +0.000 A 
ATOM     15  N   UNL     1      -3.638  14.263  20.981  0.00  0.00    +0.000 NA
ATOM     16  C   UNL     1      -3.027  13.145  20.647  0.00  0.00    +0.000 A 
ATOM     17  N   UNL     1      -3.302  12.548  19.461  0.00  0.00    +0.000 N 
ATOM     18  S   UNL     1      -1.916  12.572  21.834  0.00  0.00    +0.000 S 
ATOM     19  C   UNL     1      -2.233  13.925  22.826  0.00  0.00    +0.000 A 
ATOM     20  C   UNL     1      -1.677  14.245  24.073  0.00  0.00    +0.000 A 
ATOM     21  H   UNL     1      -3.988  13.042  18.910  0.00  0.00    +0.000 HD
ENDBRANCH   1  17
BRANCH   4  22
ATOM     22  C   UNL     1       1.477   9.028  18.918  0.00  0.00    +0.000 A 
ATOM     23  C   UNL     1       1.457   8.218  20.061  0.00  0.00    +0.000 A 
ATOM     24  C   UNL     1       2.188   7.027  20.104  0.00  0.00    +0.000 A 
ATOM     25  C   UNL     1       2.910   6.622  18.979  0.00  0.00    +0.000 A 
ATOM     26  C   UNL     1       2.937   7.409  17.829  0.00  0.00    +0.000 A 
ATOM     27  C   UNL     1       2.218   8.603  17.804  0.00  0.00    +0.000 A 
BRANCH  25  28
ATOM     28  S   UNL     1       3.821   5.111  19.012  0.00  0.00    +0.000 S 
ATOM     29  O   UNL     1       5.198   5.383  19.354  0.00  0.00    +0.000 OA
ATOM     30  O   UNL     1       3.042   4.096  19.681  0.00  0.00    +0.000 OA
BRANCH  28  31
ATOM     31  N   UNL     1       3.823   4.697  17.385  0.00  0.00    +0.000 NA
ATOM     32  H   UNL     1       3.682   5.528  16.815  0.00  0.00    +0.000 HD
ATOM     33  H   UNL     1       4.669   4.171  17.161  0.00  0.00    +0.000 HD
ENDBRANCH  28  31
ENDBRANCH  25  28
ENDBRANCH   4  22
TORSDOF 4
ENDMDL
MODEL 3
REMARK VINA RESULT:      -7.6      0.669      1.235
REMARK  Name = 
REMARK  6 active torsions:
REMARK  status: ('A' for Active; 'I' for Inactive)
REMARK    1  A    between atoms: C_1  and  C_2
REMARK    2  A    between atoms: N_8  and  C_9
REMARK    3  A    between atoms: N_12  and  C_13
REMARK    4  A    between atoms: C_16  and  S_17
REMARK    5  A    between atoms: S_17  and  N_18
REMARK    6  A    between atoms: C_25  and  C_26
REMARK                            x       y       z     vdW  Elec       q    Type
REMARK                         _______ _______ _______ _____ _____    ______ ____
ROOT
ATOM      1  C   UNL     1       0.424  10.046  20.714  0.00  0.00    +0.000 A 
ATOM      2  N   UNL     1       0.840   9.607  19.509  0.00  0.00    +0.000 NA
ATOM      3  C   UNL     1       1.432   8.414  19.414  0.00  0.00    +0.000 A 
ATOM      4  N   UNL     1       1.811   7.999  18.136  0.00  0.00    +0.000 N 
ATOM      5  N   UNL     1       1.640   7.610  20.460  0.00  0.00    +0.000 NA
ATOM      6  C   UNL     1       1.206   8.043  21.652  0.00  0.00    +0.000 A 
ATOM      7  C   UNL     1       0.584   9.259  21.849  0.00  0.00    +0.000 A 
ATOM      8  C   UNL     1       0.112   9.639  23.215  0.00  0.00    +0.000 C 
ATOM      9  H   UNL     1       1.584   8.725  17.470  0.00  0.00    +0.000 HD
ENDROOT
BRANCH   1  17
ATOM     10  C   UNL     1       2.154  17.703  17.552  0.00  0.00    +0.000 C 
ATOM     11  C   UNL     1       1.359  16.609  18.204  0.00  0.00    +0.000 A 
ATOM     12  C   UNL     1       0.016  16.794  18.545  0.00  0.00    +0.000 A 
ATOM     13  C   UNL     1      -0.709  15.780  19.186  0.00  0.00    +0.000 A 
ATOM     14  C   UNL     1      -0.078  14.560  19.499  0.00  0.00    +0.000 A 
ATOM     15  N   UNL     1      -0.656  13.477  20.143  0.00  0.00    +0.000 NA
ATOM     16  C   UNL     1       0.202  12.483  20.253  0.00  0.00    +0.000 A 
ATOM     17  N   UNL     1      -0.183  11.313  20.821  0.00  0.00    +0.000 N 
ATOM     18  S   UNL     1       1.771  12.840  19.635  0.00  0.00    +0.000 S 
ATOM     19  C   UNL     1       1.256  14.393  19.145  0.00  0.00    +0.000 A 
ATOM     20  C   UNL     1       1.993  15.395  18.496  0.00  0.00    +0.000 A 
ATOM     21  H   UNL     1      -1.145  11.308  21.124  0.00  0.00    +0.000 HD
ENDBRANCH   1  17
BRANCH   4  22
ATOM     22  C   UNL     1       2.932   7.223  17.805  0.00  0.00    +0.000 A 
ATOM     23  C   UNL     1       2.862   5.829  17.928  0.00  0.00    +0.000 A 
ATOM     24  C   UNL     1       3.974   5.031  17.639  0.00  0.00    +0.000 A 
ATOM     25  C   UNL     1       5.152   5.631  17.185  0.00  0.00    +0.000 A 
ATOM     26  C   UNL     1       5.239   7.015  17.049  0.00  0.00    +0.000 A 
ATOM     27  C   UNL     1       4.130   7.801  17.354  0.00  0.00    +0.000 A 
BRANCH  25  28
ATOM     28  S   UNL     1       6.557   4.634  16.800  0.00  0.00    +0.000 S 
ATOM     29  O   UNL     1       7.311   4.375  18.004  0.00  0.00    +0.000 OA
ATOM     30  O   UNL     1       6.164   3.585  15.889  0.00  0.00    +0.000 OA
BRANCH  28  31
ATOM     31  N   UNL     1       7.479   5.709  15.899  0.00  0.00    +0.000 NA
ATOM     32  H   UNL     1       6.936   6.062  15.115  0.00  0.00    +0.000 HD
ATOM     33  H   UNL     1       7.860   6.435  16.508  0.00  0.00    +0.000 HD
ENDBRANCH  28  31
ENDBRANCH  25  28
ENDBRANCH   4  22
TORSDOF 4
ENDMDL
MODEL 4
REMARK VINA RESULT:      -7.6      3.615      4.684
REMARK  Name = 
REMARK  6 active torsions:
REMARK  status: ('A' for Active; 'I' for Inactive)
REMARK    1  A    between atoms: C_1  and  C_2
REMARK    2  A    between atoms: N_8  and  C_9
REMARK    3  A    between atoms: N_12  and  C_13
REMARK    4  A    between atoms: C_16  and  S_17
REMARK    5  A    between atoms: S_17  and  N_18
REMARK    6  A    between atoms: C_25  and  C_26
REMARK                            x       y       z     vdW  Elec       q    Type
REMARK                         _______ _______ _______ _____ _____    ______ ____
ROOT
ATOM      1  C   UNL     1      -2.228  11.894  18.833  0.00  0.00    +0.000 A 
ATOM      2  N   UNL     1      -0.933  11.615  19.078  0.00  0.00    +0.000 NA
ATOM      3  C   UNL     1      -0.375  10.540  18.517  0.00  0.00    +0.000 A 
ATOM      4  N   UNL     1       0.978  10.321  18.781  0.00  0.00    +0.000 N 
ATOM      5  N   UNL     1      -1.035   9.706  17.709  0.00  0.00    +0.000 NA
ATOM      6  C   UNL     1      -2.318   9.999  17.453  0.00  0.00    +0.000 A 
ATOM      7  C   UNL     1      -2.979  11.086  17.985  0.00  0.00    +0.000 A 
ATOM      8  C   UNL     1      -4.404  11.342  17.616  0.00  0.00    +0.000 C 
ATOM      9  H   UNL     1       1.315  11.040  19.408  0.00  0.00    +0.000 HD
ENDROOT
BRANCH   1  17
ATOM     10  C   UNL     1      -1.197  15.842  26.247  0.00  0.00    +0.000 C 
ATOM     11  C   UNL     1      -1.641  15.630  24.829  0.00  0.00    +0.000 A 
ATOM     12  C   UNL     1      -2.282  16.642  24.111  0.00  0.00    +0.000 A 
ATOM     13  C   UNL     1      -2.726  16.423  22.799  0.00  0.00    +0.000 A 
ATOM     14  C   UNL     1      -2.531  15.165  22.195  0.00  0.00    +0.000 A 
ATOM     15  N   UNL     1      -2.928  14.796  20.919  0.00  0.00    +0.000 NA
ATOM     16  C   UNL     1      -2.564  13.557  20.655  0.00  0.00    +0.000 A 
ATOM     17  N   UNL     1      -2.825  13.018  19.439  0.00  0.00    +0.000 N 
ATOM     18  S   UNL     1      -1.779  12.762  21.968  0.00  0.00    +0.000 S 
ATOM     19  C   UNL     1      -1.884  14.174  22.924  0.00  0.00    +0.000 A 
ATOM     20  C   UNL     1      -1.427  14.379  24.234  0.00  0.00    +0.000 A 
ATOM     21  H   UNL     1      -3.299  13.648  18.810  0.00  0.00    +0.000 HD
ENDBRANCH   1  17
BRANCH   4  22
ATOM     22  C   UNL     1       1.618   9.079  18.910  0.00  0.00    +0.000 A 
ATOM     23  C   UNL     1       2.390   8.592  17.847  0.00  0.00    +0.000 A 
ATOM     24  C   UNL     1       3.010   7.341  17.931  0.00  0.00    +0.000 A 
ATOM     25  C   UNL     1       2.889   6.591  19.104  0.00  0.00    +0.000 A 
ATOM     26  C   UNL     1       2.132   7.061  20.175  0.00  0.00    +0.000 A 
ATOM     27  C   UNL     1       1.505   8.302  20.073  0.00  0.00    +0.000 A 
BRANCH  25  28
ATOM     28  S   UNL     1       3.683   5.019  19.231  0.00  0.00    +0.000 S 
ATOM     29  O   UNL     1       5.112   5.205  19.331  0.00  0.00    +0.000 OA
ATOM     30  O   UNL     1       2.943   4.182  20.146  0.00  0.00    +0.000 OA
BRANCH  28  31
ATOM     31  N   UNL     1       3.405   4.391  17.700  0.00  0.00    +0.000 NA
ATOM     32  H   UNL     1       4.247   4.467  17.134  0.00  0.00    +0.000 HD
ATOM     33  H   UNL     1       3.032   3.443  17.775  0.00  0.00    +0.000 HD
ENDBRANCH  28  31
ENDBRANCH  25  28
ENDBRANCH   4  22
TORSDOF 4
ENDMDL
MODEL 5
REMARK VINA RESULT:      -7.5      2.815      3.682
REMARK  Name = 
REMARK  6 active torsions:
REMARK  status: ('A' for Active; 'I' for Inactive)
REMARK    1  A    between atoms: C_1  and  C_2
REMARK    2  A    between atoms: N_8  and  C_9
REMARK    3  A    between atoms: N_12  and  C_13
REMARK    4  A    between atoms: C_16  and  S_17
REMARK    5  A    between atoms: S_17  and  N_18
REMARK    6  A    between atoms: C_25  and  C_26
REMARK                            x       y       z     vdW  Elec       q    Type
REMARK                         _______ _______ _______ _____ _____    ______ ____
ROOT
ATOM      1  C   UNL     1       0.481   9.956  20.533  0.00  0.00    +0.000 A 
ATOM      2  N   UNL     1       0.925   9.520  19.337  0.00  0.00    +0.000 NA
ATOM      3  C   UNL     1       1.581   8.360  19.264  0.00  0.00    +0.000 A 
ATOM      4  N   UNL     1       1.988   7.944  17.995  0.00  0.00    +0.000 N 
ATOM      5  N   UNL     1       1.829   7.587  20.325  0.00  0.00    +0.000 NA
ATOM      6  C   UNL     1       1.368   8.016  21.508  0.00  0.00    +0.000 A 
ATOM      7  C   UNL     1       0.680   9.198  21.682  0.00  0.00    +0.000 A 
ATOM      8  C   UNL     1       0.183   9.575  23.040  0.00  0.00    +0.000 C 
ATOM      9  H   UNL     1       1.724   8.645  17.316  0.00  0.00    +0.000 HD
ENDROOT
BRANCH   1  17
ATOM     10  C   UNL     1      -7.026  12.763  17.814  0.00  0.00    +0.000 C 
ATOM     11  C   UNL     1      -5.748  12.735  18.601  0.00  0.00    +0.000 A 
ATOM     12  C   UNL     1      -5.476  13.699  19.576  0.00  0.00    +0.000 A 
ATOM     13  C   UNL     1      -4.264  13.687  20.280  0.00  0.00    +0.000 A 
ATOM     14  C   UNL     1      -3.302  12.697  20.001  0.00  0.00    +0.000 A 
ATOM     15  N   UNL     1      -2.058  12.566  20.599  0.00  0.00    +0.000 NA
ATOM     16  C   UNL     1      -1.418  11.515  20.129  0.00  0.00    +0.000 A 
ATOM     17  N   UNL     1      -0.196  11.189  20.616  0.00  0.00    +0.000 N 
ATOM     18  S   UNL     1      -2.272  10.671  18.891  0.00  0.00    +0.000 S 
ATOM     19  C   UNL     1      -3.594  11.743  19.033  0.00  0.00    +0.000 A 
ATOM     20  C   UNL     1      -4.805  11.736  18.325  0.00  0.00    +0.000 A 
ATOM     21  H   UNL     1       0.133  11.815  21.336  0.00  0.00    +0.000 HD
ENDBRANCH   1  17
BRANCH   4  22
ATOM     22  C   UNL     1       3.151   7.226  17.680  0.00  0.00    +0.000 A 
ATOM     23  C   UNL     1       3.133   5.827  17.751  0.00  0.00    +0.000 A 
ATOM     24  C   UNL     1       4.287   5.084  17.478  0.00  0.00    +0.000 A 
ATOM     25  C   UNL     1       5.455   5.746  17.092  0.00  0.00    +0.000 A 
ATOM     26  C   UNL     1       5.492   7.136  17.009  0.00  0.00    +0.000 A 
ATOM     27  C   UNL     1       4.341   7.866  17.298  0.00  0.00    +0.000 A 
BRANCH  25  28
ATOM     28  S   UNL     1       6.913   4.820  16.726  0.00  0.00    +0.000 S 
ATOM     29  O   UNL     1       7.647   5.473  15.667  0.00  0.00    +0.000 OA
ATOM     30  O   UNL     1       7.537   4.402  17.959  0.00  0.00    +0.000 OA
BRANCH  28  31
ATOM     31  N   UNL     1       6.255   3.435  16.045  0.00  0.00    +0.000 NA
ATOM     32  H   UNL     1       6.996   2.790  15.781  0.00  0.00    +0.000 HD
ATOM     33  H   UNL     1       5.555   3.037  16.674  0.00  0.00    +0.000 HD
ENDBRANCH  28  31
ENDBRANCH  25  28
ENDBRANCH   4  22
TORSDOF 4
ENDMDL
MODEL 6
REMARK VINA RESULT:      -7.5      6.077     10.704
REMARK  Name = 
REMARK  6 active torsions:
REMARK  status: ('A' for Active; 'I' for Inactive)
REMARK    1  A    between atoms: C_1  and  C_2
REMARK    2  A    between atoms: N_8  and  C_9
REMARK    3  A    between atoms: N_12  and  C_13
REMARK    4  A    between atoms: C_16  and  S_17
REMARK    5  A    between atoms: S_17  and  N_18
REMARK    6  A    between atoms: C_25  and  C_26
REMARK                            x       y       z     vdW  Elec       q    Type
REMARK                         _______ _______ _______ _____ _____    ______ ____
ROOT
ATOM      1  C   UNL     1       0.589  11.911  18.643  0.00  0.00    +0.000 A 
ATOM      2  N   UNL     1      -0.724  11.643  18.782  0.00  0.00    +0.000 NA
ATOM      3  C   UNL     1      -1.542  12.591  19.247  0.00  0.00    +0.000 A 
ATOM      4  N   UNL     1      -2.896  12.265  19.338  0.00  0.00    +0.000 N 
ATOM      5  N   UNL     1      -1.130  13.815  19.588  0.00  0.00    +0.000 NA
ATOM      6  C   UNL     1       0.173  14.082  19.428  0.00  0.00    +0.000 A 
ATOM      7  C   UNL     1       1.093  13.170  18.956  0.00  0.00    +0.000 A 
ATOM      8  C   UNL     1       2.521  13.574  18.788  0.00  0.00    +0.000 C 
ATOM      9  H   UNL     1      -3.028  11.306  19.046  0.00  0.00    +0.000 HD
ENDROOT
BRANCH   1  17
ATOM     10  C   UNL     1       2.311   3.985  21.059  0.00  0.00    +0.000 C 
ATOM     11  C   UNL     1       2.271   5.197  20.174  0.00  0.00    +0.000 A 
ATOM     12  C   UNL     1       2.764   5.156  18.867  0.00  0.00    +0.000 A 
ATOM     13  C   UNL     1       2.757   6.302  18.060  0.00  0.00    +0.000 A 
ATOM     14  C   UNL     1       2.254   7.515  18.571  0.00  0.00    +0.000 A 
ATOM     15  N   UNL     1       2.198   8.729  17.903  0.00  0.00    +0.000 NA
ATOM     16  C   UNL     1       1.643   9.655  18.658  0.00  0.00    +0.000 A 
ATOM     17  N   UNL     1       1.458  10.907  18.171  0.00  0.00    +0.000 N 
ATOM     18  S   UNL     1       1.221   9.111  20.238  0.00  0.00    +0.000 S 
ATOM     19  C   UNL     1       1.763   7.533  19.871  0.00  0.00    +0.000 A 
ATOM     20  C   UNL     1       1.755   6.394  20.689  0.00  0.00    +0.000 A 
ATOM     21  H   UNL     1       1.779  11.024  17.222  0.00  0.00    +0.000 HD
ENDBRANCH   1  17
BRANCH   4  22
ATOM     22  C   UNL     1      -3.804  12.716  20.309  0.00  0.00    +0.000 A 
ATOM     23  C   UNL     1      -5.046  13.220  19.904  0.00  0.00    +0.000 A 
ATOM     24  C   UNL     1      -5.958  13.711  20.845  0.00  0.00    +0.000 A 
ATOM     25  C   UNL     1      -5.638  13.658  22.204  0.00  0.00    +0.000 A 
ATOM     26  C   UNL     1      -4.410  13.154  22.628  0.00  0.00    +0.000 A 
ATOM     27  C   UNL     1      -3.504  12.683  21.680  0.00  0.00    +0.000 A 
BRANCH  25  28
ATOM     28  S   UNL     1      -6.787  14.256  23.404  0.00  0.00    +0.000 S 
ATOM     29  O   UNL     1      -7.749  15.122  22.762  0.00  0.00    +0.000 OA
ATOM     30  O   UNL     1      -7.177  13.173  24.274  0.00  0.00    +0.000 OA
BRANCH  28  31
ATOM     31  N   UNL     1      -5.804  15.259  24.322  0.00  0.00    +0.000 NA
ATOM     32  H   UNL     1      -5.110  15.707  23.728  0.00  0.00    +0.000 HD
ATOM     33  H   UNL     1      -6.378  15.909  24.862  0.00  0.00    +0.000 HD
ENDBRANCH  28  31
ENDBRANCH  25  28
ENDBRANCH   4  22
TORSDOF 4
ENDMDL
MODEL 7
REMARK VINA RESULT:      -7.4      3.558      4.628
REMARK  Name = 
REMARK  6 active torsions:
REMARK  status: ('A' for Active; 'I' for Inactive)
REMARK    1  A    between atoms: C_1  and  C_2
REMARK    2  A    between atoms: N_8  and  C_9
REMARK    3  A    between atoms: N_12  and  C_13
REMARK    4  A    between atoms: C_16  and  S_17
REMARK    5  A    between atoms: S_17  and  N_18
REMARK    6  A    between atoms: C_25  and  C_26
REMARK                            x       y       z     vdW  Elec       q    Type
REMARK                         _______ _______ _______ _____ _____    ______ ____
ROOT
ATOM      1  C   UNL     1       1.746  12.064  18.086  0.00  0.00    +0.000 A 
ATOM      2  N   UNL     1       2.369  10.895  17.840  0.00  0.00    +0.000 NA
ATOM      3  C   UNL     1       1.746   9.748  18.118  0.00  0.00    +0.000 A 
ATOM      4  N   UNL     1       2.428   8.569  17.811  0.00  0.00    +0.000 N 
ATOM      5  N   UNL     1       0.515   9.686  18.634  0.00  0.00    +0.000 NA
ATOM      6  C   UNL     1      -0.107  10.851  18.858  0.00  0.00    +0.000 A 
ATOM      7  C   UNL     1       0.455  12.085  18.603  0.00  0.00    +0.000 A 
ATOM      8  C   UNL     1      -0.332  13.328  18.861  0.00  0.00    +0.000 C 
ATOM      9  H   UNL     1       3.338   8.800  17.436  0.00  0.00    +0.000 HD
ENDROOT
BRANCH   1  17
ATOM     10  C   UNL     1       6.532  17.338  22.659  0.00  0.00    +0.000 C 
ATOM     11  C   UNL     1       5.922  16.709  21.440  0.00  0.00    +0.000 A 
ATOM     12  C   UNL     1       6.294  17.110  20.154  0.00  0.00    +0.000 A 
ATOM     13  C   UNL     1       5.692  16.543  19.022  0.00  0.00    +0.000 A 
ATOM     14  C   UNL     1       4.694  15.560  19.178  0.00  0.00    +0.000 A 
ATOM     15  N   UNL     1       4.000  14.924  18.160  0.00  0.00    +0.000 NA
ATOM     16  C   UNL     1       3.157  14.037  18.649  0.00  0.00    +0.000 A 
ATOM     17  N   UNL     1       2.409  13.277  17.812  0.00  0.00    +0.000 N 
ATOM     18  S   UNL     1       3.123  13.979  20.372  0.00  0.00    +0.000 S 
ATOM     19  C   UNL     1       4.343  15.170  20.465  0.00  0.00    +0.000 A 
ATOM     20  C   UNL     1       4.941  15.722  21.608  0.00  0.00    +0.000 A 
ATOM     21  H   UNL     1       2.574  13.469  16.835  0.00  0.00    +0.000 HD
ENDBRANCH   1  17
BRANCH   4  22
ATOM     22  C   UNL     1       2.372   7.359  18.519  0.00  0.00    +0.000 A 
ATOM     23  C   UNL     1       2.620   6.157  17.844  0.00  0.00    +0.000 A 
ATOM     24  C   UNL     1       2.536   4.932  18.513  0.00  0.00    +0.000 A 
ATOM     25  C   UNL     1       2.241   4.914  19.879  0.00  0.00    +0.000 A 
ATOM     26  C   UNL     1       1.998   6.098  20.571  0.00  0.00    +0.000 A 
ATOM     27  C   UNL     1       2.070   7.312  19.889  0.00  0.00    +0.000 A 
BRANCH  25  28
ATOM     28  S   UNL     1       2.151   3.376  20.741  0.00  0.00    +0.000 S 
ATOM     29  O   UNL     1       2.935   2.384  20.042  0.00  0.00    +0.000 OA
ATOM     30  O   UNL     1       2.284   3.613  22.159  0.00  0.00    +0.000 OA
BRANCH  28  31
ATOM     31  N   UNL     1       0.545   2.957  20.489  0.00  0.00    +0.000 NA
ATOM     32  H   UNL     1       0.357   2.882  19.492  0.00  0.00    +0.000 HD
ATOM     33  H   UNL     1       0.317   2.118  21.024  0.00  0.00    +0.000 HD
ENDBRANCH  28  31
ENDBRANCH  25  28
ENDBRANCH   4  22
TORSDOF 4
ENDMDL
MODEL 8
REMARK VINA RESULT:      -7.3      3.894      5.094
REMARK  Name = 
REMARK  6 active torsions:
REMARK  status: ('A' for Active; 'I' for Inactive)
REMARK    1  A    between atoms: C_1  and  C_2
REMARK    2  A    between atoms: N_8  and  C_9
REMARK    3  A    between atoms: N_12  and  C_13
REMARK    4  A    between atoms: C_16  and  S_17
REMARK    5  A    between atoms: S_17  and  N_18
REMARK    6  A    between atoms: C_25  and  C_26
REMARK                            x       y       z     vdW  Elec       q    Type
REMARK                         _______ _______ _______ _____ _____    ______ ____
ROOT
ATOM      1  C   UNL     1      -2.795  12.228  19.281  0.00  0.00    +0.000 A 
ATOM      2  N   UNL     1      -1.486  11.979  19.483  0.00  0.00    +0.000 NA
ATOM      3  C   UNL     1      -0.902  10.971  18.830  0.00  0.00    +0.000 A 
ATOM      4  N   UNL     1       0.463  10.782  19.055  0.00  0.00    +0.000 N 
ATOM      5  N   UNL     1      -1.547  10.179  17.970  0.00  0.00    +0.000 NA
ATOM      6  C   UNL     1      -2.844  10.445  17.758  0.00  0.00    +0.000 A 
ATOM      7  C   UNL     1      -3.533  11.462  18.384  0.00  0.00    +0.000 A 
ATOM      8  C   UNL     1      -4.972  11.694  18.059  0.00  0.00    +0.000 C 
ATOM      9  H   UNL     1       0.786  11.461  19.731  0.00  0.00    +0.000 HD
ENDROOT
BRANCH   1  17
ATOM     10  C   UNL     1      -1.093  16.349  26.474  0.00  0.00    +0.000 C 
ATOM     11  C   UNL     1      -1.725  16.070  25.141  0.00  0.00    +0.000 A 
ATOM     12  C   UNL     1      -2.588  16.991  24.542  0.00  0.00    +0.000 A 
ATOM     13  C   UNL     1      -3.203  16.707  23.315  0.00  0.00    +0.000 A 
ATOM     14  C   UNL     1      -2.956  15.475  22.677  0.00  0.00    +0.000 A 
ATOM     15  N   UNL     1      -3.501  15.047  21.476  0.00  0.00    +0.000 NA
ATOM     16  C   UNL     1      -3.038  13.858  21.147  0.00  0.00    +0.000 A 
ATOM     17  N   UNL     1      -3.420  13.279  19.983  0.00  0.00    +0.000 N 
ATOM     18  S   UNL     1      -1.967  13.177  22.314  0.00  0.00    +0.000 S 
ATOM     19  C   UNL     1      -2.089  14.575  23.286  0.00  0.00    +0.000 A 
ATOM     20  C   UNL     1      -1.460  14.848  24.510  0.00  0.00    +0.000 A 
ATOM     21  H   UNL     1      -4.059  13.841  19.441  0.00  0.00    +0.000 HD
ENDBRANCH   1  17
BRANCH   4  22
ATOM     22  C   UNL     1       1.148   9.557  19.076  0.00  0.00    +0.000 A 
ATOM     23  C   UNL     1       1.825   9.131  17.926  0.00  0.00    +0.000 A 
ATOM     24  C   UNL     1       2.486   7.899  17.903  0.00  0.00    +0.000 A 
ATOM     25  C   UNL     1       2.504   7.107  19.055  0.00  0.00    +0.000 A 
ATOM     26  C   UNL     1       1.844   7.517  20.211  0.00  0.00    +0.000 A 
ATOM     27  C   UNL     1       1.175   8.739  20.216  0.00  0.00    +0.000 A 
BRANCH  25  28
ATOM     28  S   UNL     1       3.352   5.559  19.047  0.00  0.00    +0.000 S 
ATOM     29  O   UNL     1       2.689   4.650  18.140  0.00  0.00    +0.000 OA
ATOM     30  O   UNL     1       4.776   5.792  19.008  0.00  0.00    +0.000 OA
BRANCH  28  31
ATOM     31  N   UNL     1       3.015   4.997  20.592  0.00  0.00    +0.000 NA
ATOM     32  H   UNL     1       3.808   4.471  20.952  0.00  0.00    +0.000 HD
ATOM     33  H   UNL     1       2.717   5.772  21.187  0.00  0.00    +0.000 HD
ENDBRANCH  28  31
ENDBRANCH  25  28
ENDBRANCH   4  22
TORSDOF 4
ENDMDL
MODEL 9
REMARK VINA RESULT:      -7.3      5.975     10.639
REMARK  Name = 
REMARK  6 active torsions:
REMARK  status: ('A' for Active; 'I' for Inactive)
REMARK    1  A    between atoms: C_1  and  C_2
REMARK    2  A    between atoms: N_8  and  C_9
REMARK    3  A    between atoms: N_12  and  C_13
REMARK    4  A    between atoms: C_16  and  S_17
REMARK    5  A    between atoms: S_17  and  N_18
REMARK    6  A    between atoms: C_25  and  C_26
REMARK                            x       y       z     vdW  Elec       q    Type
REMARK                         _______ _______ _______ _____ _____    ______ ____
ROOT
ATOM      1  C   UNL     1       0.672  11.816  18.506  0.00  0.00    +0.000 A 
ATOM      2  N   UNL     1      -0.640  11.547  18.652  0.00  0.00    +0.000 NA
ATOM      3  C   UNL     1      -1.457  12.494  19.119  0.00  0.00    +0.000 A 
ATOM      4  N   UNL     1      -2.810  12.167  19.217  0.00  0.00    +0.000 N 
ATOM      5  N   UNL     1      -1.045  13.719  19.457  0.00  0.00    +0.000 NA
ATOM      6  C   UNL     1       0.258  13.987  19.291  0.00  0.00    +0.000 A 
ATOM      7  C   UNL     1       1.176  13.075  18.815  0.00  0.00    +0.000 A 
ATOM      8  C   UNL     1       2.604  13.481  18.640  0.00  0.00    +0.000 C 
ATOM      9  H   UNL     1      -2.942  11.208  18.926  0.00  0.00    +0.000 HD
ENDROOT
BRANCH   1  17
ATOM     10  C   UNL     1       2.378   3.878  20.893  0.00  0.00    +0.000 C 
ATOM     11  C   UNL     1       2.342   5.094  20.013  0.00  0.00    +0.000 A 
ATOM     12  C   UNL     1       2.836   5.057  18.706  0.00  0.00    +0.000 A 
ATOM     13  C   UNL     1       2.831   6.206  17.904  0.00  0.00    +0.000 A 
ATOM     14  C   UNL     1       2.330   7.418  18.419  0.00  0.00    +0.000 A 
ATOM     15  N   UNL     1       2.276   8.634  17.755  0.00  0.00    +0.000 NA
ATOM     16  C   UNL     1       1.722   9.558  18.513  0.00  0.00    +0.000 A 
ATOM     17  N   UNL     1       1.540  10.812  18.031  0.00  0.00    +0.000 N 
ATOM     18  S   UNL     1       1.298   9.009  20.091  0.00  0.00    +0.000 S 
ATOM     19  C   UNL     1       1.837   7.432  19.719  0.00  0.00    +0.000 A 
ATOM     20  C   UNL     1       1.827   6.289  20.532  0.00  0.00    +0.000 A 
ATOM     21  H   UNL     1       1.862  10.932  17.083  0.00  0.00    +0.000 HD
ENDBRANCH   1  17
BRANCH   4  22
ATOM     22  C   UNL     1      -3.714  12.619  20.191  0.00  0.00    +0.000 A 
ATOM     23  C   UNL     1      -3.316  12.649  21.534  0.00  0.00    +0.000 A 
ATOM     24  C   UNL     1      -4.205  13.060  22.532  0.00  0.00    +0.000 A 
ATOM     25  C   UNL     1      -5.489  13.482  22.178  0.00  0.00    +0.000 A 
ATOM     26  C   UNL     1      -5.902  13.466  20.848  0.00  0.00    +0.000 A 
ATOM     27  C   UNL     1      -5.012  13.040  19.863  0.00  0.00    +0.000 A 
BRANCH  25  28
ATOM     28  S   UNL     1      -6.615  14.021  23.426  0.00  0.00    +0.000 S 
ATOM     29  O   UNL     1      -7.084  12.881  24.179  0.00  0.00    +0.000 OA
ATOM     30  O   UNL     1      -6.095  15.209  24.060  0.00  0.00    +0.000 OA
BRANCH  28  31
ATOM     31  N   UNL     1      -7.917  14.524  22.493  0.00  0.00    +0.000 NA
ATOM     32  H   UNL     1      -7.591  14.834  21.580  0.00  0.00    +0.000 HD
ATOM     33  H   UNL     1      -8.625  13.789  22.459  0.00  0.00    +0.000 HD
ENDBRANCH  28  31
ENDBRANCH  25  28
ENDBRANCH   4  22
TORSDOF 4
ENDMDL
