MODEL 1
REMARK VINA RESULT:      -7.1      0.000      0.000
REMARK  Name = 
REMARK  11 active torsions:
REMARK  status: ('A' for Active; 'I' for Inactive)
REMARK    1  A    between atoms: C_1  and  O_2
REMARK    2  A    between atoms: O_2  and  C_3
REMARK    3  A    between atoms: C_3  and  C_5
REMARK    4  A    between atoms: C_5  and  O_6
REMARK    5  A    between atoms: C_5  and  C_14
REMARK    6  A    between atoms: C_5  and  C_18
REMARK    7  A    between atoms: O_6  and  C_7
REMARK    8  A    between atoms: C_14  and  O_16
REMARK    9  A    between atoms: O_16  and  C_17
REMARK   10  A    between atoms: C_21  and  O_22
REMARK   11  A    between atoms: O_22  and  C_23
REMARK                            x       y       z     vdW  Elec       q    Type
REMARK                         _______ _______ _______ _____ _____    ______ ____
ROOT
ATOM      1  C   UNL     1      -1.086  11.476  18.721  0.00  0.00    +0.000 C 
ENDROOT
BRANCH   1   2
ATOM      2  C   UNL     1      -0.033  10.371  19.048  0.00  0.00    +0.000 A 
ATOM      3  C   UNL     1       0.096   9.786  20.321  0.00  0.00    +0.000 A 
ATOM      4  C   UNL     1       1.021   8.754  20.547  0.00  0.00    +0.000 A 
ATOM      5  C   UNL     1       1.824   8.289  19.508  0.00  0.00    +0.000 A 
ATOM      6  C   UNL     1       1.778   8.918  18.266  0.00  0.00    +0.000 A 
ATOM      7  C   UNL     1       0.841   9.930  18.033  0.00  0.00    +0.000 A 
BRANCH   5   8
ATOM      8  O   UNL     1       2.673   7.238  19.791  0.00  0.00    +0.000 OA
BRANCH   8   9
ATOM      9  C   UNL     1       2.215   5.946  19.617  0.00  0.00    +0.000 A 
ATOM     10  C   UNL     1       2.315   5.417  18.326  0.00  0.00    +0.000 A 
ATOM     11  C   UNL     1       1.846   4.128  18.056  0.00  0.00    +0.000 A 
ATOM     12  C   UNL     1       1.281   3.367  19.079  0.00  0.00    +0.000 A 
ATOM     13 CL   UNL     1       0.657   1.801  18.740  0.00  0.00    +0.000 Cl
ATOM     14  C   UNL     1       1.219   3.870  20.377  0.00  0.00    +0.000 A 
ATOM     15  C   UNL     1       1.713   5.148  20.651  0.00  0.00    +0.000 A 
ENDBRANCH   8   9
ENDBRANCH   5   8
ENDBRANCH   1   2
BRANCH   1  16
ATOM     16  C   UNL     1      -2.200  10.852  17.834  0.00  0.00    +0.000 C 
ATOM     17  O   UNL     1      -2.800   9.806  18.076  0.00  0.00    +0.000 OA
BRANCH  16  19
ATOM     18  C   UNL     1      -2.831  10.850  15.578  0.00  0.00    +0.000 C 
ATOM     19  O   UNL     1      -2.477  11.618  16.732  0.00  0.00    +0.000 OA
ENDBRANCH  16  19
ENDBRANCH   1  16
BRANCH   1  20
ATOM     20  C   UNL     1      -1.667  11.929  20.098  0.00  0.00    +0.000 C 
ATOM     21  O   UNL     1      -1.077  11.862  21.170  0.00  0.00    +0.000 OA
BRANCH  20  22
ATOM     22  O   UNL     1      -2.919  12.466  19.966  0.00  0.00    +0.000 OA
ATOM     23  C   UNL     1      -3.572  12.709  21.212  0.00  0.00    +0.000 C 
ENDBRANCH  20  22
ENDBRANCH   1  20
BRANCH   1  24
ATOM     24  O   UNL     1      -0.441  12.544  17.997  0.00  0.00    +0.000 OA
BRANCH  24  25
ATOM     25  C   UNL     1       0.334  13.481  18.632  0.00  0.00    +0.000 A 
ATOM     26  C   UNL     1       1.628  13.308  19.127  0.00  0.00    +0.000 A 
ATOM     27  C   UNL     1       2.296  14.355  19.774  0.00  0.00    +0.000 A 
ATOM     28  C   UNL     1       1.678  15.590  19.920  0.00  0.00    +0.000 A 
ATOM     29 CL   UNL     1       2.498  16.866  20.730  0.00  0.00    +0.000 Cl
ATOM     30  C   UNL     1       0.398  15.790  19.413  0.00  0.00    +0.000 A 
ATOM     31  C   UNL     1      -0.270  14.737  18.774  0.00  0.00    +0.000 A 
ENDBRANCH  24  25
ENDBRANCH   1  24
TORSDOF 9
ENDMDL
MODEL 2
REMARK VINA RESULT:      -6.9      2.424      4.424
REMARK  Name = 
REMARK  11 active torsions:
REMARK  status: ('A' for Active; 'I' for Inactive)
REMARK    1  A    between atoms: C_1  and  O_2
REMARK    2  A    between atoms: O_2  and  C_3
REMARK    3  A    between atoms: C_3  and  C_5
REMARK    4  A    between atoms: C_5  and  O_6
REMARK    5  A    between atoms: C_5  and  C_14
REMARK    6  A    between atoms: C_5  and  C_18
REMARK    7  A    between atoms: O_6  and  C_7
REMARK    8  A    between atoms: C_14  and  O_16
REMARK    9  A    between atoms: O_16  and  C_17
REMARK   10  A    between atoms: C_21  and  O_22
REMARK   11  A    between atoms: O_22  and  C_23
REMARK                            x       y       z     vdW  Elec       q    Type
REMARK                         _______ _______ _______ _____ _____    ______ ____
ROOT
ATOM      1  C   UNL     1      -0.743  11.672  19.974  0.00  0.00    +0.000 C 
ENDROOT
BRANCH   1   2
ATOM      2  C   UNL     1       0.148  10.391  19.905  0.00  0.00    +0.000 A 
ATOM      3  C   UNL     1       0.904  10.042  18.771  0.00  0.00    +0.000 A 
ATOM      4  C   UNL     1       1.734   8.910  18.781  0.00  0.00    +0.000 A 
ATOM      5  C   UNL     1       1.826   8.116  19.923  0.00  0.00    +0.000 A 
ATOM      6  C   UNL     1       1.015   8.391  21.022  0.00  0.00    +0.000 A 
ATOM      7  C   UNL     1       0.205   9.531  21.021  0.00  0.00    +0.000 A 
BRANCH   5   8
ATOM      8  O   UNL     1       2.701   7.049  19.878  0.00  0.00    +0.000 OA
BRANCH   8   9
ATOM      9  C   UNL     1       2.219   5.805  19.525  0.00  0.00    +0.000 A 
ATOM     10  C   UNL     1       1.690   5.024  20.557  0.00  0.00    +0.000 A 
ATOM     11  C   UNL     1       1.209   3.738  20.291  0.00  0.00    +0.000 A 
ATOM     12  C   UNL     1       1.253   3.237  18.990  0.00  0.00    +0.000 A 
ATOM     13 CL   UNL     1       0.709   1.638  18.668  0.00  0.00    +0.000 Cl
ATOM     14  C   UNL     1       1.736   4.026  17.948  0.00  0.00    +0.000 A 
ATOM     15  C   UNL     1       2.192   5.321  18.212  0.00  0.00    +0.000 A 
ENDBRANCH   8   9
ENDBRANCH   5   8
ENDBRANCH   1   2
BRANCH   1  16
ATOM     16  C   UNL     1      -0.712  12.219  21.429  0.00  0.00    +0.000 C 
ATOM     17  O   UNL     1      -1.574  12.017  22.283  0.00  0.00    +0.000 OA
BRANCH  16  19
ATOM     18  C   UNL     1       0.150  14.222  22.284  0.00  0.00    +0.000 C 
ATOM     19  O   UNL     1       0.418  12.950  21.685  0.00  0.00    +0.000 OA
ENDBRANCH  16  19
ENDBRANCH   1  16
BRANCH   1  20
ATOM     20  C   UNL     1      -0.094  12.693  18.987  0.00  0.00    +0.000 C 
ATOM     21  O   UNL     1       0.965  12.526  18.393  0.00  0.00    +0.000 OA
BRANCH  20  22
ATOM     22  O   UNL     1      -0.880  13.800  18.816  0.00  0.00    +0.000 OA
ATOM     23  C   UNL     1      -0.141  15.017  18.712  0.00  0.00    +0.000 C 
ENDBRANCH  20  22
ENDBRANCH   1  20
BRANCH   1  24
ATOM     24  O   UNL     1      -2.098  11.324  19.623  0.00  0.00    +0.000 OA
BRANCH  24  25
ATOM     25  C   UNL     1      -2.443  10.969  18.343  0.00  0.00    +0.000 A 
ATOM     26  C   UNL     1      -1.820  10.014  17.537  0.00  0.00    +0.000 A 
ATOM     27  C   UNL     1      -2.273   9.768  16.235  0.00  0.00    +0.000 A 
ATOM     28  C   UNL     1      -3.363  10.466  15.733  0.00  0.00    +0.000 A 
ATOM     29 CL   UNL     1      -3.903  10.170  14.128  0.00  0.00    +0.000 Cl
ATOM     30  C   UNL     1      -4.013  11.404  16.528  0.00  0.00    +0.000 A 
ATOM     31  C   UNL     1      -3.551  11.654  17.827  0.00  0.00    +0.000 A 
ENDBRANCH  24  25
ENDBRANCH   1  24
TORSDOF 9
ENDMDL
MODEL 3
REMARK VINA RESULT:      -6.9      3.015      4.545
REMARK  Name = 
REMARK  11 active torsions:
REMARK  status: ('A' for Active; 'I' for Inactive)
REMARK    1  A    between atoms: C_1  and  O_2
REMARK    2  A    between atoms: O_2  and  C_3
REMARK    3  A    between atoms: C_3  and  C_5
REMARK    4  A    between atoms: C_5  and  O_6
REMARK    5  A    between atoms: C_5  and  C_14
REMARK    6  A    between atoms: C_5  and  C_18
REMARK    7  A    between atoms: O_6  and  C_7
REMARK    8  A    between atoms: C_14  and  O_16
REMARK    9  A    between atoms: O_16  and  C_17
REMARK   10  A    between atoms: C_21  and  O_22
REMARK   11  A    between atoms: O_22  and  C_23
REMARK                            x       y       z     vdW  Elec       q    Type
REMARK                         _______ _______ _______ _____ _____    ______ ____
ROOT
ATOM      1  C   UNL     1       0.635  11.755  20.279  0.00  0.00    +0.000 C 
ENDROOT
BRANCH   1   2
ATOM      2  C   UNL     1       1.026  10.368  19.677  0.00  0.00    +0.000 A 
ATOM      3  C   UNL     1       1.267  10.167  18.305  0.00  0.00    +0.000 A 
ATOM      4  C   UNL     1       1.672   8.913  17.823  0.00  0.00    +0.000 A 
ATOM      5  C   UNL     1       1.848   7.845  18.701  0.00  0.00    +0.000 A 
ATOM      6  C   UNL     1       1.524   7.998  20.048  0.00  0.00    +0.000 A 
ATOM      7  C   UNL     1       1.143   9.253  20.532  0.00  0.00    +0.000 A 
BRANCH   5   8
ATOM      8  O   UNL     1       2.298   6.656  18.164  0.00  0.00    +0.000 OA
BRANCH   8   9
ATOM      9  C   UNL     1       3.649   6.374  18.207  0.00  0.00    +0.000 A 
ATOM     10  C   UNL     1       4.078   5.525  19.231  0.00  0.00    +0.000 A 
ATOM     11  C   UNL     1       5.434   5.214  19.366  0.00  0.00    +0.000 A 
ATOM     12  C   UNL     1       6.361   5.749  18.472  0.00  0.00    +0.000 A 
ATOM     13 CL   UNL     1       8.036   5.410  18.665  0.00  0.00    +0.000 Cl
ATOM     14  C   UNL     1       5.937   6.560  17.421  0.00  0.00    +0.000 A 
ATOM     15  C   UNL     1       4.577   6.849  17.273  0.00  0.00    +0.000 A 
ENDBRANCH   8   9
ENDBRANCH   5   8
ENDBRANCH   1   2
BRANCH   1  16
ATOM     16  C   UNL     1       1.831  12.731  20.091  0.00  0.00    +0.000 C 
ATOM     17  O   UNL     1       2.530  13.182  20.997  0.00  0.00    +0.000 OA
BRANCH  16  19
ATOM     18  C   UNL     1       3.193  13.873  18.566  0.00  0.00    +0.000 C 
ATOM     19  O   UNL     1       2.055  13.030  18.773  0.00  0.00    +0.000 OA
ENDBRANCH  16  19
ENDBRANCH   1  16
BRANCH   1  20
ATOM     20  C   UNL     1      -0.604  12.237  19.462  0.00  0.00    +0.000 C 
ATOM     21  O   UNL     1      -0.770  13.373  19.034  0.00  0.00    +0.000 OA
BRANCH  20  22
ATOM     22  O   UNL     1      -1.485  11.216  19.229  0.00  0.00    +0.000 OA
ATOM     23  C   UNL     1      -2.285  11.403  18.063  0.00  0.00    +0.000 C 
ENDBRANCH  20  22
ENDBRANCH   1  20
BRANCH   1  24
ATOM     24  O   UNL     1       0.363  11.598  21.687  0.00  0.00    +0.000 OA
BRANCH  24  25
ATOM     25  C   UNL     1      -0.593  12.348  22.324  0.00  0.00    +0.000 A 
ATOM     26  C   UNL     1      -0.552  13.719  22.585  0.00  0.00    +0.000 A 
ATOM     27  C   UNL     1      -1.600  14.352  23.266  0.00  0.00    +0.000 A 
ATOM     28  C   UNL     1      -2.704  13.620  23.679  0.00  0.00    +0.000 A 
ATOM     29 CL   UNL     1      -3.979  14.401  24.529  0.00  0.00    +0.000 Cl
ATOM     30  C   UNL     1      -2.776  12.257  23.408  0.00  0.00    +0.000 A 
ATOM     31  C   UNL     1      -1.722  11.626  22.735  0.00  0.00    +0.000 A 
ENDBRANCH  24  25
ENDBRANCH   1  24
TORSDOF 9
ENDMDL
MODEL 4
REMARK VINA RESULT:      -6.9      2.374      4.369
REMARK  Name = 
REMARK  11 active torsions:
REMARK  status: ('A' for Active; 'I' for Inactive)
REMARK    1  A    between atoms: C_1  and  O_2
REMARK    2  A    between atoms: O_2  and  C_3
REMARK    3  A    between atoms: C_3  and  C_5
REMARK    4  A    between atoms: C_5  and  O_6
REMARK    5  A    between atoms: C_5  and  C_14
REMARK    6  A    between atoms: C_5  and  C_18
REMARK    7  A    between atoms: O_6  and  C_7
REMARK    8  A    between atoms: C_14  and  O_16
REMARK    9  A    between atoms: O_16  and  C_17
REMARK   10  A    between atoms: C_21  and  O_22
REMARK   11  A    between atoms: O_22  and  C_23
REMARK                            x       y       z     vdW  Elec       q    Type
REMARK                         _______ _______ _______ _____ _____    ______ ____
ROOT
ATOM      1  C   UNL     1      -1.158  11.903  20.036  0.00  0.00    +0.000 C 
ENDROOT
BRANCH   1   2
ATOM      2  C   UNL     1      -0.173  10.697  19.911  0.00  0.00    +0.000 A 
ATOM      3  C   UNL     1       0.768  10.579  18.872  0.00  0.00    +0.000 A 
ATOM      4  C   UNL     1       1.669   9.503  18.838  0.00  0.00    +0.000 A 
ATOM      5  C   UNL     1       1.647   8.536  19.841  0.00  0.00    +0.000 A 
ATOM      6  C   UNL     1       0.663   8.584  20.826  0.00  0.00    +0.000 A 
ATOM      7  C   UNL     1      -0.220   9.667  20.873  0.00  0.00    +0.000 A 
BRANCH   5   8
ATOM      8  O   UNL     1       2.597   7.536  19.771  0.00  0.00    +0.000 OA
BRANCH   8   9
ATOM      9  C   UNL     1       2.181   6.234  19.575  0.00  0.00    +0.000 A 
ATOM     10  C   UNL     1       2.215   5.759  18.260  0.00  0.00    +0.000 A 
ATOM     11  C   UNL     1       1.780   4.462  17.970  0.00  0.00    +0.000 A 
ATOM     12  C   UNL     1       1.316   3.640  18.996  0.00  0.00    +0.000 A 
ATOM     13 CL   UNL     1       0.733   2.063  18.636  0.00  0.00    +0.000 Cl
ATOM     14  C   UNL     1       1.321   4.090  20.315  0.00  0.00    +0.000 A 
ATOM     15  C   UNL     1       1.781   5.378  20.607  0.00  0.00    +0.000 A 
ENDBRANCH   8   9
ENDBRANCH   5   8
ENDBRANCH   1   2
BRANCH   1  16
ATOM     16  C   UNL     1      -1.172  12.380  21.516  0.00  0.00    +0.000 C 
ATOM     17  O   UNL     1      -0.175  12.617  22.197  0.00  0.00    +0.000 OA
BRANCH  16  19
ATOM     18  C   UNL     1      -2.811  13.911  22.188  0.00  0.00    +0.000 C 
ATOM     19  O   UNL     1      -2.444  12.541  21.998  0.00  0.00    +0.000 OA
ENDBRANCH  16  19
ENDBRANCH   1  16
BRANCH   1  20
ATOM     20  C   UNL     1      -0.585  13.016  19.104  0.00  0.00    +0.000 C 
ATOM     21  O   UNL     1      -0.412  12.906  17.895  0.00  0.00    +0.000 OA
BRANCH  20  22
ATOM     22  O   UNL     1      -0.334  14.173  19.791  0.00  0.00    +0.000 OA
ATOM     23  C   UNL     1       0.316  15.174  19.011  0.00  0.00    +0.000 C 
ENDBRANCH  20  22
ENDBRANCH   1  20
BRANCH   1  24
ATOM     24  O   UNL     1      -2.482  11.472  19.661  0.00  0.00    +0.000 OA
BRANCH  24  25
ATOM     25  C   UNL     1      -2.769  11.048  18.388  0.00  0.00    +0.000 A 
ATOM     26  C   UNL     1      -2.182   9.981  17.704  0.00  0.00    +0.000 A 
ATOM     27  C   UNL     1      -2.564   9.671  16.393  0.00  0.00    +0.000 A 
ATOM     28  C   UNL     1      -3.547  10.420  15.759  0.00  0.00    +0.000 A 
ATOM     29 CL   UNL     1      -3.998  10.044  14.143  0.00  0.00    +0.000 Cl
ATOM     30  C   UNL     1      -4.161  11.472  16.431  0.00  0.00    +0.000 A 
ATOM     31  C   UNL     1      -3.770  11.783  17.740  0.00  0.00    +0.000 A 
ENDBRANCH  24  25
ENDBRANCH   1  24
TORSDOF 9
ENDMDL
MODEL 5
REMARK VINA RESULT:      -6.8      2.429      4.486
REMARK  Name = 
REMARK  11 active torsions:
REMARK  status: ('A' for Active; 'I' for Inactive)
REMARK    1  A    between atoms: C_1  and  O_2
REMARK    2  A    between atoms: O_2  and  C_3
REMARK    3  A    between atoms: C_3  and  C_5
REMARK    4  A    between atoms: C_5  and  O_6
REMARK    5  A    between atoms: C_5  and  C_14
REMARK    6  A    between atoms: C_5  and  C_18
REMARK    7  A    between atoms: O_6  and  C_7
REMARK    8  A    between atoms: C_14  and  O_16
REMARK    9  A    between atoms: O_16  and  C_17
REMARK   10  A    between atoms: C_21  and  O_22
REMARK   11  A    between atoms: O_22  and  C_23
REMARK                            x       y       z     vdW  Elec       q    Type
REMARK                         _______ _______ _______ _____ _____    ______ ____
ROOT
ATOM      1  C   UNL     1      -0.573  11.636  19.893  0.00  0.00    +0.000 C 
ENDROOT
BRANCH   1   2
ATOM      2  C   UNL     1       0.304  10.348  19.787  0.00  0.00    +0.000 A 
ATOM      3  C   UNL     1       1.036  10.011  18.634  0.00  0.00    +0.000 A 
ATOM      4  C   UNL     1       1.855   8.871  18.611  0.00  0.00    +0.000 A 
ATOM      5  C   UNL     1       1.960   8.058  19.738  0.00  0.00    +0.000 A 
ATOM      6  C   UNL     1       1.173   8.323  20.856  0.00  0.00    +0.000 A 
ATOM      7  C   UNL     1       0.374   9.470  20.888  0.00  0.00    +0.000 A 
BRANCH   5   8
ATOM      8  O   UNL     1       2.825   6.984  19.660  0.00  0.00    +0.000 OA
BRANCH   8   9
ATOM      9  C   UNL     1       2.312   5.734  19.375  0.00  0.00    +0.000 A 
ATOM     10  C   UNL     1       1.816   5.001  20.457  0.00  0.00    +0.000 A 
ATOM     11  C   UNL     1       1.308   3.713  20.260  0.00  0.00    +0.000 A 
ATOM     12  C   UNL     1       1.291   3.163  18.980  0.00  0.00    +0.000 A 
ATOM     13 CL   UNL     1       0.714   1.560  18.741  0.00  0.00    +0.000 Cl
ATOM     14  C   UNL     1       1.741   3.904  17.889  0.00  0.00    +0.000 A 
ATOM     15  C   UNL     1       2.225   5.201  18.084  0.00  0.00    +0.000 A 
ENDBRANCH   8   9
ENDBRANCH   5   8
ENDBRANCH   1   2
BRANCH   1  16
ATOM     16  C   UNL     1      -0.404  12.234  21.318  0.00  0.00    +0.000 C 
ATOM     17  O   UNL     1       0.637  12.703  21.774  0.00  0.00    +0.000 OA
BRANCH  16  19
ATOM     18  C   UNL     1      -1.523  11.362  23.181  0.00  0.00    +0.000 C 
ATOM     19  O   UNL     1      -1.574  12.212  22.032  0.00  0.00    +0.000 OA
ENDBRANCH  16  19
ENDBRANCH   1  16
BRANCH   1  20
ATOM     20  C   UNL     1      -0.017  12.617  18.813  0.00  0.00    +0.000 C 
ATOM     21  O   UNL     1       0.973  12.417  18.119  0.00  0.00    +0.000 OA
BRANCH  20  22
ATOM     22  O   UNL     1      -0.803  13.731  18.690  0.00  0.00    +0.000 OA
ATOM     23  C   UNL     1      -0.089  14.956  18.847  0.00  0.00    +0.000 C 
ENDBRANCH  20  22
ENDBRANCH   1  20
BRANCH   1  24
ATOM     24  O   UNL     1      -1.956  11.283  19.683  0.00  0.00    +0.000 OA
BRANCH  24  25
ATOM     25  C   UNL     1      -2.468  11.091  18.425  0.00  0.00    +0.000 A 
ATOM     26  C   UNL     1      -3.511  11.798  17.823  0.00  0.00    +0.000 A 
ATOM     27  C   UNL     1      -3.944  11.478  16.531  0.00  0.00    +0.000 A 
ATOM     28  C   UNL     1      -3.327  10.455  15.823  0.00  0.00    +0.000 A 
ATOM     29 CL   UNL     1      -3.875  10.057  14.242  0.00  0.00    +0.000 Cl
ATOM     30  C   UNL     1      -2.270   9.754  16.395  0.00  0.00    +0.000 A 
ATOM     31  C   UNL     1      -1.846  10.072  17.692  0.00  0.00    +0.000 A 
ENDBRANCH  24  25
ENDBRANCH   1  24
TORSDOF 9
ENDMDL
MODEL 6
REMARK VINA RESULT:      -6.8      2.960      4.506
REMARK  Name = 
REMARK  11 active torsions:
REMARK  status: ('A' for Active; 'I' for Inactive)
REMARK    1  A    between atoms: C_1  and  O_2
REMARK    2  A    between atoms: O_2  and  C_3
REMARK    3  A    between atoms: C_3  and  C_5
REMARK    4  A    between atoms: C_5  and  O_6
REMARK    5  A    between atoms: C_5  and  C_14
REMARK    6  A    between atoms: C_5  and  C_18
REMARK    7  A    between atoms: O_6  and  C_7
REMARK    8  A    between atoms: C_14  and  O_16
REMARK    9  A    between atoms: O_16  and  C_17
REMARK   10  A    between atoms: C_21  and  O_22
REMARK   11  A    between atoms: O_22  and  C_23
REMARK                            x       y       z     vdW  Elec       q    Type
REMARK                         _______ _______ _______ _____ _____    ______ ____
ROOT
ATOM      1  C   UNL     1       1.005  11.317  19.632  0.00  0.00    +0.000 C 
ENDROOT
BRANCH   1   2
ATOM      2  C   UNL     1       1.403   9.834  19.345  0.00  0.00    +0.000 A 
ATOM      3  C   UNL     1       1.638   9.340  18.049  0.00  0.00    +0.000 A 
ATOM      4  C   UNL     1       2.050   8.013  17.851  0.00  0.00    +0.000 A 
ATOM      5  C   UNL     1       2.238   7.164  18.940  0.00  0.00    +0.000 A 
ATOM      6  C   UNL     1       1.921   7.606  20.223  0.00  0.00    +0.000 A 
ATOM      7  C   UNL     1       1.532   8.935  20.424  0.00  0.00    +0.000 A 
BRANCH   5   8
ATOM      8  O   UNL     1       2.695   5.889  18.673  0.00  0.00    +0.000 OA
BRANCH   8   9
ATOM      9  C   UNL     1       3.733   5.727  17.778  0.00  0.00    +0.000 A 
ATOM     10  C   UNL     1       3.792   4.503  17.103  0.00  0.00    +0.000 A 
ATOM     11  C   UNL     1       4.829   4.246  16.202  0.00  0.00    +0.000 A 
ATOM     12  C   UNL     1       5.806   5.214  15.974  0.00  0.00    +0.000 A 
ATOM     13 CL   UNL     1       7.113   4.881  14.906  0.00  0.00    +0.000 Cl
ATOM     14  C   UNL     1       5.731   6.452  16.608  0.00  0.00    +0.000 A 
ATOM     15  C   UNL     1       4.678   6.718  17.488  0.00  0.00    +0.000 A 
ENDBRANCH   8   9
ENDBRANCH   5   8
ENDBRANCH   1   2
BRANCH   1  16
ATOM     16  C   UNL     1       2.054  12.250  18.963  0.00  0.00    +0.000 C 
ATOM     17  O   UNL     1       2.573  12.063  17.865  0.00  0.00    +0.000 OA
BRANCH  16  19
ATOM     18  C   UNL     1       2.414  14.564  18.976  0.00  0.00    +0.000 C 
ATOM     19  O   UNL     1       2.333  13.350  19.730  0.00  0.00    +0.000 OA
ENDBRANCH  16  19
ENDBRANCH   1  16
BRANCH   1  20
ATOM     20  C   UNL     1      -0.401  11.511  18.982  0.00  0.00    +0.000 C 
ATOM     21  O   UNL     1      -0.758  12.501  18.353  0.00  0.00    +0.000 OA
BRANCH  20  22
ATOM     22  O   UNL     1      -1.195  10.410  19.154  0.00  0.00    +0.000 OA
ATOM     23  C   UNL     1      -2.110  10.189  18.082  0.00  0.00    +0.000 C 
ENDBRANCH  20  22
ENDBRANCH   1  20
BRANCH   1  24
ATOM     24  O   UNL     1       1.008  11.539  21.058  0.00  0.00    +0.000 OA
BRANCH  24  25
ATOM     25  C   UNL     1      -0.088  12.043  21.711  0.00  0.00    +0.000 A 
ATOM     26  C   UNL     1      -0.553  13.359  21.687  0.00  0.00    +0.000 A 
ATOM     27  C   UNL     1      -1.682  13.736  22.423  0.00  0.00    +0.000 A 
ATOM     28  C   UNL     1      -2.366  12.794  23.180  0.00  0.00    +0.000 A 
ATOM     29 CL   UNL     1      -3.743  13.269  24.094  0.00  0.00    +0.000 Cl
ATOM     30  C   UNL     1      -1.935  11.472  23.199  0.00  0.00    +0.000 A 
ATOM     31  C   UNL     1      -0.798  11.101  22.468  0.00  0.00    +0.000 A 
ENDBRANCH  24  25
ENDBRANCH   1  24
TORSDOF 9
ENDMDL
MODEL 7
REMARK VINA RESULT:      -6.8      3.618      8.870
REMARK  Name = 
REMARK  11 active torsions:
REMARK  status: ('A' for Active; 'I' for Inactive)
REMARK    1  A    between atoms: C_1  and  O_2
REMARK    2  A    between atoms: O_2  and  C_3
REMARK    3  A    between atoms: C_3  and  C_5
REMARK    4  A    between atoms: C_5  and  O_6
REMARK    5  A    between atoms: C_5  and  C_14
REMARK    6  A    between atoms: C_5  and  C_18
REMARK    7  A    between atoms: O_6  and  C_7
REMARK    8  A    between atoms: C_14  and  O_16
REMARK    9  A    between atoms: O_16  and  C_17
REMARK   10  A    between atoms: C_21  and  O_22
REMARK   11  A    between atoms: O_22  and  C_23
REMARK                            x       y       z     vdW  Elec       q    Type
REMARK                         _______ _______ _______ _____ _____    ______ ____
ROOT
ATOM      1  C   UNL     1       3.048   4.646  18.736  0.00  0.00    +0.000 C 
ENDROOT
BRANCH   1   2
ATOM      2  C   UNL     1       2.594   6.110  19.032  0.00  0.00    +0.000 A 
ATOM      3  C   UNL     1       2.713   7.155  18.097  0.00  0.00    +0.000 A 
ATOM      4  C   UNL     1       2.237   8.441  18.393  0.00  0.00    +0.000 A 
ATOM      5  C   UNL     1       1.631   8.702  19.620  0.00  0.00    +0.000 A 
ATOM      6  C   UNL     1       1.589   7.707  20.595  0.00  0.00    +0.000 A 
ATOM      7  C   UNL     1       2.042   6.419  20.292  0.00  0.00    +0.000 A 
BRANCH   5   8
ATOM      8  O   UNL     1       1.139   9.977  19.821  0.00  0.00    +0.000 OA
BRANCH   8   9
ATOM      9  C   UNL     1      -0.059  10.329  19.234  0.00  0.00    +0.000 A 
ATOM     10  C   UNL     1      -0.380   9.685  18.034  0.00  0.00    +0.000 A 
ATOM     11  C   UNL     1      -1.561  10.007  17.358  0.00  0.00    +0.000 A 
ATOM     12  C   UNL     1      -2.422  10.969  17.883  0.00  0.00    +0.000 A 
ATOM     13 CL   UNL     1      -3.849  11.404  17.028  0.00  0.00    +0.000 Cl
ATOM     14  C   UNL     1      -2.132  11.582  19.100  0.00  0.00    +0.000 A 
ATOM     15  C   UNL     1      -0.965  11.240  19.789  0.00  0.00    +0.000 A 
ENDBRANCH   8   9
ENDBRANCH   5   8
ENDBRANCH   1   2
BRANCH   1  16
ATOM     16  C   UNL     1       4.498   4.460  19.266  0.00  0.00    +0.000 C 
ATOM     17  O   UNL     1       5.038   3.379  19.496  0.00  0.00    +0.000 OA
BRANCH  16  19
ATOM     18  C   UNL     1       6.556   5.575  19.201  0.00  0.00    +0.000 C 
ATOM     19  O   UNL     1       5.147   5.655  19.434  0.00  0.00    +0.000 OA
ENDBRANCH  16  19
ENDBRANCH   1  16
BRANCH   1  20
ATOM     20  C   UNL     1       2.054   3.729  19.514  0.00  0.00    +0.000 C 
ATOM     21  O   UNL     1       0.930   3.422  19.135  0.00  0.00    +0.000 OA
BRANCH  20  22
ATOM     22  O   UNL     1       2.606   3.254  20.674  0.00  0.00    +0.000 OA
ATOM     23  C   UNL     1       1.641   2.876  21.655  0.00  0.00    +0.000 C 
ENDBRANCH  20  22
ENDBRANCH   1  20
BRANCH   1  24
ATOM     24  O   UNL     1       3.029   4.425  17.310  0.00  0.00    +0.000 OA
BRANCH  24  25
ATOM     25  C   UNL     1       4.172   4.493  16.555  0.00  0.00    +0.000 A 
ATOM     26  C   UNL     1       4.998   3.433  16.178  0.00  0.00    +0.000 A 
ATOM     27  C   UNL     1       6.151   3.655  15.415  0.00  0.00    +0.000 A 
ATOM     28  C   UNL     1       6.479   4.943  15.010  0.00  0.00    +0.000 A 
ATOM     29 CL   UNL     1       7.905   5.210  14.087  0.00  0.00    +0.000 Cl
ATOM     30  C   UNL     1       5.657   6.010  15.354  0.00  0.00    +0.000 A 
ATOM     31  C   UNL     1       4.509   5.784  16.125  0.00  0.00    +0.000 A 
ENDBRANCH  24  25
ENDBRANCH   1  24
TORSDOF 9
ENDMDL
MODEL 8
REMARK VINA RESULT:      -6.8      0.498      1.177
REMARK  Name = 
REMARK  11 active torsions:
REMARK  status: ('A' for Active; 'I' for Inactive)
REMARK    1  A    between atoms: C_1  and  O_2
REMARK    2  A    between atoms: O_2  and  C_3
REMARK    3  A    between atoms: C_3  and  C_5
REMARK    4  A    between atoms: C_5  and  O_6
REMARK    5  A    between atoms: C_5  and  C_14
REMARK    6  A    between atoms: C_5  and  C_18
REMARK    7  A    between atoms: O_6  and  C_7
REMARK    8  A    between atoms: C_14  and  O_16
REMARK    9  A    between atoms: O_16  and  C_17
REMARK   10  A    between atoms: C_21  and  O_22
REMARK   11  A    between atoms: O_22  and  C_23
REMARK                            x       y       z     vdW  Elec       q    Type
REMARK                         _______ _______ _______ _____ _____    ______ ____
ROOT
ATOM      1  C   UNL     1      -1.078  11.512  18.711  0.00  0.00    +0.000 C 
ENDROOT
BRANCH   1   2
ATOM      2  C   UNL     1      -0.020  10.404  19.014  0.00  0.00    +0.000 A 
ATOM      3  C   UNL     1       0.122   9.804  20.278  0.00  0.00    +0.000 A 
ATOM      4  C   UNL     1       1.051   8.772  20.483  0.00  0.00    +0.000 A 
ATOM      5  C   UNL     1       1.844   8.321  19.430  0.00  0.00    +0.000 A 
ATOM      6  C   UNL     1       1.785   8.965  18.196  0.00  0.00    +0.000 A 
ATOM      7  C   UNL     1       0.845   9.978  17.985  0.00  0.00    +0.000 A 
BRANCH   5   8
ATOM      8  O   UNL     1       2.697   7.267  19.691  0.00  0.00    +0.000 OA
BRANCH   8   9
ATOM      9  C   UNL     1       2.231   5.977  19.534  0.00  0.00    +0.000 A 
ATOM     10  C   UNL     1       2.306   5.438  18.246  0.00  0.00    +0.000 A 
ATOM     11  C   UNL     1       1.827   4.149  17.994  0.00  0.00    +0.000 A 
ATOM     12  C   UNL     1       1.276   3.399  19.031  0.00  0.00    +0.000 A 
ATOM     13 CL   UNL     1       0.638   1.833  18.714  0.00  0.00    +0.000 Cl
ATOM     14  C   UNL     1       1.238   3.910  20.327  0.00  0.00    +0.000 A 
ATOM     15  C   UNL     1       1.743   5.189  20.582  0.00  0.00    +0.000 A 
ENDBRANCH   8   9
ENDBRANCH   5   8
ENDBRANCH   1   2
BRANCH   1  16
ATOM     16  C   UNL     1      -2.249  10.873  17.910  0.00  0.00    +0.000 C 
ATOM     17  O   UNL     1      -2.758   9.779  18.147  0.00  0.00    +0.000 OA
BRANCH  16  19
ATOM     18  C   UNL     1      -3.216  10.966  15.780  0.00  0.00    +0.000 C 
ATOM     19  O   UNL     1      -2.690  11.685  16.899  0.00  0.00    +0.000 OA
ENDBRANCH  16  19
ENDBRANCH   1  16
BRANCH   1  20
ATOM     20  C   UNL     1      -1.573  12.017  20.102  0.00  0.00    +0.000 C 
ATOM     21  O   UNL     1      -2.731  12.311  20.377  0.00  0.00    +0.000 OA
BRANCH  20  22
ATOM     22  O   UNL     1      -0.556  12.053  21.018  0.00  0.00    +0.000 OA
ATOM     23  C   UNL     1      -0.772  12.982  22.079  0.00  0.00    +0.000 C 
ENDBRANCH  20  22
ENDBRANCH   1  20
BRANCH   1  24
ATOM     24  O   UNL     1      -0.464  12.547  17.915  0.00  0.00    +0.000 OA
BRANCH  24  25
ATOM     25  C   UNL     1       0.188  13.608  18.490  0.00  0.00    +0.000 A 
ATOM     26  C   UNL     1      -0.370  14.825  18.886  0.00  0.00    +0.000 A 
ATOM     27  C   UNL     1       0.426  15.831  19.447  0.00  0.00    +0.000 A 
ATOM     28  C   UNL     1       1.787  15.622  19.629  0.00  0.00    +0.000 A 
ATOM     29 CL   UNL     1       2.760  16.868  20.304  0.00  0.00    +0.000 Cl
ATOM     30  C   UNL     1       2.358  14.408  19.264  0.00  0.00    +0.000 A 
ATOM     31  C   UNL     1       1.559  13.407  18.695  0.00  0.00    +0.000 A 
ENDBRANCH  24  25
ENDBRANCH   1  24
TORSDOF 9
ENDMDL
MODEL 9
REMARK VINA RESULT:      -6.7      3.466      8.775
REMARK  Name = 
REMARK  11 active torsions:
REMARK  status: ('A' for Active; 'I' for Inactive)
REMARK    1  A    between atoms: C_1  and  O_2
REMARK    2  A    between atoms: O_2  and  C_3
REMARK    3  A    between atoms: C_3  and  C_5
REMARK    4  A    between atoms: C_5  and  O_6
REMARK    5  A    between atoms: C_5  and  C_14
REMARK    6  A    between atoms: C_5  and  C_18
REMARK    7  A    between atoms: O_6  and  C_7
REMARK    8  A    between atoms: C_14  and  O_16
REMARK    9  A    between atoms: O_16  and  C_17
REMARK   10  A    between atoms: C_21  and  O_22
REMARK   11  A    between atoms: O_22  and  C_23
REMARK                            x       y       z     vdW  Elec       q    Type
REMARK                         _______ _______ _______ _____ _____    ______ ____
ROOT
ATOM      1  C   UNL     1       2.831   5.290  18.984  0.00  0.00    +0.000 C 
ENDROOT
BRANCH   1   2
ATOM      2  C   UNL     1       2.324   6.767  18.944  0.00  0.00    +0.000 A 
ATOM      3  C   UNL     1       2.332   7.550  17.776  0.00  0.00    +0.000 A 
ATOM      4  C   UNL     1       1.812   8.854  17.782  0.00  0.00    +0.000 A 
ATOM      5  C   UNL     1       1.272   9.391  18.949  0.00  0.00    +0.000 A 
ATOM      6  C   UNL     1       1.341   8.667  20.137  0.00  0.00    +0.000 A 
ATOM      7  C   UNL     1       1.838   7.360  20.128  0.00  0.00    +0.000 A 
BRANCH   5   8
ATOM      8  O   UNL     1       0.732  10.659  18.867  0.00  0.00    +0.000 OA
BRANCH   8   9
ATOM      9  C   UNL     1      -0.619  10.792  18.614  0.00  0.00    +0.000 A 
ATOM     10  C   UNL     1      -1.161   9.943  17.644  0.00  0.00    +0.000 A 
ATOM     11  C   UNL     1      -2.514  10.034  17.306  0.00  0.00    +0.000 A 
ATOM     12  C   UNL     1      -3.326  10.972  17.941  0.00  0.00    +0.000 A 
ATOM     13 CL   UNL     1      -4.979  11.122  17.491  0.00  0.00    +0.000 Cl
ATOM     14  C   UNL     1      -2.805  11.791  18.941  0.00  0.00    +0.000 A 
ATOM     15  C   UNL     1      -1.458  11.680  19.297  0.00  0.00    +0.000 A 
ENDBRANCH   8   9
ENDBRANCH   5   8
ENDBRANCH   1   2
BRANCH   1  16
ATOM     16  C   UNL     1       2.385   4.650  20.329  0.00  0.00    +0.000 C 
ATOM     17  O   UNL     1       1.341   4.904  20.926  0.00  0.00    +0.000 OA
BRANCH  16  19
ATOM     18  C   UNL     1       2.677   2.640  21.495  0.00  0.00    +0.000 C 
ATOM     19  O   UNL     1       3.285   3.724  20.786  0.00  0.00    +0.000 OA
ENDBRANCH  16  19
ENDBRANCH   1  16
BRANCH   1  20
ATOM     20  C   UNL     1       2.145   4.575  17.778  0.00  0.00    +0.000 C 
ATOM     21  O   UNL     1       1.083   4.912  17.267  0.00  0.00    +0.000 OA
BRANCH  20  22
ATOM     22  O   UNL     1       2.901   3.534  17.311  0.00  0.00    +0.000 OA
ATOM     23  C   UNL     1       2.413   2.251  17.701  0.00  0.00    +0.000 C 
ENDBRANCH  20  22
ENDBRANCH   1  20
BRANCH   1  24
ATOM     24  O   UNL     1       4.271   5.283  18.905  0.00  0.00    +0.000 OA
BRANCH  24  25
ATOM     25  C   UNL     1       4.928   5.321  17.702  0.00  0.00    +0.000 A 
ATOM     26  C   UNL     1       4.779   6.272  16.690  0.00  0.00    +0.000 A 
ATOM     27  C   UNL     1       5.507   6.174  15.498  0.00  0.00    +0.000 A 
ATOM     28  C   UNL     1       6.402   5.128  15.314  0.00  0.00    +0.000 A 
ATOM     29 CL   UNL     1       7.281   5.005  13.841  0.00  0.00    +0.000 Cl
ATOM     30  C   UNL     1       6.583   4.183  16.318  0.00  0.00    +0.000 A 
ATOM     31  C   UNL     1       5.846   4.280  17.506  0.00  0.00    +0.000 A 
ENDBRANCH  24  25
ENDBRANCH   1  24
TORSDOF 9
ENDMDL
