MODEL 1
REMARK VINA RESULT:      -8.8      0.000      0.000
REMARK  Name = 
REMARK  6 active torsions:
REMARK  status: ('A' for Active; 'I' for Inactive)
REMARK    1  A    between atoms: C_4  and  C_5
REMARK    2  A    between atoms: C_5  and  O_6
REMARK    3  A    between atoms: O_6  and  C_7
REMARK    4  A    between atoms: C_10  and  C_11
REMARK    5  A    between atoms: C_15  and  C_16
REMARK    6  A    between atoms: C_24  and  C_25
REMARK                            x       y       z     vdW  Elec       q    Type
REMARK                         _______ _______ _______ _____ _____    ______ ____
ROOT
ATOM      1  C   UNL     1       3.153   6.748  18.426  0.00  0.00    +0.000 A 
ATOM      2  C   UNL     1       2.927   8.089  17.767  0.00  0.00    +0.000 A 
ATOM      3  N   UNL     1       2.159   9.053  18.171  0.00  0.00    +0.000 NA
ATOM      4  C   UNL     1       1.509   8.813  19.344  0.00  0.00    +0.000 A 
ATOM      5  C   UNL     1       0.623   9.578  20.071  0.00  0.00    +0.000 A 
ATOM      6  C   UNL     1       0.299   8.825  21.198  0.00  0.00    +0.000 A 
ATOM      7  N   UNL     1       0.956   7.668  21.233  0.00  0.00    +0.000 NA
ATOM      8  N   UNL     1       1.664   7.615  20.065  0.00  0.00    +0.000 N 
ATOM      9  C   UNL     1       2.476   6.536  19.594  0.00  0.00    +0.000 A 
ENDROOT
BRANCH   1  13
ATOM     10  C   UNL     1       5.844   4.377  16.084  0.00  0.00    +0.000 A 
ATOM     11  C   UNL     1       6.339   5.325  16.979  0.00  0.00    +0.000 A 
ATOM     12  C   UNL     1       5.460   6.034  17.815  0.00  0.00    +0.000 A 
ATOM     13  C   UNL     1       4.072   5.850  17.706  0.00  0.00    +0.000 A 
ATOM     14  C   UNL     1       3.593   4.813  16.901  0.00  0.00    +0.000 A 
ATOM     15  C   UNL     1       4.476   4.090  16.089  0.00  0.00    +0.000 A 
BRANCH  10  16
ATOM     16  O   UNL     1       6.567   3.690  15.151  0.00  0.00    +0.000 OA
BRANCH  16  17
ATOM     17  C   UNL     1       6.862   4.346  13.918  0.00  0.00    +0.000 C 
BRANCH  17  21
ATOM     18  C   UNL     1       4.764   2.161  10.844  0.00  0.00    +0.000 A 
ATOM     19  C   UNL     1       4.143   3.246  11.477  0.00  0.00    +0.000 A 
ATOM     20  C   UNL     1       4.824   3.964  12.457  0.00  0.00    +0.000 A 
ATOM     21  C   UNL     1       6.133   3.614  12.815  0.00  0.00    +0.000 A 
ATOM     22  C   UNL     1       6.748   2.534  12.164  0.00  0.00    +0.000 A 
ATOM     23  C   UNL     1       6.067   1.813  11.186  0.00  0.00    +0.000 A 
ENDBRANCH  17  21
ENDBRANCH  16  17
ENDBRANCH  10  16
ENDBRANCH   1  13
BRANCH   5  24
ATOM     24  C   UNL     1       0.139  10.922  19.723  0.00  0.00    +0.000 A 
ATOM     25  N   UNL     1      -0.138  11.886  20.575  0.00  0.00    +0.000 NA
ATOM     26  C   UNL     1      -0.519  12.915  19.762  0.00  0.00    +0.000 A 
ATOM     27  N   UNL     1      -0.506  12.648  18.452  0.00  0.00    +0.000 NA
ATOM     28  N   UNL     1      -0.082  11.372  18.453  0.00  0.00    +0.000 N 
ATOM     29  H   UNL     1       0.040  10.863  17.583  0.00  0.00    +0.000 HD
ENDBRANCH   5  24
BRANCH   9  30
ATOM     30  C   UNL     1       2.482   5.321  20.574  0.00  0.00    +0.000 C 
ATOM     31  C   UNL     1       1.177   4.476  20.564  0.00  0.00    +0.000 C 
ATOM     32  C   UNL     1       1.079   3.553  19.360  0.00  0.00    +0.000 C 
ATOM     33  C   UNL     1       2.247   2.580  19.301  0.00  0.00    +0.000 C 
ATOM     34  C   UNL     1       3.597   3.244  19.520  0.00  0.00    +0.000 C 
ATOM     35  C   UNL     1       3.647   4.312  20.605  0.00  0.00    +0.000 C 
ENDBRANCH   9  30
TORSDOF 6
ENDMDL
MODEL 2
REMARK VINA RESULT:      -8.8      0.740      1.125
REMARK  Name = 
REMARK  6 active torsions:
REMARK  status: ('A' for Active; 'I' for Inactive)
REMARK    1  A    between atoms: C_4  and  C_5
REMARK    2  A    between atoms: C_5  and  O_6
REMARK    3  A    between atoms: O_6  and  C_7
REMARK    4  A    between atoms: C_10  and  C_11
REMARK    5  A    between atoms: C_15  and  C_16
REMARK    6  A    between atoms: C_24  and  C_25
REMARK                            x       y       z     vdW  Elec       q    Type
REMARK                         _______ _______ _______ _____ _____    ______ ____
ROOT
ATOM      1  C   UNL     1       3.657   6.805  18.110  0.00  0.00    +0.000 A 
ATOM      2  C   UNL     1       3.226   8.130  17.525  0.00  0.00    +0.000 A 
ATOM      3  N   UNL     1       2.343   8.956  17.993  0.00  0.00    +0.000 NA
ATOM      4  C   UNL     1       1.765   8.571  19.165  0.00  0.00    +0.000 A 
ATOM      5  C   UNL     1       0.802   9.169  19.948  0.00  0.00    +0.000 A 
ATOM      6  C   UNL     1       0.617   8.325  21.041  0.00  0.00    +0.000 A 
ATOM      7  N   UNL     1       1.431   7.272  21.005  0.00  0.00    +0.000 NA
ATOM      8  N   UNL     1       2.107   7.375  19.821  0.00  0.00    +0.000 N 
ATOM      9  C   UNL     1       3.048   6.445  19.280  0.00  0.00    +0.000 A 
ENDROOT
BRANCH   1  13
ATOM     10  C   UNL     1       6.598   4.958  15.604  0.00  0.00    +0.000 A 
ATOM     11  C   UNL     1       6.982   5.887  16.570  0.00  0.00    +0.000 A 
ATOM     12  C   UNL     1       6.029   6.419  17.454  0.00  0.00    +0.000 A 
ATOM     13  C   UNL     1       4.673   6.080  17.327  0.00  0.00    +0.000 A 
ATOM     14  C   UNL     1       4.315   5.059  16.443  0.00  0.00    +0.000 A 
ATOM     15  C   UNL     1       5.274   4.510  15.581  0.00  0.00    +0.000 A 
BRANCH  10  16
ATOM     16  O   UNL     1       7.393   4.435  14.623  0.00  0.00    +0.000 OA
BRANCH  16  17
ATOM     17  C   UNL     1       7.168   4.865  13.280  0.00  0.00    +0.000 C 
BRANCH  17  21
ATOM     18  C   UNL     1       5.784   1.534  10.910  0.00  0.00    +0.000 A 
ATOM     19  C   UNL     1       7.156   1.713  11.128  0.00  0.00    +0.000 A 
ATOM     20  C   UNL     1       7.606   2.778  11.907  0.00  0.00    +0.000 A 
ATOM     21  C   UNL     1       6.693   3.672  12.483  0.00  0.00    +0.000 A 
ATOM     22  C   UNL     1       5.322   3.474  12.268  0.00  0.00    +0.000 A 
ATOM     23  C   UNL     1       4.871   2.411  11.486  0.00  0.00    +0.000 A 
ENDBRANCH  17  21
ENDBRANCH  16  17
ENDBRANCH  10  16
ENDBRANCH   1  13
BRANCH   5  24
ATOM     24  C   UNL     1       0.124  10.446  19.678  0.00  0.00    +0.000 A 
ATOM     25  N   UNL     1      -0.471  11.206  20.572  0.00  0.00    +0.000 NA
ATOM     26  C   UNL     1      -0.911  12.265  19.832  0.00  0.00    +0.000 A 
ATOM     27  N   UNL     1      -0.634  12.207  18.525  0.00  0.00    +0.000 NA
ATOM     28  N   UNL     1       0.027  11.038  18.452  0.00  0.00    +0.000 N 
ATOM     29  H   UNL     1       0.385  10.696  17.566  0.00  0.00    +0.000 HD
ENDBRANCH   5  24
BRANCH   9  30
ATOM     30  C   UNL     1       3.252   5.197  20.196  0.00  0.00    +0.000 C 
ATOM     31  C   UNL     1       1.953   4.670  20.868  0.00  0.00    +0.000 C 
ATOM     32  C   UNL     1       1.077   3.872  19.914  0.00  0.00    +0.000 C 
ATOM     33  C   UNL     1       1.814   2.668  19.347  0.00  0.00    +0.000 C 
ATOM     34  C   UNL     1       3.212   2.997  18.846  0.00  0.00    +0.000 C 
ATOM     35  C   UNL     1       4.021   3.954  19.712  0.00  0.00    +0.000 C 
ENDBRANCH   9  30
TORSDOF 6
ENDMDL
MODEL 3
REMARK VINA RESULT:      -8.3      3.756      9.741
REMARK  Name = 
REMARK  6 active torsions:
REMARK  status: ('A' for Active; 'I' for Inactive)
REMARK    1  A    between atoms: C_4  and  C_5
REMARK    2  A    between atoms: C_5  and  O_6
REMARK    3  A    between atoms: O_6  and  C_7
REMARK    4  A    between atoms: C_10  and  C_11
REMARK    5  A    between atoms: C_15  and  C_16
REMARK    6  A    between atoms: C_24  and  C_25
REMARK                            x       y       z     vdW  Elec       q    Type
REMARK                         _______ _______ _______ _____ _____    ______ ____
ROOT
ATOM      1  C   UNL     1       2.716   6.793  18.537  0.00  0.00    +0.000 A 
ATOM      2  C   UNL     1       3.785   7.405  17.662  0.00  0.00    +0.000 A 
ATOM      3  N   UNL     1       4.579   6.798  16.835  0.00  0.00    +0.000 NA
ATOM      4  C   UNL     1       4.391   5.452  16.747  0.00  0.00    +0.000 A 
ATOM      5  C   UNL     1       5.030   4.488  15.998  0.00  0.00    +0.000 A 
ATOM      6  C   UNL     1       4.399   3.283  16.303  0.00  0.00    +0.000 A 
ATOM      7  N   UNL     1       3.390   3.448  17.154  0.00  0.00    +0.000 NA
ATOM      8  N   UNL     1       3.407   4.774  17.488  0.00  0.00    +0.000 N 
ATOM      9  C   UNL     1       2.563   5.439  18.431  0.00  0.00    +0.000 A 
ENDROOT
BRANCH   1  13
ATOM     10  C   UNL     1       0.899   9.758  21.037  0.00  0.00    +0.000 A 
ATOM     11  C   UNL     1       0.911   9.919  19.652  0.00  0.00    +0.000 A 
ATOM     12  C   UNL     1       1.422   8.902  18.828  0.00  0.00    +0.000 A 
ATOM     13  C   UNL     1       1.991   7.749  19.392  0.00  0.00    +0.000 A 
ATOM     14  C   UNL     1       1.861   7.539  20.767  0.00  0.00    +0.000 A 
ATOM     15  C   UNL     1       1.327   8.544  21.583  0.00  0.00    +0.000 A 
BRANCH  10  16
ATOM     16  O   UNL     1       0.526  10.697  21.958  0.00  0.00    +0.000 OA
BRANCH  16  17
ATOM     17  C   UNL     1      -0.684  10.479  22.682  0.00  0.00    +0.000 C 
BRANCH  17  21
ATOM     18  C   UNL     1      -2.604  14.290  23.333  0.00  0.00    +0.000 A 
ATOM     19  C   UNL     1      -1.321  14.241  22.771  0.00  0.00    +0.000 A 
ATOM     20  C   UNL     1      -0.705  13.012  22.544  0.00  0.00    +0.000 A 
ATOM     21  C   UNL     1      -1.363  11.817  22.867  0.00  0.00    +0.000 A 
ATOM     22  C   UNL     1      -2.651  11.879  23.417  0.00  0.00    +0.000 A 
ATOM     23  C   UNL     1      -3.267  13.109  23.649  0.00  0.00    +0.000 A 
ENDBRANCH  17  21
ENDBRANCH  16  17
ENDBRANCH  10  16
ENDBRANCH   1  13
BRANCH   5  24
ATOM     24  C   UNL     1       6.143   4.704  15.061  0.00  0.00    +0.000 A 
ATOM     25  N   UNL     1       6.309   4.092  13.909  0.00  0.00    +0.000 NA
ATOM     26  C   UNL     1       7.456   4.653  13.424  0.00  0.00    +0.000 A 
ATOM     27  N   UNL     1       8.022   5.573  14.211  0.00  0.00    +0.000 NA
ATOM     28  N   UNL     1       7.166   5.589  15.249  0.00  0.00    +0.000 N 
ATOM     29  H   UNL     1       7.317   6.205  16.040  0.00  0.00    +0.000 HD
ENDBRANCH   5  24
BRANCH   9  30
ATOM     30  C   UNL     1       1.556   4.467  19.123  0.00  0.00    +0.000 C 
ATOM     31  C   UNL     1       1.878   2.958  18.930  0.00  0.00    +0.000 C 
ATOM     32  C   UNL     1       3.012   2.477  19.822  0.00  0.00    +0.000 C 
ATOM     33  C   UNL     1       2.697   2.687  21.295  0.00  0.00    +0.000 C 
ATOM     34  C   UNL     1       2.152   4.073  21.604  0.00  0.00    +0.000 C 
ATOM     35  C   UNL     1       1.154   4.635  20.600  0.00  0.00    +0.000 C 
ENDBRANCH   9  30
TORSDOF 6
ENDMDL
MODEL 4
REMARK VINA RESULT:      -8.2      3.777      9.840
REMARK  Name = 
REMARK  6 active torsions:
REMARK  status: ('A' for Active; 'I' for Inactive)
REMARK    1  A    between atoms: C_4  and  C_5
REMARK    2  A    between atoms: C_5  and  O_6
REMARK    3  A    between atoms: O_6  and  C_7
REMARK    4  A    between atoms: C_10  and  C_11
REMARK    5  A    between atoms: C_15  and  C_16
REMARK    6  A    between atoms: C_24  and  C_25
REMARK                            x       y       z     vdW  Elec       q    Type
REMARK                         _______ _______ _______ _____ _____    ______ ____
ROOT
ATOM      1  C   UNL     1       2.705   6.994  19.051  0.00  0.00    +0.000 A 
ATOM      2  C   UNL     1       3.444   7.527  17.845  0.00  0.00    +0.000 A 
ATOM      3  N   UNL     1       4.240   6.880  17.051  0.00  0.00    +0.000 NA
ATOM      4  C   UNL     1       4.393   5.559  17.347  0.00  0.00    +0.000 A 
ATOM      5  C   UNL     1       5.144   4.570  16.750  0.00  0.00    +0.000 A 
ATOM      6  C   UNL     1       4.893   3.407  17.475  0.00  0.00    +0.000 A 
ATOM      7  N   UNL     1       4.008   3.604  18.449  0.00  0.00    +0.000 NA
ATOM      8  N   UNL     1       3.732   4.943  18.425  0.00  0.00    +0.000 N 
ATOM      9  C   UNL     1       2.891   5.668  19.325  0.00  0.00    +0.000 A 
ENDROOT
BRANCH   1  13
ATOM     10  C   UNL     1       0.622  10.075  21.176  0.00  0.00    +0.000 A 
ATOM     11  C   UNL     1       0.790  10.164  19.795  0.00  0.00    +0.000 A 
ATOM     12  C   UNL     1       1.388   9.109  19.087  0.00  0.00    +0.000 A 
ATOM     13  C   UNL     1       1.890   7.989  19.769  0.00  0.00    +0.000 A 
ATOM     14  C   UNL     1       1.607   7.849  21.130  0.00  0.00    +0.000 A 
ATOM     15  C   UNL     1       0.986   8.893  21.828  0.00  0.00    +0.000 A 
BRANCH  10  16
ATOM     16  O   UNL     1       0.150  11.058  22.000  0.00  0.00    +0.000 OA
BRANCH  16  17
ATOM     17  C   UNL     1      -0.990  10.763  22.806  0.00  0.00    +0.000 C 
BRANCH  17  21
ATOM     18  C   UNL     1      -2.980  14.459  23.808  0.00  0.00    +0.000 A 
ATOM     19  C   UNL     1      -1.665  14.483  23.326  0.00  0.00    +0.000 A 
ATOM     20  C   UNL     1      -1.025  13.293  22.986  0.00  0.00    +0.000 A 
ATOM     21  C   UNL     1      -1.691  12.066  23.115  0.00  0.00    +0.000 A 
ATOM     22  C   UNL     1      -3.012  12.058  23.586  0.00  0.00    +0.000 A 
ATOM     23  C   UNL     1      -3.651  13.247  23.930  0.00  0.00    +0.000 A 
ENDBRANCH  17  21
ENDBRANCH  16  17
ENDBRANCH  10  16
ENDBRANCH   1  13
BRANCH   5  24
ATOM     24  C   UNL     1       6.017   4.724  15.577  0.00  0.00    +0.000 A 
ATOM     25  N   UNL     1       5.878   4.102  14.426  0.00  0.00    +0.000 NA
ATOM     26  C   UNL     1       6.908   4.600  13.680  0.00  0.00    +0.000 A 
ATOM     27  N   UNL     1       7.689   5.489  14.301  0.00  0.00    +0.000 NA
ATOM     28  N   UNL     1       7.100   5.552  15.509  0.00  0.00    +0.000 N 
ATOM     29  H   UNL     1       7.464   6.161  16.234  0.00  0.00    +0.000 HD
ENDBRANCH   5  24
BRANCH   9  30
ATOM     30  C   UNL     1       2.277   4.758  20.435  0.00  0.00    +0.000 C 
ATOM     31  C   UNL     1       0.790   4.369  20.203  0.00  0.00    +0.000 C 
ATOM     32  C   UNL     1       0.621   3.275  19.161  0.00  0.00    +0.000 C 
ATOM     33  C   UNL     1       1.364   2.006  19.552  0.00  0.00    +0.000 C 
ATOM     34  C   UNL     1       2.788   2.261  20.022  0.00  0.00    +0.000 C 
ATOM     35  C   UNL     1       2.986   3.478  20.916  0.00  0.00    +0.000 C 
ENDBRANCH   9  30
TORSDOF 6
ENDMDL
MODEL 5
REMARK VINA RESULT:      -8.1      3.668      9.472
REMARK  Name = 
REMARK  6 active torsions:
REMARK  status: ('A' for Active; 'I' for Inactive)
REMARK    1  A    between atoms: C_4  and  C_5
REMARK    2  A    between atoms: C_5  and  O_6
REMARK    3  A    between atoms: O_6  and  C_7
REMARK    4  A    between atoms: C_10  and  C_11
REMARK    5  A    between atoms: C_15  and  C_16
REMARK    6  A    between atoms: C_24  and  C_25
REMARK                            x       y       z     vdW  Elec       q    Type
REMARK                         _______ _______ _______ _____ _____    ______ ____
ROOT
ATOM      1  C   UNL     1       2.896   6.794  18.795  0.00  0.00    +0.000 A 
ATOM      2  C   UNL     1       3.605   7.373  17.593  0.00  0.00    +0.000 A 
ATOM      3  N   UNL     1       4.398   6.762  16.768  0.00  0.00    +0.000 NA
ATOM      4  C   UNL     1       4.576   5.436  17.023  0.00  0.00    +0.000 A 
ATOM      5  C   UNL     1       5.332   4.477  16.385  0.00  0.00    +0.000 A 
ATOM      6  C   UNL     1       5.112   3.289  17.080  0.00  0.00    +0.000 A 
ATOM      7  N   UNL     1       4.241   3.444  18.074  0.00  0.00    +0.000 NA
ATOM      8  N   UNL     1       3.944   4.779  18.093  0.00  0.00    +0.000 N 
ATOM      9  C   UNL     1       3.107   5.464  19.028  0.00  0.00    +0.000 A 
ENDROOT
BRANCH   1  13
ATOM     10  C   UNL     1       0.802   9.779  21.043  0.00  0.00    +0.000 A 
ATOM     11  C   UNL     1       0.945   9.911  19.662  0.00  0.00    +0.000 A 
ATOM     12  C   UNL     1       1.548   8.886  18.914  0.00  0.00    +0.000 A 
ATOM     13  C   UNL     1       2.077   7.755  19.555  0.00  0.00    +0.000 A 
ATOM     14  C   UNL     1       1.819   7.571  20.916  0.00  0.00    +0.000 A 
ATOM     15  C   UNL     1       1.194   8.584  21.654  0.00  0.00    +0.000 A 
BRANCH  10  16
ATOM     16  O   UNL     1       0.328  10.730  21.903  0.00  0.00    +0.000 OA
BRANCH  16  17
ATOM     17  C   UNL     1      -0.018  12.005  21.364  0.00  0.00    +0.000 C 
BRANCH  17  21
ATOM     18  C   UNL     1      -4.163  12.699  22.345  0.00  0.00    +0.000 A 
ATOM     19  C   UNL     1      -3.241  12.428  23.364  0.00  0.00    +0.000 A 
ATOM     20  C   UNL     1      -1.899  12.220  23.053  0.00  0.00    +0.000 A 
ATOM     21  C   UNL     1      -1.459  12.286  21.723  0.00  0.00    +0.000 A 
ATOM     22  C   UNL     1      -2.390  12.571  20.714  0.00  0.00    +0.000 A 
ATOM     23  C   UNL     1      -3.734  12.776  21.025  0.00  0.00    +0.000 A 
ENDBRANCH  17  21
ENDBRANCH  16  17
ENDBRANCH  10  16
ENDBRANCH   1  13
BRANCH   5  24
ATOM     24  C   UNL     1       6.183   4.678  15.202  0.00  0.00    +0.000 A 
ATOM     25  N   UNL     1       6.035   4.085  14.037  0.00  0.00    +0.000 NA
ATOM     26  C   UNL     1       7.043   4.621  13.289  0.00  0.00    +0.000 A 
ATOM     27  N   UNL     1       7.819   5.508  13.921  0.00  0.00    +0.000 NA
ATOM     28  N   UNL     1       7.250   5.528  15.139  0.00  0.00    +0.000 N 
ATOM     29  H   UNL     1       7.614   6.123  15.875  0.00  0.00    +0.000 HD
ENDBRANCH   5  24
BRANCH   9  30
ATOM     30  C   UNL     1       2.526   4.513  20.121  0.00  0.00    +0.000 C 
ATOM     31  C   UNL     1       0.986   4.313  20.052  0.00  0.00    +0.000 C 
ATOM     32  C   UNL     1       0.563   3.359  18.946  0.00  0.00    +0.000 C 
ATOM     33  C   UNL     1       1.191   1.984  19.119  0.00  0.00    +0.000 C 
ATOM     34  C   UNL     1       2.681   2.033  19.418  0.00  0.00    +0.000 C 
ATOM     35  C   UNL     1       3.130   3.120  20.386  0.00  0.00    +0.000 C 
ENDBRANCH   9  30
TORSDOF 6
ENDMDL
MODEL 6
REMARK VINA RESULT:      -8.1      3.866      8.790
REMARK  Name = 
REMARK  6 active torsions:
REMARK  status: ('A' for Active; 'I' for Inactive)
REMARK    1  A    between atoms: C_4  and  C_5
REMARK    2  A    between atoms: C_5  and  O_6
REMARK    3  A    between atoms: O_6  and  C_7
REMARK    4  A    between atoms: C_10  and  C_11
REMARK    5  A    between atoms: C_15  and  C_16
REMARK    6  A    between atoms: C_24  and  C_25
REMARK                            x       y       z     vdW  Elec       q    Type
REMARK                         _______ _______ _______ _____ _____    ______ ____
ROOT
ATOM      1  C   UNL     1       3.431   6.877  17.855  0.00  0.00    +0.000 A 
ATOM      2  C   UNL     1       4.108   7.430  16.622  0.00  0.00    +0.000 A 
ATOM      3  N   UNL     1       4.923   6.816  15.821  0.00  0.00    +0.000 NA
ATOM      4  C   UNL     1       5.161   5.512  16.136  0.00  0.00    +0.000 A 
ATOM      5  C   UNL     1       5.956   4.559  15.538  0.00  0.00    +0.000 A 
ATOM      6  C   UNL     1       5.792   3.396  16.289  0.00  0.00    +0.000 A 
ATOM      7  N   UNL     1       4.919   3.559  17.281  0.00  0.00    +0.000 NA
ATOM      8  N   UNL     1       4.564   4.879  17.240  0.00  0.00    +0.000 N 
ATOM      9  C   UNL     1       3.701   5.570  18.148  0.00  0.00    +0.000 A 
ENDROOT
BRANCH   1  13
ATOM     10  C   UNL     1       0.669   9.463  19.863  0.00  0.00    +0.000 A 
ATOM     11  C   UNL     1       1.215   8.366  20.528  0.00  0.00    +0.000 A 
ATOM     12  C   UNL     1       2.192   7.575  19.901  0.00  0.00    +0.000 A 
ATOM     13  C   UNL     1       2.574   7.835  18.575  0.00  0.00    +0.000 A 
ATOM     14  C   UNL     1       2.118   9.005  17.961  0.00  0.00    +0.000 A 
ATOM     15  C   UNL     1       1.164   9.806  18.601  0.00  0.00    +0.000 A 
BRANCH  10  16
ATOM     16  O   UNL     1      -0.351  10.255  20.310  0.00  0.00    +0.000 OA
BRANCH  16  17
ATOM     17  C   UNL     1      -0.641  11.446  19.580  0.00  0.00    +0.000 C 
BRANCH  17  21
ATOM     18  C   UNL     1      -4.554  10.885  17.848  0.00  0.00    +0.000 A 
ATOM     19  C   UNL     1      -4.353  11.883  18.810  0.00  0.00    +0.000 A 
ATOM     20  C   UNL     1      -3.088  12.078  19.359  0.00  0.00    +0.000 A 
ATOM     21  C   UNL     1      -2.006  11.286  18.951  0.00  0.00    +0.000 A 
ATOM     22  C   UNL     1      -2.218  10.299  17.977  0.00  0.00    +0.000 A 
ATOM     23  C   UNL     1      -3.484  10.100  17.430  0.00  0.00    +0.000 A 
ENDBRANCH  17  21
ENDBRANCH  16  17
ENDBRANCH  10  16
ENDBRANCH   1  13
BRANCH   5  24
ATOM     24  C   UNL     1       6.791   4.742  14.342  0.00  0.00    +0.000 A 
ATOM     25  N   UNL     1       6.627   4.132  13.188  0.00  0.00    +0.000 NA
ATOM     26  C   UNL     1       7.626   4.656  12.418  0.00  0.00    +0.000 A 
ATOM     27  N   UNL     1       8.411   5.551  13.027  0.00  0.00    +0.000 NA
ATOM     28  N   UNL     1       7.858   5.589  14.253  0.00  0.00    +0.000 N 
ATOM     29  H   UNL     1       8.232   6.195  14.975  0.00  0.00    +0.000 HD
ENDBRANCH   5  24
BRANCH   9  30
ATOM     30  C   UNL     1       3.169   4.646  19.288  0.00  0.00    +0.000 C 
ATOM     31  C   UNL     1       1.625   4.471  19.310  0.00  0.00    +0.000 C 
ATOM     32  C   UNL     1       1.125   3.506  18.245  0.00  0.00    +0.000 C 
ATOM     33  C   UNL     1       1.739   2.124  18.406  0.00  0.00    +0.000 C 
ATOM     34  C   UNL     1       3.244   2.153  18.620  0.00  0.00    +0.000 C 
ATOM     35  C   UNL     1       3.764   3.248  19.542  0.00  0.00    +0.000 C 
ENDBRANCH   9  30
TORSDOF 6
ENDMDL
MODEL 7
REMARK VINA RESULT:      -8.0      3.751      9.608
REMARK  Name = 
REMARK  6 active torsions:
REMARK  status: ('A' for Active; 'I' for Inactive)
REMARK    1  A    between atoms: C_4  and  C_5
REMARK    2  A    between atoms: C_5  and  O_6
REMARK    3  A    between atoms: O_6  and  C_7
REMARK    4  A    between atoms: C_10  and  C_11
REMARK    5  A    between atoms: C_15  and  C_16
REMARK    6  A    between atoms: C_24  and  C_25
REMARK                            x       y       z     vdW  Elec       q    Type
REMARK                         _______ _______ _______ _____ _____    ______ ____
ROOT
ATOM      1  C   UNL     1       2.809   6.790  18.419  0.00  0.00    +0.000 A 
ATOM      2  C   UNL     1       3.876   7.410  17.548  0.00  0.00    +0.000 A 
ATOM      3  N   UNL     1       4.672   6.809  16.717  0.00  0.00    +0.000 NA
ATOM      4  C   UNL     1       4.486   5.463  16.621  0.00  0.00    +0.000 A 
ATOM      5  C   UNL     1       5.128   4.505  15.867  0.00  0.00    +0.000 A 
ATOM      6  C   UNL     1       4.500   3.297  16.165  0.00  0.00    +0.000 A 
ATOM      7  N   UNL     1       3.490   3.455  17.017  0.00  0.00    +0.000 NA
ATOM      8  N   UNL     1       3.504   4.779  17.358  0.00  0.00    +0.000 N 
ATOM      9  C   UNL     1       2.659   5.436  18.305  0.00  0.00    +0.000 A 
ENDROOT
BRANCH   1  13
ATOM     10  C   UNL     1       0.422   9.333  20.905  0.00  0.00    +0.000 A 
ATOM     11  C   UNL     1       1.163   8.295  21.469  0.00  0.00    +0.000 A 
ATOM     12  C   UNL     1       2.019   7.523  20.666  0.00  0.00    +0.000 A 
ATOM     13  C   UNL     1       2.081   7.739  19.280  0.00  0.00    +0.000 A 
ATOM     14  C   UNL     1       1.435   8.856  18.744  0.00  0.00    +0.000 A 
ATOM     15  C   UNL     1       0.603   9.640  19.554  0.00  0.00    +0.000 A 
BRANCH  10  16
ATOM     16  O   UNL     1      -0.516  10.096  21.542  0.00  0.00    +0.000 OA
BRANCH  16  17
ATOM     17  C   UNL     1      -0.468  11.509  21.354  0.00  0.00    +0.000 C 
BRANCH  17  21
ATOM     18  C   UNL     1      -4.344  13.040  22.478  0.00  0.00    +0.000 A 
ATOM     19  C   UNL     1      -3.487  12.520  23.458  0.00  0.00    +0.000 A 
ATOM     20  C   UNL     1      -2.229  12.041  23.101  0.00  0.00    +0.000 A 
ATOM     21  C   UNL     1      -1.806  12.080  21.765  0.00  0.00    +0.000 A 
ATOM     22  C   UNL     1      -2.668  12.614  20.796  0.00  0.00    +0.000 A 
ATOM     23  C   UNL     1      -3.929  13.090  21.152  0.00  0.00    +0.000 A 
ENDBRANCH  17  21
ENDBRANCH  16  17
ENDBRANCH  10  16
ENDBRANCH   1  13
BRANCH   5  24
ATOM     24  C   UNL     1       6.241   4.729  14.931  0.00  0.00    +0.000 A 
ATOM     25  N   UNL     1       6.379   4.165  13.750  0.00  0.00    +0.000 NA
ATOM     26  C   UNL     1       7.539   4.712  13.282  0.00  0.00    +0.000 A 
ATOM     27  N   UNL     1       8.139   5.578  14.105  0.00  0.00    +0.000 NA
ATOM     28  N   UNL     1       7.292   5.572  15.149  0.00  0.00    +0.000 N 
ATOM     29  H   UNL     1       7.467   6.147  15.966  0.00  0.00    +0.000 HD
ENDBRANCH   5  24
BRANCH   9  30
ATOM     30  C   UNL     1       1.654   4.458  18.991  0.00  0.00    +0.000 C 
ATOM     31  C   UNL     1       2.030   2.954  18.869  0.00  0.00    +0.000 C 
ATOM     32  C   UNL     1       3.140   2.543  19.823  0.00  0.00    +0.000 C 
ATOM     33  C   UNL     1       2.757   2.796  21.274  0.00  0.00    +0.000 C 
ATOM     34  C   UNL     1       2.157   4.173  21.508  0.00  0.00    +0.000 C 
ATOM     35  C   UNL     1       1.185   4.666  20.444  0.00  0.00    +0.000 C 
ENDBRANCH   9  30
TORSDOF 6
ENDMDL
MODEL 8
REMARK VINA RESULT:      -7.9      3.750      9.603
REMARK  Name = 
REMARK  6 active torsions:
REMARK  status: ('A' for Active; 'I' for Inactive)
REMARK    1  A    between atoms: C_4  and  C_5
REMARK    2  A    between atoms: C_5  and  O_6
REMARK    3  A    between atoms: O_6  and  C_7
REMARK    4  A    between atoms: C_10  and  C_11
REMARK    5  A    between atoms: C_15  and  C_16
REMARK    6  A    between atoms: C_24  and  C_25
REMARK                            x       y       z     vdW  Elec       q    Type
REMARK                         _______ _______ _______ _____ _____    ______ ____
ROOT
ATOM      1  C   UNL     1       3.162   6.733  18.408  0.00  0.00    +0.000 A 
ATOM      2  C   UNL     1       3.861   7.325  17.206  0.00  0.00    +0.000 A 
ATOM      3  N   UNL     1       4.666   6.729  16.381  0.00  0.00    +0.000 NA
ATOM      4  C   UNL     1       4.871   5.407  16.638  0.00  0.00    +0.000 A 
ATOM      5  C   UNL     1       5.646   4.463  16.001  0.00  0.00    +0.000 A 
ATOM      6  C   UNL     1       5.450   3.272  16.697  0.00  0.00    +0.000 A 
ATOM      7  N   UNL     1       4.576   3.410  17.690  0.00  0.00    +0.000 NA
ATOM      8  N   UNL     1       4.251   4.738  17.708  0.00  0.00    +0.000 N 
ATOM      9  C   UNL     1       3.400   5.407  18.642  0.00  0.00    +0.000 A 
ENDROOT
BRANCH   1  13
ATOM     10  C   UNL     1       0.456   9.266  20.554  0.00  0.00    +0.000 A 
ATOM     11  C   UNL     1       1.093   8.209  21.203  0.00  0.00    +0.000 A 
ATOM     12  C   UNL     1       2.052   7.439  20.523  0.00  0.00    +0.000 A 
ATOM     13  C   UNL     1       2.324   7.677  19.167  0.00  0.00    +0.000 A 
ATOM     14  C   UNL     1       1.777   8.811  18.561  0.00  0.00    +0.000 A 
ATOM     15  C   UNL     1       0.842   9.593  19.250  0.00  0.00    +0.000 A 
BRANCH  10  16
ATOM     16  O   UNL     1      -0.559  10.030  21.057  0.00  0.00    +0.000 OA
BRANCH  16  17
ATOM     17  C   UNL     1      -0.559  10.305  22.457  0.00  0.00    +0.000 C 
BRANCH  17  21
ATOM     18  C   UNL     1      -2.201  14.269  22.917  0.00  0.00    +0.000 A 
ATOM     19  C   UNL     1      -2.902  13.161  23.411  0.00  0.00    +0.000 A 
ATOM     20  C   UNL     1      -2.367  11.882  23.279  0.00  0.00    +0.000 A 
ATOM     21  C   UNL     1      -1.124  11.691  22.660  0.00  0.00    +0.000 A 
ATOM     22  C   UNL     1      -0.427  12.810  22.182  0.00  0.00    +0.000 A 
ATOM     23  C   UNL     1      -0.963  14.090  22.310  0.00  0.00    +0.000 A 
ENDBRANCH  17  21
ENDBRANCH  16  17
ENDBRANCH  10  16
ENDBRANCH   1  13
BRANCH   5  24
ATOM     24  C   UNL     1       6.494   4.681  14.819  0.00  0.00    +0.000 A 
ATOM     25  N   UNL     1       6.364   4.078  13.657  0.00  0.00    +0.000 NA
ATOM     26  C   UNL     1       7.359   4.637  12.907  0.00  0.00    +0.000 A 
ATOM     27  N   UNL     1       8.110   5.547  13.535  0.00  0.00    +0.000 NA
ATOM     28  N   UNL     1       7.537   5.558  14.753  0.00  0.00    +0.000 N 
ATOM     29  H   UNL     1       7.884   6.168  15.486  0.00  0.00    +0.000 HD
ENDBRANCH   5  24
BRANCH   9  30
ATOM     30  C   UNL     1       2.838   4.445  19.736  0.00  0.00    +0.000 C 
ATOM     31  C   UNL     1       1.289   4.317  19.750  0.00  0.00    +0.000 C 
ATOM     32  C   UNL     1       0.760   3.423  18.640  0.00  0.00    +0.000 C 
ATOM     33  C   UNL     1       1.330   2.016  18.731  0.00  0.00    +0.000 C 
ATOM     34  C   UNL     1       2.835   1.988  18.945  0.00  0.00    +0.000 C 
ATOM     35  C   UNL     1       3.390   3.018  19.919  0.00  0.00    +0.000 C 
ENDBRANCH   9  30
TORSDOF 6
ENDMDL
MODEL 9
REMARK VINA RESULT:      -7.8      3.838     10.337
REMARK  Name = 
REMARK  6 active torsions:
REMARK  status: ('A' for Active; 'I' for Inactive)
REMARK    1  A    between atoms: C_4  and  C_5
REMARK    2  A    between atoms: C_5  and  O_6
REMARK    3  A    between atoms: O_6  and  C_7
REMARK    4  A    between atoms: C_10  and  C_11
REMARK    5  A    between atoms: C_15  and  C_16
REMARK    6  A    between atoms: C_24  and  C_25
REMARK                            x       y       z     vdW  Elec       q    Type
REMARK                         _______ _______ _______ _____ _____    ______ ____
ROOT
ATOM      1  C   UNL     1       1.313   9.230  18.862  0.00  0.00    +0.000 A 
ATOM      2  C   UNL     1       2.011   9.155  17.524  0.00  0.00    +0.000 A 
ATOM      3  N   UNL     1       2.857   8.259  17.118  0.00  0.00    +0.000 NA
ATOM      4  C   UNL     1       3.110   7.265  18.015  0.00  0.00    +0.000 A 
ATOM      5  C   UNL     1       3.937   6.165  17.948  0.00  0.00    +0.000 A 
ATOM      6  C   UNL     1       3.775   5.489  19.156  0.00  0.00    +0.000 A 
ATOM      7  N   UNL     1       2.876   6.076  19.942  0.00  0.00    +0.000 NA
ATOM      8  N   UNL     1       2.497   7.210  19.279  0.00  0.00    +0.000 N 
ATOM      9  C   UNL     1       1.600   8.223  19.741  0.00  0.00    +0.000 A 
ENDROOT
BRANCH   1  13
ATOM     10  C   UNL     1      -1.320  12.504  19.691  0.00  0.00    +0.000 A 
ATOM     11  C   UNL     1       0.047  12.623  19.935  0.00  0.00    +0.000 A 
ATOM     12  C   UNL     1       0.922  11.585  19.574  0.00  0.00    +0.000 A 
ATOM     13  C   UNL     1       0.421  10.390  19.034  0.00  0.00    +0.000 A 
ATOM     14  C   UNL     1      -0.928  10.327  18.677  0.00  0.00    +0.000 A 
ATOM     15  C   UNL     1      -1.793  11.376  19.014  0.00  0.00    +0.000 A 
BRANCH  10  16
ATOM     16  O   UNL     1      -2.291  13.386  20.075  0.00  0.00    +0.000 OA
BRANCH  16  17
ATOM     17  C   UNL     1      -3.630  12.904  20.178  0.00  0.00    +0.000 C 
BRANCH  17  21
ATOM     18  C   UNL     1      -4.747  12.685  24.341  0.00  0.00    +0.000 A 
ATOM     19  C   UNL     1      -3.438  12.373  23.953  0.00  0.00    +0.000 A 
ATOM     20  C   UNL     1      -3.069  12.459  22.612  0.00  0.00    +0.000 A 
ATOM     21  C   UNL     1      -3.999  12.863  21.643  0.00  0.00    +0.000 A 
ATOM     22  C   UNL     1      -5.302  13.184  22.047  0.00  0.00    +0.000 A 
ATOM     23  C   UNL     1      -5.673  13.095  23.388  0.00  0.00    +0.000 A 
ENDBRANCH  17  21
ENDBRANCH  16  17
ENDBRANCH  10  16
ENDBRANCH   1  13
BRANCH   5  24
ATOM     24  C   UNL     1       4.799   5.785  16.819  0.00  0.00    +0.000 A 
ATOM     25  N   UNL     1       5.169   4.561  16.510  0.00  0.00    +0.000 NA
ATOM     26  C   UNL     1       5.928   4.742  15.389  0.00  0.00    +0.000 A 
ATOM     27  N   UNL     1       6.062   6.010  14.985  0.00  0.00    +0.000 NA
ATOM     28  N   UNL     1       5.332   6.656  15.912  0.00  0.00    +0.000 N 
ATOM     29  H   UNL     1       5.228   7.664  15.884  0.00  0.00    +0.000 HD
ENDBRANCH   5  24
BRANCH   9  30
ATOM     30  C   UNL     1       1.056   7.932  21.175  0.00  0.00    +0.000 C 
ATOM     31  C   UNL     1       1.798   8.687  22.313  0.00  0.00    +0.000 C 
ATOM     32  C   UNL     1       1.391  10.149  22.416  0.00  0.00    +0.000 C 
ATOM     33  C   UNL     1      -0.101  10.301  22.670  0.00  0.00    +0.000 C 
ATOM     34  C   UNL     1      -0.959   9.435  21.761  0.00  0.00    +0.000 C 
ATOM     35  C   UNL     1      -0.446   8.024  21.505  0.00  0.00    +0.000 C 
ENDBRANCH   9  30
TORSDOF 6
ENDMDL
